MODEL 1
REMARK VINA RESULT:      -7.0      0.000      0.000
REMARK  8 active torsions:
REMARK  status: ('A' for Active; 'I' for Inactive)
REMARK    1  A    between atoms: O_3  and  C_21 
REMARK    2  A    between atoms: N_5  and  C_17 
REMARK    3  A    between atoms: C_11  and  N_6 
REMARK    4  A    between atoms: N_6  and  C_19 
REMARK       I    between atoms: N_6  and  C_20 
REMARK    5  A    between atoms: N_7  and  C_18 
REMARK    6  A    between atoms: N_9  and  C_28 
REMARK    7  A    between atoms: C_17  and  C_18 
REMARK    8  A    between atoms: C_20  and  C_21 
ROOT
HETATM    1  N   UNK N   1      26.763  20.297   5.456  0.00  0.00     0.090 N 
HETATM    2  C   UNK N   1      28.432  18.039   5.386  0.00  0.00     0.100 C 
HETATM    3  C   UNK N   1      27.748  18.396   6.732  0.00  0.00     0.033 C 
HETATM    4  C   UNK N   1      28.869  19.222   4.535  0.00  0.00     0.056 C 
HETATM    5  C   UNK N   1      27.399  19.889   6.720  0.00  0.00     0.278 C 
HETATM    6  C   UNK N   1      27.647  20.123   4.285  0.00  0.00     0.274 C 
HETATM    7  C   UNK N   1      28.508  18.119   8.013  0.00  0.00     0.014 C 
ENDROOT
BRANCH   2   8
HETATM    8  N   UNK N   1      29.258  16.845   5.215  0.00  0.00    -0.308 N 
HETATM    9  C   UNK N   1      28.632  15.604   5.207  0.00  0.00     0.248 C 
HETATM   10  O   UNK N   1      27.414  15.536   5.270  0.00  0.00    -0.271 OA
BRANCH   8  11
HETATM   11  C   UNK N   1      30.709  17.004   5.281  0.00  0.00     0.076 A 
HETATM   12  C   UNK N   1      31.522  17.054   4.105  0.00  0.00     0.143 A 
HETATM   13  F   UNK N   1      31.009  16.906   2.860  0.00  0.00    -0.204 F 
HETATM   14  C   UNK N   1      32.896  17.294   4.200  0.00  0.00     0.044 A 
HETATM   15  C   UNK N   1      33.504  17.475   5.438  0.00  0.00     0.003 A 
HETATM   16  C   UNK N   1      32.741  17.401   6.597  0.00  0.00     0.002 A 
HETATM   17  C   UNK N   1      31.368  17.172   6.516  0.00  0.00     0.033 A 
ENDBRANCH   8  11
BRANCH   9  18
HETATM   18  C   UNK N   1      29.375  14.299   5.232  0.00  0.00     0.270 C 
BRANCH  18  19
HETATM   19  O   UNK N   1      28.677  13.304   4.552  0.00  0.00    -0.387 OA
HETATM   20  C   UNK N   1      29.342  13.194   3.332  0.00  0.00     0.202 C 
ENDBRANCH  18  19
ENDBRANCH   9  18
ENDBRANCH   2   8
BRANCH   1  21
HETATM   21  C   UNK N   1      25.510  19.566   5.233  0.00  0.00     0.294 C 
BRANCH  21  22
HETATM   22  C   UNK N   1      25.219  19.391   3.740  0.00  0.00     0.181 C 
BRANCH  22  23
HETATM   23  N   UNK N   1      23.875  19.854   3.435  0.00  0.00    -0.226 N 
HETATM   24  N   UNK N   1      23.577  21.042   2.932  0.00  0.00    -0.002 NA
HETATM   25  N   UNK N   1      22.256  21.136   2.791  0.00  0.00    -0.002 NA
HETATM   26  N   UNK N   1      21.695  20.009   3.203  0.00  0.00    -0.228 N 
HETATM   27  C   UNK N   1      22.701  19.207   3.607  0.00  0.00     0.354 A 
HETATM   28  O   UNK N   1      22.570  18.084   4.063  0.00  0.00    -0.244 OA
BRANCH  26  29
HETATM   29  C   UNK N   1      20.265  19.737   3.211  0.00  0.00     0.147 C 
HETATM   30  C   UNK N   1      19.932  18.686   2.170  0.00  0.00     0.028 C 
ENDBRANCH  26  29
ENDBRANCH  22  23
ENDBRANCH  21  22
ENDBRANCH   1  21
TORSDOF 8
ENDMDL
MODEL 2
REMARK VINA RESULT:      -6.8      8.227     11.651
REMARK  8 active torsions:
REMARK  status: ('A' for Active; 'I' for Inactive)
REMARK    1  A    between atoms: O_3  and  C_21 
REMARK    2  A    between atoms: N_5  and  C_17 
REMARK    3  A    between atoms: C_11  and  N_6 
REMARK    4  A    between atoms: N_6  and  C_19 
REMARK       I    between atoms: N_6  and  C_20 
REMARK    5  A    between atoms: N_7  and  C_18 
REMARK    6  A    between atoms: N_9  and  C_28 
REMARK    7  A    between atoms: C_17  and  C_18 
REMARK    8  A    between atoms: C_20  and  C_21 
ROOT
HETATM    1  N   UNK N   1      35.237  14.713   8.998  0.00  0.00     0.090 N 
HETATM    2  C   UNK N   1      35.836  13.511  11.465  0.00  0.00     0.100 C 
HETATM    3  C   UNK N   1      37.019  14.012  10.593  0.00  0.00     0.033 C 
HETATM    4  C   UNK N   1      34.658  12.925  10.702  0.00  0.00     0.056 C 
HETATM    5  C   UNK N   1      36.555  14.072   9.133  0.00  0.00     0.278 C 
HETATM    6  C   UNK N   1      34.162  13.970   9.688  0.00  0.00     0.274 C 
HETATM    7  C   UNK N   1      38.312  13.223  10.625  0.00  0.00     0.014 C 
ENDROOT
BRANCH   2   8
HETATM    8  N   UNK N   1      36.027  12.942  12.798  0.00  0.00    -0.308 N 
HETATM    9  C   UNK N   1      36.389  13.793  13.834  0.00  0.00     0.248 C 
HETATM   10  O   UNK N   1      36.471  14.995  13.635  0.00  0.00    -0.271 OA
BRANCH   8  11
HETATM   11  C   UNK N   1      36.041  11.485  12.921  0.00  0.00     0.076 A 
HETATM   12  C   UNK N   1      34.900  10.751  13.376  0.00  0.00     0.143 A 
HETATM   13  F   UNK N   1      33.755  11.358  13.769  0.00  0.00    -0.204 F 
HETATM   14  C   UNK N   1      34.918   9.353  13.400  0.00  0.00     0.044 A 
HETATM   15  C   UNK N   1      36.048   8.648  12.997  0.00  0.00     0.003 A 
HETATM   16  C   UNK N   1      37.179   9.339  12.579  0.00  0.00     0.002 A 
HETATM   17  C   UNK N   1      37.171  10.733  12.542  0.00  0.00     0.033 A 
ENDBRANCH   8  11
BRANCH   9  18
HETATM   18  C   UNK N   1      36.800  13.313  15.197  0.00  0.00     0.270 C 
BRANCH  18  19
HETATM   19  O   UNK N   1      35.802  13.550  16.141  0.00  0.00    -0.387 OA
HETATM   20  C   UNK N   1      35.509  12.287  16.651  0.00  0.00     0.202 C 
ENDBRANCH  18  19
ENDBRANCH   9  18
ENDBRANCH   2   8
BRANCH   1  21
HETATM   21  C   UNK N   1      35.266  16.095   9.492  0.00  0.00     0.294 C 
BRANCH  21  22
HETATM   22  C   UNK N   1      33.918  16.793   9.291  0.00  0.00     0.181 C 
BRANCH  22  23
HETATM   23  N   UNK N   1      33.706  17.075   7.881  0.00  0.00    -0.226 N 
HETATM   24  N   UNK N   1      34.485  17.842   7.135  0.00  0.00    -0.002 NA
HETATM   25  N   UNK N   1      33.991  17.893   5.899  0.00  0.00    -0.002 NA
HETATM   26  N   UNK N   1      32.890  17.159   5.842  0.00  0.00    -0.228 N 
HETATM   27  C   UNK N   1      32.707  16.648   7.076  0.00  0.00     0.354 A 
HETATM   28  O   UNK N   1      31.784  15.926   7.413  0.00  0.00    -0.244 OA
BRANCH  26  29
HETATM   29  C   UNK N   1      32.063  16.977   4.658  0.00  0.00     0.147 C 
HETATM   30  C   UNK N   1      32.942  16.832   3.430  0.00  0.00     0.028 C 
ENDBRANCH  26  29
ENDBRANCH  22  23
ENDBRANCH  21  22
ENDBRANCH   1  21
TORSDOF 8
ENDMDL
MODEL 3
REMARK VINA RESULT:      -6.7      4.778      9.999
REMARK  8 active torsions:
REMARK  status: ('A' for Active; 'I' for Inactive)
REMARK    1  A    between atoms: O_3  and  C_21 
REMARK    2  A    between atoms: N_5  and  C_17 
REMARK    3  A    between atoms: C_11  and  N_6 
REMARK    4  A    between atoms: N_6  and  C_19 
REMARK       I    between atoms: N_6  and  C_20 
REMARK    5  A    between atoms: N_7  and  C_18 
REMARK    6  A    between atoms: N_9  and  C_28 
REMARK    7  A    between atoms: C_17  and  C_18 
REMARK    8  A    between atoms: C_20  and  C_21 
ROOT
HETATM    1  N   UNK N   1      33.798  16.970   7.620  0.00  0.00     0.090 N 
HETATM    2  C   UNK N   1      31.181  16.804   6.613  0.00  0.00     0.100 C 
HETATM    3  C   UNK N   1      32.353  16.814   5.595  0.00  0.00     0.033 C 
HETATM    4  C   UNK N   1      31.372  17.677   7.844  0.00  0.00     0.056 C 
HETATM    5  C   UNK N   1      33.567  17.477   6.256  0.00  0.00     0.278 C 
HETATM    6  C   UNK N   1      32.681  17.263   8.540  0.00  0.00     0.274 C 
HETATM    7  C   UNK N   1      32.134  17.499   4.262  0.00  0.00     0.014 C 
ENDROOT
BRANCH   2   8
HETATM    8  N   UNK N   1      29.787  16.644   6.206  0.00  0.00    -0.308 N 
HETATM    9  C   UNK N   1      29.366  15.394   5.770  0.00  0.00     0.248 C 
HETATM   10  O   UNK N   1      30.135  14.447   5.800  0.00  0.00    -0.271 OA
BRANCH   8  11
HETATM   11  C   UNK N   1      28.972  17.850   6.072  0.00  0.00     0.076 A 
HETATM   12  C   UNK N   1      28.256  18.409   7.178  0.00  0.00     0.143 A 
HETATM   13  F   UNK N   1      28.244  17.831   8.403  0.00  0.00    -0.204 F 
HETATM   14  C   UNK N   1      27.557  19.612   7.038  0.00  0.00     0.044 A 
HETATM   15  C   UNK N   1      27.531  20.282   5.819  0.00  0.00     0.003 A 
HETATM   16  C   UNK N   1      28.193  19.745   4.722  0.00  0.00     0.002 A 
HETATM   17  C   UNK N   1      28.902  18.551   4.852  0.00  0.00     0.033 A 
ENDBRANCH   8  11
BRANCH   9  18
HETATM   18  C   UNK N   1      28.022  15.142   5.147  0.00  0.00     0.270 C 
BRANCH  18  19
HETATM   19  O   UNK N   1      28.095  15.161   3.756  0.00  0.00    -0.387 OA
HETATM   20  C   UNK N   1      26.915  15.790   3.361  0.00  0.00     0.202 C 
ENDBRANCH  18  19
ENDBRANCH   9  18
ENDBRANCH   2   8
BRANCH   1  21
HETATM   21  C   UNK N   1      34.056  15.525   7.612  0.00  0.00     0.294 C 
BRANCH  21  22
HETATM   22  C   UNK N   1      35.468  15.203   8.108  0.00  0.00     0.181 C 
BRANCH  22  23
HETATM   23  N   UNK N   1      35.420  14.731   9.482  0.00  0.00    -0.226 N 
HETATM   24  N   UNK N   1      34.805  13.630   9.886  0.00  0.00    -0.002 NA
HETATM   25  N   UNK N   1      34.950  13.509  11.204  0.00  0.00    -0.002 NA
HETATM   26  N   UNK N   1      35.658  14.532  11.658  0.00  0.00    -0.228 N 
HETATM   27  C   UNK N   1      35.952  15.298  10.588  0.00  0.00     0.354 A 
HETATM   28  O   UNK N   1      36.587  16.338  10.615  0.00  0.00    -0.244 OA
BRANCH  26  29
HETATM   29  C   UNK N   1      36.016  14.753  13.051  0.00  0.00     0.147 C 
HETATM   30  C   UNK N   1      36.441  13.444  13.690  0.00  0.00     0.028 C 
ENDBRANCH  26  29
ENDBRANCH  22  23
ENDBRANCH  21  22
ENDBRANCH   1  21
TORSDOF 8
ENDMDL
MODEL 4
REMARK VINA RESULT:      -6.4      4.157      5.458
REMARK  8 active torsions:
REMARK  status: ('A' for Active; 'I' for Inactive)
REMARK    1  A    between atoms: O_3  and  C_21 
REMARK    2  A    between atoms: N_5  and  C_17 
REMARK    3  A    between atoms: C_11  and  N_6 
REMARK    4  A    between atoms: N_6  and  C_19 
REMARK       I    between atoms: N_6  and  C_20 
REMARK    5  A    between atoms: N_7  and  C_18 
REMARK    6  A    between atoms: N_9  and  C_28 
REMARK    7  A    between atoms: C_17  and  C_18 
REMARK    8  A    between atoms: C_20  and  C_21 
ROOT
HETATM    1  N   UNK N   1      23.953  14.669   5.865  0.00  0.00     0.090 N 
HETATM    2  C   UNK N   1      25.855  16.702   5.492  0.00  0.00     0.100 C 
HETATM    3  C   UNK N   1      25.056  16.218   4.253  0.00  0.00     0.033 C 
HETATM    4  C   UNK N   1      26.213  15.625   6.506  0.00  0.00     0.056 C 
HETATM    5  C   UNK N   1      24.550  14.796   4.525  0.00  0.00     0.278 C 
HETATM    6  C   UNK N   1      24.920  14.923   6.953  0.00  0.00     0.274 C 
HETATM    7  C   UNK N   1      25.761  16.198   2.912  0.00  0.00     0.014 C 
ENDROOT
BRANCH   2   8
HETATM    8  N   UNK N   1      26.813  17.804   5.429  0.00  0.00    -0.308 N 
HETATM    9  C   UNK N   1      26.347  19.064   5.075  0.00  0.00     0.248 C 
HETATM   10  O   UNK N   1      25.153  19.244   4.894  0.00  0.00    -0.271 OA
BRANCH   8  11
HETATM   11  C   UNK N   1      28.235  17.479   5.526  0.00  0.00     0.076 A 
HETATM   12  C   UNK N   1      29.040  17.237   4.368  0.00  0.00     0.143 A 
HETATM   13  F   UNK N   1      28.528  17.242   3.113  0.00  0.00    -0.204 F 
HETATM   14  C   UNK N   1      30.415  17.014   4.491  0.00  0.00     0.044 A 
HETATM   15  C   UNK N   1      31.026  17.008   5.741  0.00  0.00     0.003 A 
HETATM   16  C   UNK N   1      30.261  17.211   6.883  0.00  0.00     0.002 A 
HETATM   17  C   UNK N   1      28.890  17.444   6.773  0.00  0.00     0.033 A 
ENDBRANCH   8  11
BRANCH   9  18
HETATM   18  C   UNK N   1      27.249  20.231   4.788  0.00  0.00     0.270 C 
BRANCH  18  19
HETATM   19  O   UNK N   1      27.794  20.751   5.961  0.00  0.00    -0.387 OA
HETATM   20  C   UNK N   1      26.878  21.724   6.360  0.00  0.00     0.202 C 
ENDBRANCH  18  19
ENDBRANCH   9  18
ENDBRANCH   2   8
BRANCH   1  21
HETATM   21  C   UNK N   1      22.801  15.566   6.019  0.00  0.00     0.294 C 
BRANCH  21  22
HETATM   22  C   UNK N   1      21.912  15.144   7.192  0.00  0.00     0.181 C 
BRANCH  22  23
HETATM   23  N   UNK N   1      21.109  16.270   7.641  0.00  0.00    -0.226 N 
HETATM   24  N   UNK N   1      21.252  17.518   7.226  0.00  0.00    -0.002 NA
HETATM   25  N   UNK N   1      20.364  18.290   7.850  0.00  0.00    -0.002 NA
HETATM   26  N   UNK N   1      19.643  17.542   8.672  0.00  0.00    -0.228 N 
HETATM   27  C   UNK N   1      20.105  16.281   8.547  0.00  0.00     0.354 A 
HETATM   28  O   UNK N   1      19.691  15.312   9.158  0.00  0.00    -0.244 OA
BRANCH  26  29
HETATM   29  C   UNK N   1      18.576  18.030   9.534  0.00  0.00     0.147 C 
HETATM   30  C   UNK N   1      19.073  19.202  10.359  0.00  0.00     0.028 C 
ENDBRANCH  26  29
ENDBRANCH  22  23
ENDBRANCH  21  22
ENDBRANCH   1  21
TORSDOF 8
ENDMDL
MODEL 5
REMARK VINA RESULT:      -6.3      4.028      5.375
REMARK  8 active torsions:
REMARK  status: ('A' for Active; 'I' for Inactive)
REMARK    1  A    between atoms: O_3  and  C_21 
REMARK    2  A    between atoms: N_5  and  C_17 
REMARK    3  A    between atoms: C_11  and  N_6 
REMARK    4  A    between atoms: N_6  and  C_19 
REMARK       I    between atoms: N_6  and  C_20 
REMARK    5  A    between atoms: N_7  and  C_18 
REMARK    6  A    between atoms: N_9  and  C_28 
REMARK    7  A    between atoms: C_17  and  C_18 
REMARK    8  A    between atoms: C_20  and  C_21 
ROOT
HETATM    1  N   UNK N   1      23.978  14.745   6.062  0.00  0.00     0.090 N 
HETATM    2  C   UNK N   1      26.236  16.188   5.221  0.00  0.00     0.100 C 
HETATM    3  C   UNK N   1      25.102  15.946   4.190  0.00  0.00     0.033 C 
HETATM    4  C   UNK N   1      26.493  15.050   6.197  0.00  0.00     0.056 C 
HETATM    5  C   UNK N   1      24.303  14.712   4.626  0.00  0.00     0.278 C 
HETATM    6  C   UNK N   1      25.177  14.721   6.925  0.00  0.00     0.274 C 
HETATM    7  C   UNK N   1      25.489  15.744   2.740  0.00  0.00     0.014 C 
ENDROOT
BRANCH   2   8
HETATM    8  N   UNK N   1      27.419  16.991   4.916  0.00  0.00    -0.308 N 
HETATM    9  C   UNK N   1      28.567  16.337   4.485  0.00  0.00     0.248 C 
HETATM   10  O   UNK N   1      28.549  15.130   4.303  0.00  0.00    -0.271 OA
BRANCH   8  11
HETATM   11  C   UNK N   1      27.399  18.404   5.288  0.00  0.00     0.076 A 
HETATM   12  C   UNK N   1      26.882  19.412   4.413  0.00  0.00     0.143 A 
HETATM   13  F   UNK N   1      26.428  19.131   3.168  0.00  0.00    -0.204 F 
HETATM   14  C   UNK N   1      26.798  20.743   4.834  0.00  0.00     0.044 A 
HETATM   15  C   UNK N   1      27.226  21.117   6.103  0.00  0.00     0.003 A 
HETATM   16  C   UNK N   1      27.759  20.162   6.961  0.00  0.00     0.002 A 
HETATM   17  C   UNK N   1      27.840  18.830   6.557  0.00  0.00     0.033 A 
ENDBRANCH   8  11
BRANCH   9  18
HETATM   18  C   UNK N   1      29.897  17.017   4.324  0.00  0.00     0.270 C 
BRANCH  18  19
HETATM   19  O   UNK N   1      30.917  16.288   4.933  0.00  0.00    -0.387 OA
HETATM   20  C   UNK N   1      31.219  17.018   6.081  0.00  0.00     0.202 C 
ENDBRANCH  18  19
ENDBRANCH   9  18
ENDBRANCH   2   8
BRANCH   1  21
HETATM   21  C   UNK N   1      23.162  15.919   6.395  0.00  0.00     0.294 C 
BRANCH  21  22
HETATM   22  C   UNK N   1      21.672  15.573   6.448  0.00  0.00     0.181 C 
BRANCH  22  23
HETATM   23  N   UNK N   1      20.951  16.579   7.210  0.00  0.00    -0.226 N 
HETATM   24  N   UNK N   1      21.102  17.887   7.075  0.00  0.00    -0.002 NA
HETATM   25  N   UNK N   1      20.299  18.510   7.935  0.00  0.00    -0.002 NA
HETATM   26  N   UNK N   1      19.625  17.605   8.631  0.00  0.00    -0.228 N 
HETATM   27  C   UNK N   1      20.030  16.399   8.183  0.00  0.00     0.354 A 
HETATM   28  O   UNK N   1      19.636  15.323   8.597  0.00  0.00    -0.244 OA
BRANCH  26  29
HETATM   29  C   UNK N   1      18.655  17.902   9.675  0.00  0.00     0.147 C 
HETATM   30  C   UNK N   1      17.265  17.503   9.218  0.00  0.00     0.028 C 
ENDBRANCH  26  29
ENDBRANCH  22  23
ENDBRANCH  21  22
ENDBRANCH   1  21
TORSDOF 8
ENDMDL
MODEL 6
REMARK VINA RESULT:      -6.3      3.132      8.024
REMARK  8 active torsions:
REMARK  status: ('A' for Active; 'I' for Inactive)
REMARK    1  A    between atoms: O_3  and  C_21 
REMARK    2  A    between atoms: N_5  and  C_17 
REMARK    3  A    between atoms: C_11  and  N_6 
REMARK    4  A    between atoms: N_6  and  C_19 
REMARK       I    between atoms: N_6  and  C_20 
REMARK    5  A    between atoms: N_7  and  C_18 
REMARK    6  A    between atoms: N_9  and  C_28 
REMARK    7  A    between atoms: C_17  and  C_18 
REMARK    8  A    between atoms: C_20  and  C_21 
ROOT
HETATM    1  N   UNK N   1      28.153  14.150   3.734  0.00  0.00     0.090 N 
HETATM    2  C   UNK N   1      27.372  16.664   4.712  0.00  0.00     0.100 C 
HETATM    3  C   UNK N   1      26.993  15.410   5.544  0.00  0.00     0.033 C 
HETATM    4  C   UNK N   1      27.329  16.489   3.201  0.00  0.00     0.056 C 
HETATM    5  C   UNK N   1      26.970  14.195   4.610  0.00  0.00     0.278 C 
HETATM    6  C   UNK N   1      28.236  15.307   2.819  0.00  0.00     0.274 C 
HETATM    7  C   UNK N   1      25.679  15.425   6.298  0.00  0.00     0.014 C 
ENDROOT
BRANCH   2   8
HETATM    8  N   UNK N   1      27.085  18.024   5.163  0.00  0.00    -0.308 N 
HETATM    9  C   UNK N   1      27.724  18.490   6.306  0.00  0.00     0.248 C 
HETATM   10  O   UNK N   1      28.556  17.793   6.866  0.00  0.00    -0.271 OA
BRANCH   8  11
HETATM   11  C   UNK N   1      25.984  18.739   4.520  0.00  0.00     0.076 A 
HETATM   12  C   UNK N   1      26.210  19.776   3.561  0.00  0.00     0.143 A 
HETATM   13  F   UNK N   1      27.453  20.199   3.226  0.00  0.00    -0.204 F 
HETATM   14  C   UNK N   1      25.136  20.380   2.899  0.00  0.00     0.044 A 
HETATM   15  C   UNK N   1      23.827  19.994   3.169  0.00  0.00     0.003 A 
HETATM   16  C   UNK N   1      23.579  19.009   4.117  0.00  0.00     0.002 A 
HETATM   17  C   UNK N   1      24.642  18.394   4.777  0.00  0.00     0.033 A 
ENDBRANCH   8  11
BRANCH   9  18
HETATM   18  C   UNK N   1      27.377  19.787   6.980  0.00  0.00     0.270 C 
BRANCH  18  19
HETATM   19  O   UNK N   1      27.974  20.869   6.336  0.00  0.00    -0.387 OA
HETATM   20  C   UNK N   1      26.988  21.855   6.344  0.00  0.00     0.202 C 
ENDBRANCH  18  19
ENDBRANCH   9  18
ENDBRANCH   2   8
BRANCH   1  21
HETATM   21  C   UNK N   1      29.391  14.059   4.518  0.00  0.00     0.294 C 
BRANCH  21  22
HETATM   22  C   UNK N   1      30.477  14.984   3.963  0.00  0.00     0.181 C 
BRANCH  22  23
HETATM   23  N   UNK N   1      31.222  15.592   5.054  0.00  0.00    -0.226 N 
HETATM   24  N   UNK N   1      30.941  15.444   6.339  0.00  0.00    -0.002 NA
HETATM   25  N   UNK N   1      31.814  16.146   7.059  0.00  0.00    -0.002 NA
HETATM   26  N   UNK N   1      32.662  16.752   6.241  0.00  0.00    -0.228 N 
HETATM   27  C   UNK N   1      32.296  16.410   4.989  0.00  0.00     0.354 A 
HETATM   28  O   UNK N   1      32.839  16.787   3.965  0.00  0.00    -0.244 OA
BRANCH  26  29
HETATM   29  C   UNK N   1      33.756  17.618   6.656  0.00  0.00     0.147 C 
HETATM   30  C   UNK N   1      33.466  18.197   8.028  0.00  0.00     0.028 C 
ENDBRANCH  26  29
ENDBRANCH  22  23
ENDBRANCH  21  22
ENDBRANCH   1  21
TORSDOF 8
ENDMDL
MODEL 7
REMARK VINA RESULT:      -6.3      8.067     12.491
REMARK  8 active torsions:
REMARK  status: ('A' for Active; 'I' for Inactive)
REMARK    1  A    between atoms: O_3  and  C_21 
REMARK    2  A    between atoms: N_5  and  C_17 
REMARK    3  A    between atoms: C_11  and  N_6 
REMARK    4  A    between atoms: N_6  and  C_19 
REMARK       I    between atoms: N_6  and  C_20 
REMARK    5  A    between atoms: N_7  and  C_18 
REMARK    6  A    between atoms: N_9  and  C_28 
REMARK    7  A    between atoms: C_17  and  C_18 
REMARK    8  A    between atoms: C_20  and  C_21 
ROOT
HETATM    1  N   UNK N   1      36.309  12.834  10.875  0.00  0.00     0.090 N 
HETATM    2  C   UNK N   1      35.116  13.939   8.585  0.00  0.00     0.100 C 
HETATM    3  C   UNK N   1      34.381  12.773   9.297  0.00  0.00     0.033 C 
HETATM    4  C   UNK N   1      36.635  13.850   8.574  0.00  0.00     0.056 C 
HETATM    5  C   UNK N   1      35.409  11.965  10.098  0.00  0.00     0.278 C 
HETATM    6  C   UNK N   1      37.129  13.721  10.025  0.00  0.00     0.274 C 
HETATM    7  C   UNK N   1      33.602  11.793   8.444  0.00  0.00     0.014 C 
ENDROOT
BRANCH   2   8
HETATM    8  N   UNK N   1      34.551  14.638   7.432  0.00  0.00    -0.308 N 
HETATM    9  C   UNK N   1      34.896  14.200   6.160  0.00  0.00     0.248 C 
HETATM   10  O   UNK N   1      35.597  13.210   6.025  0.00  0.00    -0.271 OA
BRANCH   8  11
HETATM   11  C   UNK N   1      33.833  15.888   7.678  0.00  0.00     0.076 A 
HETATM   12  C   UNK N   1      32.421  15.920   7.910  0.00  0.00     0.143 A 
HETATM   13  F   UNK N   1      31.652  14.805   7.866  0.00  0.00    -0.204 F 
HETATM   14  C   UNK N   1      31.780  17.121   8.227  0.00  0.00     0.044 A 
HETATM   15  C   UNK N   1      32.497  18.310   8.311  0.00  0.00     0.003 A 
HETATM   16  C   UNK N   1      33.864  18.311   8.061  0.00  0.00     0.002 A 
HETATM   17  C   UNK N   1      34.517  17.118   7.752  0.00  0.00     0.033 A 
ENDBRANCH   8  11
BRANCH   9  18
HETATM   18  C   UNK N   1      34.541  14.943   4.903  0.00  0.00     0.270 C 
BRANCH  18  19
HETATM   19  O   UNK N   1      33.834  14.132   4.017  0.00  0.00    -0.387 OA
HETATM   20  C   UNK N   1      32.555  14.061   4.567  0.00  0.00     0.202 C 
ENDBRANCH  18  19
ENDBRANCH   9  18
ENDBRANCH   2   8
BRANCH   1  21
HETATM   21  C   UNK N   1      35.559  13.644  11.843  0.00  0.00     0.294 C 
BRANCH  21  22
HETATM   22  C   UNK N   1      36.426  14.031  13.044  0.00  0.00     0.181 C 
BRANCH  22  23
HETATM   23  N   UNK N   1      35.752  13.675  14.282  0.00  0.00    -0.226 N 
HETATM   24  N   UNK N   1      34.581  13.061  14.360  0.00  0.00    -0.002 NA
HETATM   25  N   UNK N   1      34.257  12.903  15.642  0.00  0.00    -0.002 NA
HETATM   26  N   UNK N   1      35.216  13.415  16.398  0.00  0.00    -0.228 N 
HETATM   27  C   UNK N   1      36.151  13.899  15.554  0.00  0.00     0.354 A 
HETATM   28  O   UNK N   1      37.182  14.457  15.886  0.00  0.00    -0.244 OA
BRANCH  26  29
HETATM   29  C   UNK N   1      35.216  13.439  17.853  0.00  0.00     0.147 C 
HETATM   30  C   UNK N   1      35.311  12.025  18.394  0.00  0.00     0.028 C 
ENDBRANCH  26  29
ENDBRANCH  22  23
ENDBRANCH  21  22
ENDBRANCH   1  21
TORSDOF 8
ENDMDL
MODEL 8
REMARK VINA RESULT:      -6.2      3.930      6.564
REMARK  8 active torsions:
REMARK  status: ('A' for Active; 'I' for Inactive)
REMARK    1  A    between atoms: O_3  and  C_21 
REMARK    2  A    between atoms: N_5  and  C_17 
REMARK    3  A    between atoms: C_11  and  N_6 
REMARK    4  A    between atoms: N_6  and  C_19 
REMARK       I    between atoms: N_6  and  C_20 
REMARK    5  A    between atoms: N_7  and  C_18 
REMARK    6  A    between atoms: N_9  and  C_28 
REMARK    7  A    between atoms: C_17  and  C_18 
REMARK    8  A    between atoms: C_20  and  C_21 
ROOT
HETATM    1  N   UNK N   1      19.758  16.867   2.513  0.00  0.00     0.090 N 
HETATM    2  C   UNK N   1      21.919  15.137   2.989  0.00  0.00     0.100 C 
HETATM    3  C   UNK N   1      21.346  15.206   1.548  0.00  0.00     0.033 C 
HETATM    4  C   UNK N   1      20.897  15.259   4.110  0.00  0.00     0.056 C 
HETATM    5  C   UNK N   1      19.897  15.702   1.624  0.00  0.00     0.278 C 
HETATM    6  C   UNK N   1      20.110  16.567   3.916  0.00  0.00     0.274 C 
HETATM    7  C   UNK N   1      21.347  13.939   0.719  0.00  0.00     0.014 C 
ENDROOT
BRANCH   2   8
HETATM    8  N   UNK N   1      23.088  14.331   3.333  0.00  0.00    -0.308 N 
HETATM    9  C   UNK N   1      22.884  13.067   3.873  0.00  0.00     0.248 C 
HETATM   10  O   UNK N   1      21.750  12.628   3.984  0.00  0.00    -0.271 OA
BRANCH   8  11
HETATM   11  C   UNK N   1      24.398  14.979   3.295  0.00  0.00     0.076 A 
HETATM   12  C   UNK N   1      25.179  15.043   2.097  0.00  0.00     0.143 A 
HETATM   13  F   UNK N   1      24.780  14.466   0.937  0.00  0.00    -0.204 F 
HETATM   14  C   UNK N   1      26.388  15.746   2.073  0.00  0.00     0.044 A 
HETATM   15  C   UNK N   1      26.863  16.383   3.214  0.00  0.00     0.003 A 
HETATM   16  C   UNK N   1      26.139  16.310   4.398  0.00  0.00     0.002 A 
HETATM   17  C   UNK N   1      24.927  15.621   4.432  0.00  0.00     0.033 A 
ENDBRANCH   8  11
BRANCH   9  18
HETATM   18  C   UNK N   1      23.986  12.221   4.442  0.00  0.00     0.270 C 
BRANCH  18  19
HETATM   19  O   UNK N   1      24.125  12.423   5.814  0.00  0.00    -0.387 OA
HETATM   20  C   UNK N   1      23.973  11.151   6.363  0.00  0.00     0.202 C 
ENDBRANCH  18  19
ENDBRANCH   9  18
ENDBRANCH   2   8
BRANCH   1  21
HETATM   21  C   UNK N   1      20.568  17.996   2.040  0.00  0.00     0.294 C 
BRANCH  21  22
HETATM   22  C   UNK N   1      20.552  19.158   3.037  0.00  0.00     0.181 C 
BRANCH  22  23
HETATM   23  N   UNK N   1      21.882  19.734   3.154  0.00  0.00    -0.226 N 
HETATM   24  N   UNK N   1      22.275  20.858   2.576  0.00  0.00    -0.002 NA
HETATM   25  N   UNK N   1      23.552  21.083   2.885  0.00  0.00    -0.002 NA
HETATM   26  N   UNK N   1      23.988  20.103   3.663  0.00  0.00    -0.228 N 
HETATM   27  C   UNK N   1      22.950  19.259   3.833  0.00  0.00     0.354 A 
HETATM   28  O   UNK N   1      22.975  18.229   4.485  0.00  0.00    -0.244 OA
BRANCH  26  29
HETATM   29  C   UNK N   1      25.337  19.994   4.199  0.00  0.00     0.147 C 
HETATM   30  C   UNK N   1      26.344  20.452   3.162  0.00  0.00     0.028 C 
ENDBRANCH  26  29
ENDBRANCH  22  23
ENDBRANCH  21  22
ENDBRANCH   1  21
TORSDOF 8
ENDMDL
MODEL 9
REMARK VINA RESULT:      -6.2      4.026      9.317
REMARK  8 active torsions:
REMARK  status: ('A' for Active; 'I' for Inactive)
REMARK    1  A    between atoms: O_3  and  C_21 
REMARK    2  A    between atoms: N_5  and  C_17 
REMARK    3  A    between atoms: C_11  and  N_6 
REMARK    4  A    between atoms: N_6  and  C_19 
REMARK       I    between atoms: N_6  and  C_20 
REMARK    5  A    between atoms: N_7  and  C_18 
REMARK    6  A    between atoms: N_9  and  C_28 
REMARK    7  A    between atoms: C_17  and  C_18 
REMARK    8  A    between atoms: C_20  and  C_21 
ROOT
HETATM    1  N   UNK N   1      31.649  16.634   8.012  0.00  0.00     0.090 N 
HETATM    2  C   UNK N   1      29.221  17.174   6.708  0.00  0.00     0.100 C 
HETATM    3  C   UNK N   1      29.383  17.660   8.172  0.00  0.00     0.033 C 
HETATM    4  C   UNK N   1      29.876  15.841   6.380  0.00  0.00     0.056 C 
HETATM    5  C   UNK N   1      30.453  16.800   8.855  0.00  0.00     0.278 C 
HETATM    6  C   UNK N   1      31.368  15.924   6.747  0.00  0.00     0.274 C 
HETATM    7  C   UNK N   1      28.160  17.654   9.066  0.00  0.00     0.014 C 
ENDROOT
BRANCH   2   8
HETATM    8  N   UNK N   1      28.032  17.467   5.909  0.00  0.00    -0.308 N 
HETATM    9  C   UNK N   1      27.709  18.796   5.668  0.00  0.00     0.248 C 
HETATM   10  O   UNK N   1      28.450  19.684   6.061  0.00  0.00    -0.271 OA
BRANCH   8  11
HETATM   11  C   UNK N   1      27.132  16.359   5.593  0.00  0.00     0.076 A 
HETATM   12  C   UNK N   1      27.051  15.797   4.280  0.00  0.00     0.143 A 
HETATM   13  F   UNK N   1      27.761  16.286   3.235  0.00  0.00    -0.204 F 
HETATM   14  C   UNK N   1      26.245  14.682   4.032  0.00  0.00     0.044 A 
HETATM   15  C   UNK N   1      25.495  14.105   5.052  0.00  0.00     0.003 A 
HETATM   16  C   UNK N   1      25.534  14.650   6.329  0.00  0.00     0.002 A 
HETATM   17  C   UNK N   1      26.341  15.756   6.591  0.00  0.00     0.033 A 
ENDBRANCH   8  11
BRANCH   9  18
HETATM   18  C   UNK N   1      26.421  19.235   5.031  0.00  0.00     0.270 C 
BRANCH  18  19
HETATM   19  O   UNK N   1      26.525  19.261   3.642  0.00  0.00    -0.387 OA
HETATM   20  C   UNK N   1      25.631  20.256   3.252  0.00  0.00     0.202 C 
ENDBRANCH  18  19
ENDBRANCH   9  18
ENDBRANCH   2   8
BRANCH   1  21
HETATM   21  C   UNK N   1      32.272  17.929   7.715  0.00  0.00     0.294 C 
BRANCH  21  22
HETATM   22  C   UNK N   1      33.747  17.770   7.334  0.00  0.00     0.181 C 
BRANCH  22  23
HETATM   23  N   UNK N   1      34.494  17.215   8.451  0.00  0.00    -0.226 N 
HETATM   24  N   UNK N   1      34.989  17.919   9.457  0.00  0.00    -0.002 NA
HETATM   25  N   UNK N   1      35.624  17.098  10.292  0.00  0.00    -0.002 NA
HETATM   26  N   UNK N   1      35.542  15.859   9.828  0.00  0.00    -0.228 N 
HETATM   27  C   UNK N   1      34.839  15.928   8.679  0.00  0.00     0.354 A 
HETATM   28  O   UNK N   1      34.568  14.983   7.958  0.00  0.00    -0.244 OA
BRANCH  26  29
HETATM   29  C   UNK N   1      36.122  14.685  10.462  0.00  0.00     0.147 C 
HETATM   30  C   UNK N   1      37.516  14.439   9.919  0.00  0.00     0.028 C 
ENDBRANCH  26  29
ENDBRANCH  22  23
ENDBRANCH  21  22
ENDBRANCH   1  21
TORSDOF 8
ENDMDL
