MODEL 1
REMARK VINA RESULT:      -6.7      0.000      0.000
REMARK  5 active torsions:
REMARK  status: ('A' for Active; 'I' for Inactive)
REMARK    1  A    between atoms: C_2  and  C_3 
REMARK       I    between atoms: C_3  and  N_5 
REMARK    2  A    between atoms: N_5  and  C_6 
REMARK    3  A    between atoms: N_5  and  C_19 
REMARK    4  A    between atoms: N_9  and  C_10 
REMARK    5  A    between atoms: C_10  and  C_11 
ROOT
HETATM    1  C   UNK N   1      31.998  17.115   8.119  0.00  0.00     0.096 C 
HETATM    2  C   UNK N   1      33.087  18.173   8.231  0.00  0.00     0.045 C 
HETATM    3  C   UNK N   1      34.448  17.531   7.976  0.00  0.00     0.119 C 
HETATM    4  N   UNK N   1      34.652  16.311   8.764  0.00  0.00    -0.408 N 
HETATM    5  C   UNK N   1      33.617  15.271   8.628  0.00  0.00     0.119 C 
HETATM    6  C   UNK N   1      32.203  15.803   8.861  0.00  0.00     0.045 C 
ENDROOT
BRANCH   1   7
HETATM    7  N   UNK N   1      31.087  17.133   6.974  0.00  0.00    -0.313 N 
HETATM    8  C   UNK N   1      29.804  17.605   7.175  0.00  0.00     0.224 C 
HETATM    9  O   UNK N   1      28.985  17.616   6.270  0.00  0.00    -0.273 OA
BRANCH   8  10
HETATM   10  C   UNK N   1      29.346  18.088   8.526  0.00  0.00     0.099 C 
HETATM   11  C   UNK N   1      28.072  17.385   8.957  0.00  0.00     0.014 C 
ENDBRANCH   8  10
BRANCH   7  12
HETATM   12  C   UNK N   1      31.540  16.656   5.680  0.00  0.00     0.037 A 
HETATM   13  C   UNK N   1      31.404  15.305   5.297  0.00  0.00     0.030 A 
HETATM   14  C   UNK N   1      31.833  14.860   4.043  0.00  0.00     0.002 A 
HETATM   15  C   UNK N   1      32.411  15.757   3.146  0.00  0.00     0.000 A 
HETATM   16  C   UNK N   1      32.561  17.097   3.503  0.00  0.00     0.002 A 
HETATM   17  C   UNK N   1      32.128  17.540   4.756  0.00  0.00     0.030 A 
ENDBRANCH   7  12
ENDBRANCH   1   7
BRANCH   4  18
HETATM   18  C   UNK N   1      35.245  16.549  10.088  0.00  0.00     0.155 C 
BRANCH  18  19
HETATM   19  C   UNK N   1      35.935  15.378  10.719  0.00  0.00    -0.041 A 
HETATM   20  C   UNK N   1      35.548  14.976  12.002  0.00  0.00     0.009 A 
HETATM   21  C   UNK N   1      36.139  13.860  12.600  0.00  0.00     0.001 A 
HETATM   22  C   UNK N   1      37.120  13.138  11.915  0.00  0.00     0.000 A 
HETATM   23  C   UNK N   1      37.503  13.530  10.628  0.00  0.00     0.001 A 
HETATM   24  C   UNK N   1      36.907  14.643  10.027  0.00  0.00     0.009 A 
ENDBRANCH  18  19
ENDBRANCH   4  18
TORSDOF 5
ENDMDL
MODEL 2
REMARK VINA RESULT:      -6.6      1.440      3.811
REMARK  5 active torsions:
REMARK  status: ('A' for Active; 'I' for Inactive)
REMARK    1  A    between atoms: C_2  and  C_3 
REMARK       I    between atoms: C_3  and  N_5 
REMARK    2  A    between atoms: N_5  and  C_6 
REMARK    3  A    between atoms: N_5  and  C_19 
REMARK    4  A    between atoms: N_9  and  C_10 
REMARK    5  A    between atoms: C_10  and  C_11 
ROOT
HETATM    1  C   UNK N   1      32.861  16.133   7.293  0.00  0.00     0.096 C 
HETATM    2  C   UNK N   1      32.563  14.799   7.965  0.00  0.00     0.045 C 
HETATM    3  C   UNK N   1      32.731  14.942   9.476  0.00  0.00     0.119 C 
HETATM    4  N   UNK N   1      33.998  15.580   9.844  0.00  0.00    -0.408 N 
HETATM    5  C   UNK N   1      34.271  16.889   9.223  0.00  0.00     0.119 C 
HETATM    6  C   UNK N   1      34.131  16.867   7.701  0.00  0.00     0.045 C 
ENDROOT
BRANCH   1   7
HETATM    7  N   UNK N   1      31.768  16.908   6.707  0.00  0.00    -0.313 N 
HETATM    8  C   UNK N   1      31.826  17.188   5.355  0.00  0.00     0.224 C 
HETATM    9  O   UNK N   1      30.963  17.857   4.809  0.00  0.00    -0.273 OA
BRANCH   8  10
HETATM   10  C   UNK N   1      32.974  16.717   4.502  0.00  0.00     0.099 C 
HETATM   11  C   UNK N   1      32.630  16.791   3.027  0.00  0.00     0.014 C 
ENDBRANCH   8  10
BRANCH   7  12
HETATM   12  C   UNK N   1      30.671  17.363   7.543  0.00  0.00     0.037 A 
HETATM   13  C   UNK N   1      29.334  16.999   7.277  0.00  0.00     0.030 A 
HETATM   14  C   UNK N   1      28.288  17.433   8.096  0.00  0.00     0.002 A 
HETATM   15  C   UNK N   1      28.558  18.245   9.197  0.00  0.00     0.000 A 
HETATM   16  C   UNK N   1      29.870  18.622   9.478  0.00  0.00     0.002 A 
HETATM   17  C   UNK N   1      30.915  18.183   8.659  0.00  0.00     0.030 A 
ENDBRANCH   7  12
ENDBRANCH   1   7
BRANCH   4  18
HETATM   18  C   UNK N   1      35.112  14.636  10.020  0.00  0.00     0.155 C 
BRANCH  18  19
HETATM   19  C   UNK N   1      35.366  14.172  11.422  0.00  0.00    -0.041 A 
HETATM   20  C   UNK N   1      34.988  12.873  11.782  0.00  0.00     0.009 A 
HETATM   21  C   UNK N   1      35.254  12.394  13.068  0.00  0.00     0.001 A 
HETATM   22  C   UNK N   1      35.901  13.210  13.998  0.00  0.00     0.000 A 
HETATM   23  C   UNK N   1      36.290  14.505  13.640  0.00  0.00     0.001 A 
HETATM   24  C   UNK N   1      36.030  14.983  12.351  0.00  0.00     0.009 A 
ENDBRANCH  18  19
ENDBRANCH   4  18
TORSDOF 5
ENDMDL
MODEL 3
REMARK VINA RESULT:      -6.3     11.260     12.755
REMARK  5 active torsions:
REMARK  status: ('A' for Active; 'I' for Inactive)
REMARK    1  A    between atoms: C_2  and  C_3 
REMARK       I    between atoms: C_3  and  N_5 
REMARK    2  A    between atoms: N_5  and  C_6 
REMARK    3  A    between atoms: N_5  and  C_19 
REMARK    4  A    between atoms: N_9  and  C_10 
REMARK    5  A    between atoms: C_10  and  C_11 
ROOT
HETATM    1  C   UNK N   1      20.734  16.572   4.306  0.00  0.00     0.096 C 
HETATM    2  C   UNK N   1      22.119  16.574   4.939  0.00  0.00     0.045 C 
HETATM    3  C   UNK N   1      22.396  15.207   5.559  0.00  0.00     0.119 C 
HETATM    4  N   UNK N   1      21.298  14.741   6.412  0.00  0.00    -0.408 N 
HETATM    5  C   UNK N   1      19.963  14.704   5.788  0.00  0.00     0.119 C 
HETATM    6  C   UNK N   1      19.576  16.028   5.129  0.00  0.00     0.045 C 
ENDROOT
BRANCH   1   7
HETATM    7  N   UNK N   1      20.606  16.587   2.848  0.00  0.00    -0.313 N 
HETATM    8  C   UNK N   1      20.346  17.797   2.234  0.00  0.00     0.224 C 
HETATM    9  O   UNK N   1      20.196  17.874   1.025  0.00  0.00    -0.273 OA
BRANCH   8  10
HETATM   10  C   UNK N   1      20.197  19.067   3.029  0.00  0.00     0.099 C 
HETATM   11  C   UNK N   1      21.401  19.973   2.849  0.00  0.00     0.014 C 
ENDBRANCH   8  10
BRANCH   7  12
HETATM   12  C   UNK N   1      20.744  15.353   2.095  0.00  0.00     0.037 A 
HETATM   13  C   UNK N   1      19.634  14.532   1.807  0.00  0.00     0.030 A 
HETATM   14  C   UNK N   1      19.777  13.352   1.071  0.00  0.00     0.002 A 
HETATM   15  C   UNK N   1      21.035  12.967   0.610  0.00  0.00     0.000 A 
HETATM   16  C   UNK N   1      22.149  13.760   0.886  0.00  0.00     0.002 A 
HETATM   17  C   UNK N   1      22.002  14.941   1.620  0.00  0.00     0.030 A 
ENDBRANCH   7  12
ENDBRANCH   1   7
BRANCH   4  18
HETATM   18  C   UNK N   1      21.410  15.168   7.814  0.00  0.00     0.155 C 
BRANCH  18  19
HETATM   19  C   UNK N   1      21.595  14.074   8.822  0.00  0.00    -0.041 A 
HETATM   20  C   UNK N   1      22.809  13.378   8.848  0.00  0.00     0.009 A 
HETATM   21  C   UNK N   1      23.031  12.384   9.806  0.00  0.00     0.001 A 
HETATM   22  C   UNK N   1      22.040  12.085  10.744  0.00  0.00     0.000 A 
HETATM   23  C   UNK N   1      20.829  12.785  10.728  0.00  0.00     0.001 A 
HETATM   24  C   UNK N   1      20.609  13.784   9.774  0.00  0.00     0.009 A 
ENDBRANCH  18  19
ENDBRANCH   4  18
TORSDOF 5
ENDMDL
MODEL 4
REMARK VINA RESULT:      -6.2     11.405     13.090
REMARK  5 active torsions:
REMARK  status: ('A' for Active; 'I' for Inactive)
REMARK    1  A    between atoms: C_2  and  C_3 
REMARK       I    between atoms: C_3  and  N_5 
REMARK    2  A    between atoms: N_5  and  C_6 
REMARK    3  A    between atoms: N_5  and  C_19 
REMARK    4  A    between atoms: N_9  and  C_10 
REMARK    5  A    between atoms: C_10  and  C_11 
ROOT
HETATM    1  C   UNK N   1      20.326  14.771   3.467  0.00  0.00     0.096 C 
HETATM    2  C   UNK N   1      19.291  14.866   4.580  0.00  0.00     0.045 C 
HETATM    3  C   UNK N   1      19.990  15.177   5.900  0.00  0.00     0.119 C 
HETATM    4  N   UNK N   1      21.131  14.293   6.156  0.00  0.00    -0.408 N 
HETATM    5  C   UNK N   1      22.153  14.229   5.095  0.00  0.00     0.119 C 
HETATM    6  C   UNK N   1      21.564  13.922   3.718  0.00  0.00     0.045 C 
ENDROOT
BRANCH   1   7
HETATM    7  N   UNK N   1      20.398  15.825   2.455  0.00  0.00    -0.313 N 
HETATM    8  C   UNK N   1      20.243  15.461   1.131  0.00  0.00     0.224 C 
HETATM    9  O   UNK N   1      20.324  16.286   0.234  0.00  0.00    -0.273 OA
BRANCH   8  10
HETATM   10  C   UNK N   1      20.007  14.029   0.730  0.00  0.00     0.099 C 
HETATM   11  C   UNK N   1      18.552  13.792   0.371  0.00  0.00     0.014 C 
ENDBRANCH   8  10
BRANCH   7  12
HETATM   12  C   UNK N   1      20.635  17.200   2.855  0.00  0.00     0.037 A 
HETATM   13  C   UNK N   1      21.846  17.600   3.459  0.00  0.00     0.030 A 
HETATM   14  C   UNK N   1      22.067  18.930   3.828  0.00  0.00     0.002 A 
HETATM   15  C   UNK N   1      21.079  19.888   3.605  0.00  0.00     0.000 A 
HETATM   16  C   UNK N   1      19.872  19.517   3.014  0.00  0.00     0.002 A 
HETATM   17  C   UNK N   1      19.655  18.187   2.642  0.00  0.00     0.030 A 
ENDBRANCH   7  12
ENDBRANCH   1   7
BRANCH   4  18
HETATM   18  C   UNK N   1      20.780  13.058   6.873  0.00  0.00     0.155 C 
BRANCH  18  19
HETATM   19  C   UNK N   1      21.586  12.758   8.100  0.00  0.00    -0.041 A 
HETATM   20  C   UNK N   1      21.183  13.307   9.323  0.00  0.00     0.009 A 
HETATM   21  C   UNK N   1      21.884  13.009  10.495  0.00  0.00     0.001 A 
HETATM   22  C   UNK N   1      22.991  12.157  10.448  0.00  0.00     0.000 A 
HETATM   23  C   UNK N   1      23.392  11.598   9.230  0.00  0.00     0.001 A 
HETATM   24  C   UNK N   1      22.686  11.891   8.059  0.00  0.00     0.009 A 
ENDBRANCH  18  19
ENDBRANCH   4  18
TORSDOF 5
ENDMDL
MODEL 5
REMARK VINA RESULT:      -6.2     13.214     16.702
REMARK  5 active torsions:
REMARK  status: ('A' for Active; 'I' for Inactive)
REMARK    1  A    between atoms: C_2  and  C_3 
REMARK       I    between atoms: C_3  and  N_5 
REMARK    2  A    between atoms: N_5  and  C_6 
REMARK    3  A    between atoms: N_5  and  C_19 
REMARK    4  A    between atoms: N_9  and  C_10 
REMARK    5  A    between atoms: C_10  and  C_11 
ROOT
HETATM    1  C   UNK N   1      27.568  25.902  -4.768  0.00  0.00     0.096 C 
HETATM    2  C   UNK N   1      28.912  26.441  -5.241  0.00  0.00     0.045 C 
HETATM    3  C   UNK N   1      29.765  25.289  -5.766  0.00  0.00     0.119 C 
HETATM    4  N   UNK N   1      29.816  24.156  -4.838  0.00  0.00    -0.408 N 
HETATM    5  C   UNK N   1      28.516  23.610  -4.409  0.00  0.00     0.119 C 
HETATM    6  C   UNK N   1      27.571  24.680  -3.862  0.00  0.00     0.045 C 
ENDROOT
BRANCH   1   7
HETATM    7  N   UNK N   1      26.361  26.193  -5.541  0.00  0.00    -0.313 N 
HETATM    8  C   UNK N   1      25.447  27.080  -5.004  0.00  0.00     0.224 C 
HETATM    9  O   UNK N   1      24.404  27.342  -5.582  0.00  0.00    -0.273 OA
BRANCH   8  10
HETATM   10  C   UNK N   1      25.676  27.732  -3.666  0.00  0.00     0.099 C 
HETATM   11  C   UNK N   1      26.161  29.161  -3.828  0.00  0.00     0.014 C 
ENDBRANCH   8  10
BRANCH   7  12
HETATM   12  C   UNK N   1      26.149  25.550  -6.825  0.00  0.00     0.037 A 
HETATM   13  C   UNK N   1      26.315  26.247  -8.041  0.00  0.00     0.030 A 
HETATM   14  C   UNK N   1      26.120  25.614  -9.272  0.00  0.00     0.002 A 
HETATM   15  C   UNK N   1      25.751  24.270  -9.312  0.00  0.00     0.000 A 
HETATM   16  C   UNK N   1      25.577  23.561  -8.125  0.00  0.00     0.002 A 
HETATM   17  C   UNK N   1      25.776  24.195  -6.895  0.00  0.00     0.030 A 
ENDBRANCH   7  12
ENDBRANCH   1   7
BRANCH   4  18
HETATM   18  C   UNK N   1      30.906  24.239  -3.854  0.00  0.00     0.155 C 
BRANCH  18  19
HETATM   19  C   UNK N   1      31.891  23.110  -3.867  0.00  0.00    -0.041 A 
HETATM   20  C   UNK N   1      32.900  23.105  -4.837  0.00  0.00     0.009 A 
HETATM   21  C   UNK N   1      33.863  22.092  -4.848  0.00  0.00     0.001 A 
HETATM   22  C   UNK N   1      33.822  21.080  -3.885  0.00  0.00     0.000 A 
HETATM   23  C   UNK N   1      32.822  21.086  -2.908  0.00  0.00     0.001 A 
HETATM   24  C   UNK N   1      31.862  22.104  -2.893  0.00  0.00     0.009 A 
ENDBRANCH  18  19
ENDBRANCH   4  18
TORSDOF 5
ENDMDL
MODEL 6
REMARK VINA RESULT:      -6.2     13.463     16.949
REMARK  5 active torsions:
REMARK  status: ('A' for Active; 'I' for Inactive)
REMARK    1  A    between atoms: C_2  and  C_3 
REMARK       I    between atoms: C_3  and  N_5 
REMARK    2  A    between atoms: N_5  and  C_6 
REMARK    3  A    between atoms: N_5  and  C_19 
REMARK    4  A    between atoms: N_9  and  C_10 
REMARK    5  A    between atoms: C_10  and  C_11 
ROOT
HETATM    1  C   UNK N   1      27.142  24.563  -5.707  0.00  0.00     0.096 C 
HETATM    2  C   UNK N   1      26.460  24.149  -4.410  0.00  0.00     0.045 C 
HETATM    3  C   UNK N   1      27.344  24.533  -3.226  0.00  0.00     0.119 C 
HETATM    4  N   UNK N   1      28.732  24.092  -3.393  0.00  0.00    -0.408 N 
HETATM    5  C   UNK N   1      29.405  24.524  -4.631  0.00  0.00     0.119 C 
HETATM    6  C   UNK N   1      28.606  24.191  -5.891  0.00  0.00     0.045 C 
ENDROOT
BRANCH   1   7
HETATM    7  N   UNK N   1      26.606  25.684  -6.480  0.00  0.00    -0.313 N 
HETATM    8  C   UNK N   1      25.915  25.397  -7.642  0.00  0.00     0.224 C 
HETATM    9  O   UNK N   1      25.471  26.287  -8.350  0.00  0.00    -0.273 OA
BRANCH   8  10
HETATM   10  C   UNK N   1      25.715  23.979  -8.109  0.00  0.00     0.099 C 
HETATM   11  C   UNK N   1      26.528  23.692  -9.357  0.00  0.00     0.014 C 
ENDBRANCH   8  10
BRANCH   7  12
HETATM   12  C   UNK N   1      26.814  27.046  -6.022  0.00  0.00     0.037 A 
HETATM   13  C   UNK N   1      26.048  27.604  -4.977  0.00  0.00     0.030 A 
HETATM   14  C   UNK N   1      26.265  28.912  -4.537  0.00  0.00     0.002 A 
HETATM   15  C   UNK N   1      27.253  29.693  -5.137  0.00  0.00     0.000 A 
HETATM   16  C   UNK N   1      28.021  29.166  -6.175  0.00  0.00     0.002 A 
HETATM   17  C   UNK N   1      27.803  27.856  -6.610  0.00  0.00     0.030 A 
ENDBRANCH   7  12
ENDBRANCH   1   7
BRANCH   4  18
HETATM   18  C   UNK N   1      28.994  22.739  -2.882  0.00  0.00     0.155 C 
BRANCH  18  19
HETATM   19  C   UNK N   1      30.218  22.059  -3.417  0.00  0.00    -0.041 A 
HETATM   20  C   UNK N   1      31.429  22.212  -2.732  0.00  0.00     0.009 A 
HETATM   21  C   UNK N   1      32.579  21.554  -3.177  0.00  0.00     0.001 A 
HETATM   22  C   UNK N   1      32.521  20.737  -4.309  0.00  0.00     0.000 A 
HETATM   23  C   UNK N   1      31.311  20.573  -4.991  0.00  0.00     0.001 A 
HETATM   24  C   UNK N   1      30.159  21.226  -4.542  0.00  0.00     0.009 A 
ENDBRANCH  18  19
ENDBRANCH   4  18
TORSDOF 5
ENDMDL
MODEL 7
REMARK VINA RESULT:      -6.2      3.010      5.580
REMARK  5 active torsions:
REMARK  status: ('A' for Active; 'I' for Inactive)
REMARK    1  A    between atoms: C_2  and  C_3 
REMARK       I    between atoms: C_3  and  N_5 
REMARK    2  A    between atoms: N_5  and  C_6 
REMARK    3  A    between atoms: N_5  and  C_19 
REMARK    4  A    between atoms: N_9  and  C_10 
REMARK    5  A    between atoms: C_10  and  C_11 
ROOT
HETATM    1  C   UNK N   1      35.858  14.386   9.190  0.00  0.00     0.096 C 
HETATM    2  C   UNK N   1      35.287  13.096   9.765  0.00  0.00     0.045 C 
HETATM    3  C   UNK N   1      34.582  13.397  11.086  0.00  0.00     0.119 C 
HETATM    4  N   UNK N   1      35.408  14.198  11.995  0.00  0.00    -0.408 N 
HETATM    5  C   UNK N   1      35.930  15.465  11.451  0.00  0.00     0.119 C 
HETATM    6  C   UNK N   1      36.659  15.285  10.119  0.00  0.00     0.045 C 
ENDROOT
BRANCH   1   7
HETATM    7  N   UNK N   1      35.245  14.981   8.002  0.00  0.00    -0.313 N 
HETATM    8  C   UNK N   1      35.735  14.606   6.765  0.00  0.00     0.224 C 
HETATM    9  O   UNK N   1      35.291  15.089   5.736  0.00  0.00    -0.273 OA
BRANCH   8  10
HETATM   10  C   UNK N   1      36.864  13.618   6.632  0.00  0.00     0.099 C 
HETATM   11  C   UNK N   1      38.036  14.222   5.882  0.00  0.00     0.014 C 
ENDBRANCH   8  10
BRANCH   7  12
HETATM   12  C   UNK N   1      34.163  15.938   8.146  0.00  0.00     0.037 A 
HETATM   13  C   UNK N   1      34.371  17.324   7.978  0.00  0.00     0.030 A 
HETATM   14  C   UNK N   1      33.319  18.235   8.107  0.00  0.00     0.002 A 
HETATM   15  C   UNK N   1      32.037  17.779   8.411  0.00  0.00     0.000 A 
HETATM   16  C   UNK N   1      31.807  16.415   8.585  0.00  0.00     0.002 A 
HETATM   17  C   UNK N   1      32.860  15.506   8.452  0.00  0.00     0.030 A 
ENDBRANCH   7  12
ENDBRANCH   1   7
BRANCH   4  18
HETATM   18  C   UNK N   1      36.271  13.399  12.877  0.00  0.00     0.155 C 
BRANCH  18  19
HETATM   19  C   UNK N   1      35.955  13.463  14.341  0.00  0.00    -0.041 A 
HETATM   20  C   UNK N   1      34.903  12.687  14.839  0.00  0.00     0.009 A 
HETATM   21  C   UNK N   1      34.612  12.688  16.206  0.00  0.00     0.001 A 
HETATM   22  C   UNK N   1      35.377  13.464  17.082  0.00  0.00     0.000 A 
HETATM   23  C   UNK N   1      36.436  14.233  16.590  0.00  0.00     0.001 A 
HETATM   24  C   UNK N   1      36.731  14.227  15.223  0.00  0.00     0.009 A 
ENDBRANCH  18  19
ENDBRANCH   4  18
TORSDOF 5
ENDMDL
MODEL 8
REMARK VINA RESULT:      -5.9      2.934      8.472
REMARK  5 active torsions:
REMARK  status: ('A' for Active; 'I' for Inactive)
REMARK    1  A    between atoms: C_2  and  C_3 
REMARK       I    between atoms: C_3  and  N_5 
REMARK    2  A    between atoms: N_5  and  C_6 
REMARK    3  A    between atoms: N_5  and  C_19 
REMARK    4  A    between atoms: N_9  and  C_10 
REMARK    5  A    between atoms: C_10  and  C_11 
ROOT
HETATM    1  C   UNK N   1      34.888  14.932  11.328  0.00  0.00     0.096 C 
HETATM    2  C   UNK N   1      33.836  14.385  10.372  0.00  0.00     0.045 C 
HETATM    3  C   UNK N   1      34.134  14.872   8.956  0.00  0.00     0.119 C 
HETATM    4  N   UNK N   1      34.370  16.317   8.895  0.00  0.00    -0.408 N 
HETATM    5  C   UNK N   1      35.414  16.843   9.793  0.00  0.00     0.119 C 
HETATM    6  C   UNK N   1      35.219  16.416  11.248  0.00  0.00     0.045 C 
ENDROOT
BRANCH   1   7
HETATM    7  N   UNK N   1      35.883  14.027  11.903  0.00  0.00    -0.313 N 
HETATM    8  C   UNK N   1      36.941  13.637  11.104  0.00  0.00     0.224 C 
HETATM    9  O   UNK N   1      37.788  12.858  11.511  0.00  0.00    -0.273 OA
BRANCH   8  10
HETATM   10  C   UNK N   1      37.075  14.121   9.684  0.00  0.00     0.099 C 
HETATM   11  C   UNK N   1      38.510  14.016   9.202  0.00  0.00     0.014 C 
ENDBRANCH   8  10
BRANCH   7  12
HETATM   12  C   UNK N   1      35.736  13.561  13.270  0.00  0.00     0.037 A 
HETATM   13  C   UNK N   1      36.465  14.136  14.333  0.00  0.00     0.030 A 
HETATM   14  C   UNK N   1      36.305  13.687  15.647  0.00  0.00     0.002 A 
HETATM   15  C   UNK N   1      35.415  12.650  15.926  0.00  0.00     0.000 A 
HETATM   16  C   UNK N   1      34.687  12.063  14.892  0.00  0.00     0.002 A 
HETATM   17  C   UNK N   1      34.846  12.517  13.579  0.00  0.00     0.030 A 
ENDBRANCH   7  12
ENDBRANCH   1   7
BRANCH   4  18
HETATM   18  C   UNK N   1      33.151  17.113   8.688  0.00  0.00     0.155 C 
BRANCH  18  19
HETATM   19  C   UNK N   1      32.684  17.245   7.270  0.00  0.00    -0.041 A 
HETATM   20  C   UNK N   1      33.632  17.470   6.265  0.00  0.00     0.009 A 
HETATM   21  C   UNK N   1      33.235  17.550   4.928  0.00  0.00     0.001 A 
HETATM   22  C   UNK N   1      31.888  17.403   4.589  0.00  0.00     0.000 A 
HETATM   23  C   UNK N   1      30.938  17.168   5.589  0.00  0.00     0.001 A 
HETATM   24  C   UNK N   1      31.336  17.081   6.927  0.00  0.00     0.009 A 
ENDBRANCH  18  19
ENDBRANCH   4  18
TORSDOF 5
ENDMDL
MODEL 9
REMARK VINA RESULT:      -5.8      3.399      8.168
REMARK  5 active torsions:
REMARK  status: ('A' for Active; 'I' for Inactive)
REMARK    1  A    between atoms: C_2  and  C_3 
REMARK       I    between atoms: C_3  and  N_5 
REMARK    2  A    between atoms: N_5  and  C_6 
REMARK    3  A    between atoms: N_5  and  C_19 
REMARK    4  A    between atoms: N_9  and  C_10 
REMARK    5  A    between atoms: C_10  and  C_11 
ROOT
HETATM    1  C   UNK N   1      36.311  13.726  10.233  0.00  0.00     0.096 C 
HETATM    2  C   UNK N   1      36.392  15.014  11.043  0.00  0.00     0.045 C 
HETATM    3  C   UNK N   1      34.984  15.547  11.292  0.00  0.00     0.119 C 
HETATM    4  N   UNK N   1      34.178  15.606  10.069  0.00  0.00    -0.408 N 
HETATM    5  C   UNK N   1      34.069  14.350   9.304  0.00  0.00     0.119 C 
HETATM    6  C   UNK N   1      35.426  13.720   8.995  0.00  0.00     0.045 C 
ENDROOT
BRANCH   1   7
HETATM    7  N   UNK N   1      36.621  12.448  10.874  0.00  0.00    -0.313 N 
HETATM    8  C   UNK N   1      37.847  11.870  10.605  0.00  0.00     0.224 C 
HETATM    9  O   UNK N   1      38.155  10.789  11.081  0.00  0.00    -0.273 OA
BRANCH   8  10
HETATM   10  C   UNK N   1      38.840  12.525   9.682  0.00  0.00     0.099 C 
HETATM   11  C   UNK N   1      38.955  11.769   8.372  0.00  0.00     0.014 C 
ENDBRANCH   8  10
BRANCH   7  12
HETATM   12  C   UNK N   1      35.650  11.824  11.755  0.00  0.00     0.037 A 
HETATM   13  C   UNK N   1      34.781  10.810  11.301  0.00  0.00     0.030 A 
HETATM   14  C   UNK N   1      33.858  10.207  12.162  0.00  0.00     0.002 A 
HETATM   15  C   UNK N   1      33.784  10.611  13.494  0.00  0.00     0.000 A 
HETATM   16  C   UNK N   1      34.629  11.615  13.965  0.00  0.00     0.002 A 
HETATM   17  C   UNK N   1      35.553  12.212  13.103  0.00  0.00     0.030 A 
ENDBRANCH   7  12
ENDBRANCH   1   7
BRANCH   4  18
HETATM   18  C   UNK N   1      34.303  16.872   9.332  0.00  0.00     0.155 C 
BRANCH  18  19
HETATM   19  C   UNK N   1      33.506  16.979   8.068  0.00  0.00    -0.041 A 
HETATM   20  C   UNK N   1      32.109  17.004   8.150  0.00  0.00     0.009 A 
HETATM   21  C   UNK N   1      31.338  17.151   6.994  0.00  0.00     0.001 A 
HETATM   22  C   UNK N   1      31.961  17.276   5.750  0.00  0.00     0.000 A 
HETATM   23  C   UNK N   1      33.357  17.262   5.664  0.00  0.00     0.001 A 
HETATM   24  C   UNK N   1      34.129  17.122   6.821  0.00  0.00     0.009 A 
ENDBRANCH  18  19
ENDBRANCH   4  18
TORSDOF 5
ENDMDL
