REMARK  8 active torsions:
REMARK  status: ('A' for Active; 'I' for Inactive)
REMARK    1  A    between atoms: N_2  and  C_10 
REMARK    2  A    between atoms: C_5  and  N_3 
REMARK    3  A    between atoms: N_3  and  C_12 
REMARK       I    between atoms: N_3  and  C_13 
REMARK    4  A    between atoms: C_4  and  C_9 
REMARK    5  A    between atoms: C_9  and  C_14 
REMARK    6  A    between atoms: C_10  and  C_11 
REMARK    7  A    between atoms: C_11  and  C_16 
REMARK    8  A    between atoms: C_13  and  C_15 
ROOT
HETATM    1  N   UNK N   1       0.289  -1.146   0.089  0.00  0.00     0.089 N 
HETATM    2  C   UNK N   1      -0.934   1.019  -0.296  0.00  0.00     0.041 C 
HETATM    3  C   UNK N   1       0.414   1.772  -0.218  0.00  0.00     0.101 C 
HETATM    4  C   UNK N   1      -0.652  -0.413  -0.769  0.00  0.00     0.279 C 
HETATM    5  C   UNK N   1       1.276   1.030   0.804  0.00  0.00     0.056 C 
HETATM    6  C   UNK N   1       1.530  -0.398   0.321  0.00  0.00     0.274 C 
ENDROOT
BRANCH   3   7
HETATM    7  N   UNK N   1       0.476   3.235   0.022  0.00  0.00    -0.313 N 
HETATM    8  C   UNK N   1      -0.643   3.972   0.400  0.00  0.00     0.224 C 
HETATM    9  O   UNK N   1      -1.691   3.409   0.669  0.00  0.00    -0.273 OA
BRANCH   7  10
HETATM   10  C   UNK N   1       1.785   3.855  -0.156  0.00  0.00     0.037 A 
HETATM   11  C   UNK N   1       2.057   5.183   0.230  0.00  0.00     0.030 A 
HETATM   12  C   UNK N   1       3.337   5.730   0.108  0.00  0.00     0.002 A 
HETATM   13  C   UNK N   1       4.382   4.957  -0.395  0.00  0.00     0.000 A 
HETATM   14  C   UNK N   1       4.144   3.640  -0.783  0.00  0.00     0.002 A 
HETATM   15  C   UNK N   1       2.862   3.095  -0.663  0.00  0.00     0.030 A 
ENDBRANCH   7  10
BRANCH   8  16
HETATM   16  C   UNK N   1      -0.629   5.483   0.487  0.00  0.00     0.099 C 
HETATM   17  C   UNK N   1      -2.006   6.100   0.684  0.00  0.00     0.014 C 
ENDBRANCH   8  16
ENDBRANCH   3   7
BRANCH   2  18
HETATM   18  C   UNK N   1      -1.949   1.583  -1.278  0.00  0.00     0.035 C 
BRANCH  18  19
HETATM   19  C   UNK N   1      -3.315   1.327  -0.720  0.00  0.00    -0.036 C 
HETATM   20  C   UNK N   1      -4.086   0.361  -1.210  0.00  0.00     0.007 C 
ENDBRANCH  18  19
ENDBRANCH   2  18
BRANCH   1  21
HETATM   21  C   UNK N   1      -0.326  -1.538   1.356  0.00  0.00     0.277 C 
BRANCH  21  22
HETATM   22  C   UNK N   1      -1.483  -2.519   1.130  0.00  0.00     0.068 C 
BRANCH  22  23
HETATM   23  C   UNK N   1      -1.102  -3.860   0.562  0.00  0.00    -0.057 A 
HETATM   24  C   UNK N   1       0.234  -4.215   0.311  0.00  0.00     0.007 A 
HETATM   25  C   UNK N   1       0.542  -5.473  -0.217  0.00  0.00     0.001 A 
HETATM   26  C   UNK N   1      -0.481  -6.383  -0.497  0.00  0.00     0.000 A 
HETATM   27  C   UNK N   1      -1.812  -6.036  -0.250  0.00  0.00     0.001 A 
HETATM   28  C   UNK N   1      -2.120  -4.778   0.278  0.00  0.00     0.007 A 
ENDBRANCH  22  23
ENDBRANCH  21  22
ENDBRANCH   1  21
TORSDOF 8
