MODEL 1
REMARK VINA RESULT:      -7.7      0.000      0.000
REMARK  10 active torsions:
REMARK  status: ('A' for Active; 'I' for Inactive)
REMARK    1  A    between atoms: C_9  and  O_1 
REMARK    2  A    between atoms: O_1  and  C_22 
REMARK    3  A    between atoms: C_22  and  C_23 
REMARK    4  A    between atoms: C_23  and  C_24 
REMARK    5  A    between atoms: C_24  and  C_25 
REMARK    6  A    between atoms: C_25  and  C_26 
REMARK    7  A    between atoms: C_26  and  C_27 
REMARK    8  A    between atoms: C_27  and  C_28 
REMARK    9  A    between atoms: C_28  and  C_29 
REMARK   10  A    between atoms: C_29  and  C_30 
ROOT
HETATM    1  O   UNK N   1      26.013  17.655   3.337  0.00  0.00    -0.293 OA
HETATM    2  C   UNK N   1      32.860  16.408   6.973  0.00  0.00     0.001 C 
HETATM    3  C   UNK N   1      32.649  16.555   8.485  0.00  0.00    -0.013 C 
HETATM    4  C   UNK N   1      31.545  16.251   6.159  0.00  0.00    -0.005 C 
HETATM    5  C   UNK N   1      30.459  17.250   6.594  0.00  0.00    -0.002 C 
HETATM    6  C   UNK N   1      31.528  17.551   8.800  0.00  0.00     0.012 C 
HETATM    7  C   UNK N   1      33.943  17.201   8.961  0.00  0.00     0.140 C 
HETATM    8  C   UNK N   1      33.687  17.624   6.569  0.00  0.00     0.008 C 
HETATM    9  C   UNK N   1      30.243  17.160   8.100  0.00  0.00     0.006 C 
HETATM   10  C   UNK N   1      29.151  16.929   5.873  0.00  0.00     0.019 C 
HETATM   11  C   UNK N   1      34.363  18.133   7.834  0.00  0.00     0.034 C 
HETATM   12  C   UNK N   1      31.839  16.444   4.665  0.00  0.00     0.010 C 
HETATM   13  C   UNK N   1      32.351  15.228   9.174  0.00  0.00     0.018 C 
HETATM   14  C   UNK N   1      30.615  16.439   3.743  0.00  0.00     0.035 C 
HETATM   15  C   UNK N   1      29.331  16.916   4.366  0.00  0.00    -0.072 C 
HETATM   16  C   UNK N   1      28.027  17.883   6.295  0.00  0.00     0.017 C 
HETATM   17  C   UNK N   1      26.725  17.538   5.580  0.00  0.00     0.084 C 
HETATM   18  C   UNK N   1      28.282  17.135   3.556  0.00  0.00     0.053 C 
HETATM   19  C   UNK N   1      26.948  17.472   4.098  0.00  0.00     0.149 C 
ENDROOT
BRANCH   7  20
HETATM   20  O   UNK N   1      34.954  16.299   9.201  0.00  0.00    -0.315 OA
BRANCH  20  21
HETATM   21  C   UNK N   1      35.543  16.237  10.422  0.00  0.00     0.259 C 
HETATM   22  O   UNK N   1      35.330  17.110  11.242  0.00  0.00    -0.265 OA
BRANCH  21  23
HETATM   23  C   UNK N   1      36.462  15.099  10.774  0.00  0.00     0.111 C 
BRANCH  23  24
HETATM   24  C   UNK N   1      35.759  14.156  11.737  0.00  0.00     0.010 C 
BRANCH  24  25
HETATM   25  C   UNK N   1      36.161  14.470  13.164  0.00  0.00     0.000 C 
BRANCH  25  26
HETATM   26  C   UNK N   1      35.533  13.453  14.092  0.00  0.00     0.000 C 
BRANCH  26  27
HETATM   27  C   UNK N   1      36.497  13.091  15.195  0.00  0.00     0.000 C 
BRANCH  27  28
HETATM   28  C   UNK N   1      35.743  12.288  16.230  0.00  0.00     0.000 C 
BRANCH  28  29
HETATM   29  C   UNK N   1      34.661  13.139  16.851  0.00  0.00    -0.000 C 
BRANCH  29  30
HETATM   30  C   UNK N   1      35.241  13.882  18.035  0.00  0.00    -0.005 C 
HETATM   31  C   UNK N   1      35.140  13.015  19.271  0.00  0.00     0.005 C 
ENDBRANCH  29  30
ENDBRANCH  28  29
ENDBRANCH  27  28
ENDBRANCH  26  27
ENDBRANCH  25  26
ENDBRANCH  24  25
ENDBRANCH  23  24
ENDBRANCH  21  23
ENDBRANCH  20  21
ENDBRANCH   7  20
TORSDOF 10
ENDMDL
MODEL 2
REMARK VINA RESULT:      -7.5      8.861     13.456
REMARK  10 active torsions:
REMARK  status: ('A' for Active; 'I' for Inactive)
REMARK    1  A    between atoms: C_9  and  O_1 
REMARK    2  A    between atoms: O_1  and  C_22 
REMARK    3  A    between atoms: C_22  and  C_23 
REMARK    4  A    between atoms: C_23  and  C_24 
REMARK    5  A    between atoms: C_24  and  C_25 
REMARK    6  A    between atoms: C_25  and  C_26 
REMARK    7  A    between atoms: C_26  and  C_27 
REMARK    8  A    between atoms: C_27  and  C_28 
REMARK    9  A    between atoms: C_28  and  C_29 
REMARK   10  A    between atoms: C_29  and  C_30 
ROOT
HETATM    1  O   UNK N   1      23.770  11.257  12.220  0.00  0.00    -0.293 OA
HETATM    2  C   UNK N   1      20.575  15.887   6.740  0.00  0.00     0.001 C 
HETATM    3  C   UNK N   1      21.584  16.068   5.600  0.00  0.00    -0.013 C 
HETATM    4  C   UNK N   1      20.906  14.711   7.701  0.00  0.00    -0.005 C 
HETATM    5  C   UNK N   1      22.391  14.676   8.102  0.00  0.00    -0.002 C 
HETATM    6  C   UNK N   1      23.026  15.988   6.109  0.00  0.00     0.012 C 
HETATM    7  C   UNK N   1      21.363  17.509   5.159  0.00  0.00     0.140 C 
HETATM    8  C   UNK N   1      20.514  17.243   7.434  0.00  0.00     0.008 C 
HETATM    9  C   UNK N   1      23.267  14.692   6.855  0.00  0.00     0.006 C 
HETATM   10  C   UNK N   1      22.673  13.408   8.906  0.00  0.00     0.019 C 
HETATM   11  C   UNK N   1      21.027  18.269   6.432  0.00  0.00     0.034 C 
HETATM   12  C   UNK N   1      20.044  14.822   8.966  0.00  0.00     0.010 C 
HETATM   13  C   UNK N   1      21.391  15.060   4.472  0.00  0.00     0.018 C 
HETATM   14  C   UNK N   1      20.345  13.799  10.066  0.00  0.00     0.035 C 
HETATM   15  C   UNK N   1      21.763  13.296  10.115  0.00  0.00    -0.072 C 
HETATM   16  C   UNK N   1      24.151  13.314   9.307  0.00  0.00     0.017 C 
HETATM   17  C   UNK N   1      24.420  12.035  10.092  0.00  0.00     0.084 C 
HETATM   18  C   UNK N   1      22.136  12.568  11.179  0.00  0.00     0.053 C 
HETATM   19  C   UNK N   1      23.465  11.922  11.243  0.00  0.00     0.149 C 
ENDROOT
BRANCH   7  20
HETATM   20  O   UNK N   1      20.334  17.660   4.258  0.00  0.00    -0.315 OA
BRANCH  20  21
HETATM   21  C   UNK N   1      20.451  18.525   3.220  0.00  0.00     0.259 C 
HETATM   22  O   UNK N   1      19.458  19.063   2.764  0.00  0.00    -0.265 OA
BRANCH  21  23
HETATM   23  C   UNK N   1      21.797  18.828   2.620  0.00  0.00     0.111 C 
BRANCH  23  24
HETATM   24  C   UNK N   1      22.183  20.264   2.935  0.00  0.00     0.010 C 
BRANCH  24  25
HETATM   25  C   UNK N   1      23.682  20.371   3.132  0.00  0.00     0.000 C 
BRANCH  25  26
HETATM   26  C   UNK N   1      24.212  19.047   3.640  0.00  0.00     0.000 C 
BRANCH  26  27
HETATM   27  C   UNK N   1      25.715  19.005   3.507  0.00  0.00     0.000 C 
BRANCH  27  28
HETATM   28  C   UNK N   1      26.265  20.320   4.009  0.00  0.00     0.000 C 
BRANCH  28  29
HETATM   29  C   UNK N   1      27.666  20.123   4.537  0.00  0.00    -0.000 C 
BRANCH  29  30
HETATM   30  C   UNK N   1      27.759  20.736   5.917  0.00  0.00    -0.005 C 
HETATM   31  C   UNK N   1      26.485  21.495   6.218  0.00  0.00     0.005 C 
ENDBRANCH  29  30
ENDBRANCH  28  29
ENDBRANCH  27  28
ENDBRANCH  26  27
ENDBRANCH  25  26
ENDBRANCH  24  25
ENDBRANCH  23  24
ENDBRANCH  21  23
ENDBRANCH  20  21
ENDBRANCH   7  20
TORSDOF 10
ENDMDL
MODEL 3
REMARK VINA RESULT:      -7.4     15.461     18.935
REMARK  10 active torsions:
REMARK  status: ('A' for Active; 'I' for Inactive)
REMARK    1  A    between atoms: C_9  and  O_1 
REMARK    2  A    between atoms: O_1  and  C_22 
REMARK    3  A    between atoms: C_22  and  C_23 
REMARK    4  A    between atoms: C_23  and  C_24 
REMARK    5  A    between atoms: C_24  and  C_25 
REMARK    6  A    between atoms: C_25  and  C_26 
REMARK    7  A    between atoms: C_26  and  C_27 
REMARK    8  A    between atoms: C_27  and  C_28 
REMARK    9  A    between atoms: C_28  and  C_29 
REMARK   10  A    between atoms: C_29  and  C_30 
ROOT
HETATM    1  O   UNK N   1      26.314  29.869  -2.936  0.00  0.00    -0.293 OA
HETATM    2  C   UNK N   1      27.287  22.987  -6.589  0.00  0.00     0.001 C 
HETATM    3  C   UNK N   1      27.717  23.254  -8.037  0.00  0.00    -0.013 C 
HETATM    4  C   UNK N   1      27.423  24.216  -5.648  0.00  0.00    -0.005 C 
HETATM    5  C   UNK N   1      26.885  25.509  -6.284  0.00  0.00    -0.002 C 
HETATM    6  C   UNK N   1      27.148  24.578  -8.556  0.00  0.00     0.012 C 
HETATM    7  C   UNK N   1      27.022  22.150  -8.822  0.00  0.00     0.140 C 
HETATM    8  C   UNK N   1      25.863  22.452  -6.693  0.00  0.00     0.008 C 
HETATM    9  C   UNK N   1      27.532  25.727  -7.647  0.00  0.00     0.006 C 
HETATM   10  C   UNK N   1      27.202  26.695  -5.375  0.00  0.00     0.019 C 
HETATM   11  C   UNK N   1      25.693  21.934  -8.115  0.00  0.00     0.034 C 
HETATM   12  C   UNK N   1      26.670  23.946  -4.338  0.00  0.00     0.010 C 
HETATM   13  C   UNK N   1      29.232  23.254  -8.215  0.00  0.00     0.018 C 
HETATM   14  C   UNK N   1      26.610  25.119  -3.354  0.00  0.00     0.035 C 
HETATM   15  C   UNK N   1      26.656  26.490  -3.974  0.00  0.00    -0.072 C 
HETATM   16  C   UNK N   1      26.708  28.016  -5.981  0.00  0.00     0.017 C 
HETATM   17  C   UNK N   1      27.048  29.191  -5.071  0.00  0.00     0.084 C 
HETATM   18  C   UNK N   1      26.394  27.546  -3.187  0.00  0.00     0.053 C 
HETATM   19  C   UNK N   1      26.550  28.931  -3.679  0.00  0.00     0.149 C 
ENDROOT
BRANCH   7  20
HETATM   20  O   UNK N   1      27.720  20.965  -8.845  0.00  0.00    -0.315 OA
BRANCH  20  21
HETATM   21  C   UNK N   1      28.367  20.570  -9.970  0.00  0.00     0.259 C 
HETATM   22  O   UNK N   1      27.942  20.903 -11.062  0.00  0.00    -0.265 OA
BRANCH  21  23
HETATM   23  C   UNK N   1      29.604  19.720  -9.887  0.00  0.00     0.111 C 
BRANCH  23  24
HETATM   24  C   UNK N   1      29.708  19.106  -8.501  0.00  0.00     0.010 C 
BRANCH  24  25
HETATM   25  C   UNK N   1      30.696  19.886  -7.656  0.00  0.00     0.000 C 
BRANCH  25  26
HETATM   26  C   UNK N   1      30.064  20.200  -6.316  0.00  0.00     0.000 C 
BRANCH  26  27
HETATM   27  C   UNK N   1      31.022  20.996  -5.465  0.00  0.00     0.000 C 
BRANCH  27  28
HETATM   28  C   UNK N   1      30.208  21.895  -4.563  0.00  0.00     0.000 C 
BRANCH  28  29
HETATM   29  C   UNK N   1      30.752  23.303  -4.614  0.00  0.00    -0.000 C 
BRANCH  29  30
HETATM   30  C   UNK N   1      30.418  24.005  -3.316  0.00  0.00    -0.005 C 
HETATM   31  C   UNK N   1      29.726  23.035  -2.383  0.00  0.00     0.005 C 
ENDBRANCH  29  30
ENDBRANCH  28  29
ENDBRANCH  27  28
ENDBRANCH  26  27
ENDBRANCH  25  26
ENDBRANCH  24  25
ENDBRANCH  23  24
ENDBRANCH  21  23
ENDBRANCH  20  21
ENDBRANCH   7  20
TORSDOF 10
ENDMDL
MODEL 4
REMARK VINA RESULT:      -7.4      3.728     12.609
REMARK  10 active torsions:
REMARK  status: ('A' for Active; 'I' for Inactive)
REMARK    1  A    between atoms: C_9  and  O_1 
REMARK    2  A    between atoms: O_1  and  C_22 
REMARK    3  A    between atoms: C_22  and  C_23 
REMARK    4  A    between atoms: C_23  and  C_24 
REMARK    5  A    between atoms: C_24  and  C_25 
REMARK    6  A    between atoms: C_25  and  C_26 
REMARK    7  A    between atoms: C_26  and  C_27 
REMARK    8  A    between atoms: C_27  and  C_28 
REMARK    9  A    between atoms: C_28  and  C_29 
REMARK   10  A    between atoms: C_29  and  C_30 
ROOT
HETATM    1  O   UNK N   1      36.880   9.012  22.240  0.00  0.00    -0.293 OA
HETATM    2  C   UNK N   1      34.997  12.793  15.619  0.00  0.00     0.001 C 
HETATM    3  C   UNK N   1      35.144  11.824  14.440  0.00  0.00    -0.013 C 
HETATM    4  C   UNK N   1      34.966  12.101  17.011  0.00  0.00    -0.005 C 
HETATM    5  C   UNK N   1      36.049  11.019  17.158  0.00  0.00    -0.002 C 
HETATM    6  C   UNK N   1      36.229  10.776  14.707  0.00  0.00     0.012 C 
HETATM    7  C   UNK N   1      35.668  12.709  13.318  0.00  0.00     0.140 C 
HETATM    8  C   UNK N   1      36.142  13.787  15.458  0.00  0.00     0.008 C 
HETATM    9  C   UNK N   1      35.960  10.033  15.999  0.00  0.00     0.006 C 
HETATM   10  C   UNK N   1      35.852  10.275  18.477  0.00  0.00     0.019 C 
HETATM   11  C   UNK N   1      36.575  13.723  14.000  0.00  0.00     0.034 C 
HETATM   12  C   UNK N   1      35.150  13.154  18.112  0.00  0.00     0.010 C 
HETATM   13  C   UNK N   1      33.839  11.118  14.087  0.00  0.00     0.018 C 
HETATM   14  C   UNK N   1      35.264  12.607  19.540  0.00  0.00     0.035 C 
HETATM   15  C   UNK N   1      35.842  11.223  19.661  0.00  0.00    -0.072 C 
HETATM   16  C   UNK N   1      36.895   9.164  18.657  0.00  0.00     0.017 C 
HETATM   17  C   UNK N   1      36.673   8.419  19.968  0.00  0.00     0.084 C 
HETATM   18  C   UNK N   1      36.162  10.780  20.887  0.00  0.00     0.053 C 
HETATM   19  C   UNK N   1      36.606   9.388  21.111  0.00  0.00     0.149 C 
ENDROOT
BRANCH   7  20
HETATM   20  O   UNK N   1      34.680  13.376  12.633  0.00  0.00    -0.315 OA
BRANCH  20  21
HETATM   21  C   UNK N   1      34.807  13.616  11.303  0.00  0.00     0.259 C 
HETATM   22  O   UNK N   1      35.284  12.763  10.577  0.00  0.00    -0.265 OA
BRANCH  21  23
HETATM   23  C   UNK N   1      34.368  14.928  10.714  0.00  0.00     0.111 C 
BRANCH  23  24
HETATM   24  C   UNK N   1      35.569  15.849  10.570  0.00  0.00     0.010 C 
BRANCH  24  25
HETATM   25  C   UNK N   1      35.140  17.180   9.984  0.00  0.00     0.000 C 
BRANCH  25  26
HETATM   26  C   UNK N   1      33.851  16.991   9.214  0.00  0.00     0.000 C 
BRANCH  26  27
HETATM   27  C   UNK N   1      33.737  18.035   8.130  0.00  0.00     0.000 C 
BRANCH  27  28
HETATM   28  C   UNK N   1      32.876  17.468   7.025  0.00  0.00     0.000 C 
BRANCH  28  29
HETATM   29  C   UNK N   1      33.689  17.332   5.759  0.00  0.00    -0.000 C 
BRANCH  29  30
HETATM   30  C   UNK N   1      33.838  15.863   5.429  0.00  0.00    -0.005 C 
HETATM   31  C   UNK N   1      35.150  15.353   5.985  0.00  0.00     0.005 C 
ENDBRANCH  29  30
ENDBRANCH  28  29
ENDBRANCH  27  28
ENDBRANCH  26  27
ENDBRANCH  25  26
ENDBRANCH  24  25
ENDBRANCH  23  24
ENDBRANCH  21  23
ENDBRANCH  20  21
ENDBRANCH   7  20
TORSDOF 10
ENDMDL
MODEL 5
REMARK VINA RESULT:      -7.2     16.678     19.983
REMARK  10 active torsions:
REMARK  status: ('A' for Active; 'I' for Inactive)
REMARK    1  A    between atoms: C_9  and  O_1 
REMARK    2  A    between atoms: O_1  and  C_22 
REMARK    3  A    between atoms: C_22  and  C_23 
REMARK    4  A    between atoms: C_23  and  C_24 
REMARK    5  A    between atoms: C_24  and  C_25 
REMARK    6  A    between atoms: C_25  and  C_26 
REMARK    7  A    between atoms: C_26  and  C_27 
REMARK    8  A    between atoms: C_27  and  C_28 
REMARK    9  A    between atoms: C_28  and  C_29 
REMARK   10  A    between atoms: C_29  and  C_30 
ROOT
HETATM    1  O   UNK N   1      30.574  17.684  -9.060  0.00  0.00    -0.293 OA
HETATM    2  C   UNK N   1      27.822  24.262  -5.771  0.00  0.00     0.001 C 
HETATM    3  C   UNK N   1      28.822  24.738  -4.710  0.00  0.00    -0.013 C 
HETATM    4  C   UNK N   1      28.395  23.206  -6.757  0.00  0.00    -0.005 C 
HETATM    5  C   UNK N   1      29.196  22.104  -6.042  0.00  0.00    -0.002 C 
HETATM    6  C   UNK N   1      29.581  23.562  -4.087  0.00  0.00     0.012 C 
HETATM    7  C   UNK N   1      27.931  25.305  -3.613  0.00  0.00     0.140 C 
HETATM    8  C   UNK N   1      26.614  23.769  -4.981  0.00  0.00     0.008 C 
HETATM    9  C   UNK N   1      30.263  22.730  -5.153  0.00  0.00     0.006 C 
HETATM   10  C   UNK N   1      29.862  21.203  -7.079  0.00  0.00     0.019 C 
HETATM   11  C   UNK N   1      26.693  24.422  -3.608  0.00  0.00     0.034 C 
HETATM   12  C   UNK N   1      27.246  22.564  -7.546  0.00  0.00     0.010 C 
HETATM   13  C   UNK N   1      29.825  25.752  -5.253  0.00  0.00     0.018 C 
HETATM   14  C   UNK N   1      27.643  21.411  -8.476  0.00  0.00     0.035 C 
HETATM   15  C   UNK N   1      28.851  20.621  -8.050  0.00  0.00    -0.072 C 
HETATM   16  C   UNK N   1      30.698  20.101  -6.414  0.00  0.00     0.017 C 
HETATM   17  C   UNK N   1      31.371  19.222  -7.462  0.00  0.00     0.084 C 
HETATM   18  C   UNK N   1      29.118  19.478  -8.703  0.00  0.00     0.053 C 
HETATM   19  C   UNK N   1      30.356  18.714  -8.442  0.00  0.00     0.149 C 
ENDROOT
BRANCH   7  20
HETATM   20  O   UNK N   1      27.554  26.611  -3.827  0.00  0.00    -0.315 OA
BRANCH  20  21
HETATM   21  C   UNK N   1      26.432  27.106  -3.247  0.00  0.00     0.259 C 
HETATM   22  O   UNK N   1      26.257  26.965  -2.050  0.00  0.00    -0.265 OA
BRANCH  21  23
HETATM   23  C   UNK N   1      25.398  27.827  -4.065  0.00  0.00     0.111 C 
BRANCH  23  24
HETATM   24  C   UNK N   1      25.825  27.848  -5.523  0.00  0.00     0.010 C 
BRANCH  24  25
HETATM   25  C   UNK N   1      25.144  26.729  -6.285  0.00  0.00     0.000 C 
BRANCH  25  26
HETATM   26  C   UNK N   1      25.809  26.571  -7.636  0.00  0.00     0.000 C 
BRANCH  26  27
HETATM   27  C   UNK N   1      27.201  27.150  -7.599  0.00  0.00     0.000 C 
BRANCH  27  28
HETATM   28  C   UNK N   1      27.961  26.614  -8.791  0.00  0.00     0.000 C 
BRANCH  28  29
HETATM   29  C   UNK N   1      27.100  25.634  -9.551  0.00  0.00    -0.000 C 
BRANCH  29  30
HETATM   30  C   UNK N   1      27.156  25.973 -11.024  0.00  0.00    -0.005 C 
HETATM   31  C   UNK N   1      27.845  27.308 -11.208  0.00  0.00     0.005 C 
ENDBRANCH  29  30
ENDBRANCH  28  29
ENDBRANCH  27  28
ENDBRANCH  26  27
ENDBRANCH  25  26
ENDBRANCH  24  25
ENDBRANCH  23  24
ENDBRANCH  21  23
ENDBRANCH  20  21
ENDBRANCH   7  20
TORSDOF 10
ENDMDL
MODEL 6
REMARK VINA RESULT:      -7.1      4.802     10.984
REMARK  10 active torsions:
REMARK  status: ('A' for Active; 'I' for Inactive)
REMARK    1  A    between atoms: C_9  and  O_1 
REMARK    2  A    between atoms: O_1  and  C_22 
REMARK    3  A    between atoms: C_22  and  C_23 
REMARK    4  A    between atoms: C_23  and  C_24 
REMARK    5  A    between atoms: C_24  and  C_25 
REMARK    6  A    between atoms: C_25  and  C_26 
REMARK    7  A    between atoms: C_26  and  C_27 
REMARK    8  A    between atoms: C_27  and  C_28 
REMARK    9  A    between atoms: C_28  and  C_29 
REMARK   10  A    between atoms: C_29  and  C_30 
ROOT
HETATM    1  O   UNK N   1      33.814  15.737   8.517  0.00  0.00    -0.293 OA
HETATM    2  C   UNK N   1      27.086  18.964   6.072  0.00  0.00     0.001 C 
HETATM    3  C   UNK N   1      26.816  18.510   4.632  0.00  0.00    -0.013 C 
HETATM    4  C   UNK N   1      28.162  18.122   6.814  0.00  0.00    -0.005 C 
HETATM    5  C   UNK N   1      29.404  17.855   5.946  0.00  0.00    -0.002 C 
HETATM    6  C   UNK N   1      28.121  18.246   3.873  0.00  0.00     0.012 C 
HETATM    7  C   UNK N   1      26.184  19.735   3.987  0.00  0.00     0.140 C 
HETATM    8  C   UNK N   1      27.439  20.443   5.960  0.00  0.00     0.008 C 
HETATM    9  C   UNK N   1      28.987  17.248   4.613  0.00  0.00     0.006 C 
HETATM   10  C   UNK N   1      30.337  16.891   6.675  0.00  0.00     0.019 C 
HETATM   11  C   UNK N   1      26.876  20.927   4.630  0.00  0.00     0.034 C 
HETATM   12  C   UNK N   1      28.588  18.848   8.096  0.00  0.00     0.010 C 
HETATM   13  C   UNK N   1      25.932  17.269   4.558  0.00  0.00     0.018 C 
HETATM   14  C   UNK N   1      29.735  18.198   8.877  0.00  0.00     0.035 C 
HETATM   15  C   UNK N   1      30.714  17.406   8.052  0.00  0.00    -0.072 C 
HETATM   16  C   UNK N   1      31.582  16.571   5.837  0.00  0.00     0.017 C 
HETATM   17  C   UNK N   1      32.493  15.593   6.570  0.00  0.00     0.084 C 
HETATM   18  C   UNK N   1      31.848  16.996   8.643  0.00  0.00     0.053 C 
HETATM   19  C   UNK N   1      32.797  16.100   7.948  0.00  0.00     0.149 C 
ENDROOT
BRANCH   7  20
HETATM   20  O   UNK N   1      24.828  19.833   4.199  0.00  0.00    -0.315 OA
BRANCH  20  21
HETATM   21  C   UNK N   1      23.998  20.192   3.186  0.00  0.00     0.259 C 
HETATM   22  O   UNK N   1      24.428  20.848   2.255  0.00  0.00    -0.265 OA
BRANCH  21  23
HETATM   23  C   UNK N   1      22.549  19.792   3.202  0.00  0.00     0.111 C 
BRANCH  23  24
HETATM   24  C   UNK N   1      22.408  18.413   3.827  0.00  0.00     0.010 C 
BRANCH  24  25
HETATM   25  C   UNK N   1      21.525  18.484   5.057  0.00  0.00     0.000 C 
BRANCH  25  26
HETATM   26  C   UNK N   1      21.324  17.087   5.604  0.00  0.00     0.000 C 
BRANCH  26  27
HETATM   27  C   UNK N   1      22.659  16.422   5.833  0.00  0.00     0.000 C 
BRANCH  27  28
HETATM   28  C   UNK N   1      22.610  15.049   5.205  0.00  0.00     0.000 C 
BRANCH  28  29
HETATM   29  C   UNK N   1      23.741  14.200   5.736  0.00  0.00    -0.000 C 
BRANCH  29  30
HETATM   30  C   UNK N   1      24.178  14.750   7.076  0.00  0.00    -0.005 C 
HETATM   31  C   UNK N   1      25.686  14.872   7.103  0.00  0.00     0.005 C 
ENDBRANCH  29  30
ENDBRANCH  28  29
ENDBRANCH  27  28
ENDBRANCH  26  27
ENDBRANCH  25  26
ENDBRANCH  24  25
ENDBRANCH  23  24
ENDBRANCH  21  23
ENDBRANCH  20  21
ENDBRANCH   7  20
TORSDOF 10
ENDMDL
MODEL 7
REMARK VINA RESULT:      -7.0      3.465     11.927
REMARK  10 active torsions:
REMARK  status: ('A' for Active; 'I' for Inactive)
REMARK    1  A    between atoms: C_9  and  O_1 
REMARK    2  A    between atoms: O_1  and  C_22 
REMARK    3  A    between atoms: C_22  and  C_23 
REMARK    4  A    between atoms: C_23  and  C_24 
REMARK    5  A    between atoms: C_24  and  C_25 
REMARK    6  A    between atoms: C_25  and  C_26 
REMARK    7  A    between atoms: C_26  and  C_27 
REMARK    8  A    between atoms: C_27  and  C_28 
REMARK    9  A    between atoms: C_28  and  C_29 
REMARK   10  A    between atoms: C_29  and  C_30 
ROOT
HETATM    1  O   UNK N   1      36.392  10.162  21.453  0.00  0.00    -0.293 OA
HETATM    2  C   UNK N   1      35.030  12.612  14.118  0.00  0.00     0.001 C 
HETATM    3  C   UNK N   1      35.316  11.456  13.151  0.00  0.00    -0.013 C 
HETATM    4  C   UNK N   1      34.888  12.178  15.604  0.00  0.00    -0.005 C 
HETATM    5  C   UNK N   1      35.985  11.191  16.038  0.00  0.00    -0.002 C 
HETATM    6  C   UNK N   1      36.401  10.523  13.698  0.00  0.00     0.012 C 
HETATM    7  C   UNK N   1      35.917  12.150  11.937  0.00  0.00     0.140 C 
HETATM    8  C   UNK N   1      36.154  13.613  13.879  0.00  0.00     0.008 C 
HETATM    9  C   UNK N   1      36.034  10.011  15.075  0.00  0.00     0.006 C 
HETATM   10  C   UNK N   1      35.686  10.685  17.448  0.00  0.00     0.019 C 
HETATM   11  C   UNK N   1      36.724  13.310  12.500  0.00  0.00     0.034 C 
HETATM   12  C   UNK N   1      34.937  13.417  16.507  0.00  0.00     0.010 C 
HETATM   13  C   UNK N   1      34.071  10.639  12.820  0.00  0.00     0.018 C 
HETATM   14  C   UNK N   1      34.931  13.140  18.015  0.00  0.00     0.035 C 
HETATM   15  C   UNK N   1      35.537  11.828  18.435  0.00  0.00    -0.072 C 
HETATM   16  C   UNK N   1      36.740   9.674  17.917  0.00  0.00     0.017 C 
HETATM   17  C   UNK N   1      36.418   9.164  19.318  0.00  0.00     0.084 C 
HETATM   18  C   UNK N   1      35.753  11.625  19.745  0.00  0.00     0.053 C 
HETATM   19  C   UNK N   1      36.215  10.317  20.256  0.00  0.00     0.149 C 
ENDROOT
BRANCH   7  20
HETATM   20  O   UNK N   1      34.978  12.638  11.058  0.00  0.00    -0.315 OA
BRANCH  20  21
HETATM   21  C   UNK N   1      35.215  12.628   9.723  0.00  0.00     0.259 C 
HETATM   22  O   UNK N   1      36.012  11.835   9.256  0.00  0.00    -0.265 OA
BRANCH  21  23
HETATM   23  C   UNK N   1      34.507  13.589   8.809  0.00  0.00     0.111 C 
BRANCH  23  24
HETATM   24  C   UNK N   1      35.114  14.975   8.957  0.00  0.00     0.010 C 
BRANCH  24  25
HETATM   25  C   UNK N   1      34.033  15.988   9.276  0.00  0.00     0.000 C 
BRANCH  25  26
HETATM   26  C   UNK N   1      32.676  15.353   9.055  0.00  0.00     0.000 C 
BRANCH  26  27
HETATM   27  C   UNK N   1      31.718  16.364   8.475  0.00  0.00     0.000 C 
BRANCH  27  28
HETATM   28  C   UNK N   1      32.520  17.351   7.657  0.00  0.00     0.000 C 
BRANCH  28  29
HETATM   29  C   UNK N   1      32.139  17.240   6.200  0.00  0.00    -0.000 C 
BRANCH  29  30
HETATM   30  C   UNK N   1      33.394  17.317   5.358  0.00  0.00    -0.005 C 
HETATM   31  C   UNK N   1      34.216  16.063   5.564  0.00  0.00     0.005 C 
ENDBRANCH  29  30
ENDBRANCH  28  29
ENDBRANCH  27  28
ENDBRANCH  26  27
ENDBRANCH  25  26
ENDBRANCH  24  25
ENDBRANCH  23  24
ENDBRANCH  21  23
ENDBRANCH  20  21
ENDBRANCH   7  20
TORSDOF 10
ENDMDL
MODEL 8
REMARK VINA RESULT:      -7.0      9.367     14.134
REMARK  10 active torsions:
REMARK  status: ('A' for Active; 'I' for Inactive)
REMARK    1  A    between atoms: C_9  and  O_1 
REMARK    2  A    between atoms: O_1  and  C_22 
REMARK    3  A    between atoms: C_22  and  C_23 
REMARK    4  A    between atoms: C_23  and  C_24 
REMARK    5  A    between atoms: C_24  and  C_25 
REMARK    6  A    between atoms: C_25  and  C_26 
REMARK    7  A    between atoms: C_26  and  C_27 
REMARK    8  A    between atoms: C_27  and  C_28 
REMARK    9  A    between atoms: C_28  and  C_29 
REMARK   10  A    between atoms: C_29  and  C_30 
ROOT
HETATM    1  O   UNK N   1      24.255  11.592  12.596  0.00  0.00    -0.293 OA
HETATM    2  C   UNK N   1      20.650  14.900   6.454  0.00  0.00     0.001 C 
HETATM    3  C   UNK N   1      21.619  14.918   5.265  0.00  0.00    -0.013 C 
HETATM    4  C   UNK N   1      21.077  13.950   7.608  0.00  0.00    -0.005 C 
HETATM    5  C   UNK N   1      22.570  14.078   7.957  0.00  0.00    -0.002 C 
HETATM    6  C   UNK N   1      23.075  15.019   5.730  0.00  0.00     0.012 C 
HETATM    7  C   UNK N   1      21.299  16.233   4.568  0.00  0.00     0.140 C 
HETATM    8  C   UNK N   1      20.521  16.359   6.880  0.00  0.00     0.008 C 
HETATM    9  C   UNK N   1      23.414  13.905   6.700  0.00  0.00     0.006 C 
HETATM   10  C   UNK N   1      22.949  13.005   8.976  0.00  0.00     0.019 C 
HETATM   11  C   UNK N   1      20.946  17.202   5.686  0.00  0.00     0.034 C 
HETATM   12  C   UNK N   1      20.239  14.252   8.858  0.00  0.00     0.010 C 
HETATM   13  C   UNK N   1      21.464  13.703   4.356  0.00  0.00     0.018 C 
HETATM   14  C   UNK N   1      20.629  13.476  10.121  0.00  0.00     0.035 C 
HETATM   15  C   UNK N   1      22.076  13.074  10.215  0.00  0.00    -0.072 C 
HETATM   16  C   UNK N   1      24.439  13.073   9.335  0.00  0.00     0.017 C 
HETATM   17  C   UNK N   1      24.805  11.985  10.338  0.00  0.00     0.084 C 
HETATM   18  C   UNK N   1      22.519  12.584  11.384  0.00  0.00     0.053 C 
HETATM   19  C   UNK N   1      23.886  12.039  11.522  0.00  0.00     0.149 C 
ENDROOT
BRANCH   7  20
HETATM   20  O   UNK N   1      20.242  16.150   3.691  0.00  0.00    -0.315 OA
BRANCH  20  21
HETATM   21  C   UNK N   1      20.255  16.853   2.531  0.00  0.00     0.259 C 
HETATM   22  O   UNK N   1      20.022  18.048   2.544  0.00  0.00    -0.265 OA
BRANCH  21  23
HETATM   23  C   UNK N   1      20.552  16.173   1.223  0.00  0.00     0.111 C 
BRANCH  23  24
HETATM   24  C   UNK N   1      20.008  14.754   1.253  0.00  0.00     0.010 C 
BRANCH  24  25
HETATM   25  C   UNK N   1      21.048  13.783   0.730  0.00  0.00     0.000 C 
BRANCH  25  26
HETATM   26  C   UNK N   1      22.416  14.426   0.818  0.00  0.00     0.000 C 
BRANCH  26  27
HETATM   27  C   UNK N   1      23.482  13.434   0.421  0.00  0.00     0.000 C 
BRANCH  27  28
HETATM   28  C   UNK N   1      24.600  13.519   1.435  0.00  0.00     0.000 C 
BRANCH  28  29
HETATM   29  C   UNK N   1      24.407  12.469   2.503  0.00  0.00    -0.000 C 
BRANCH  29  30
HETATM   30  C   UNK N   1      25.367  12.743   3.639  0.00  0.00    -0.005 C 
HETATM   31  C   UNK N   1      25.917  14.147   3.505  0.00  0.00     0.005 C 
ENDBRANCH  29  30
ENDBRANCH  28  29
ENDBRANCH  27  28
ENDBRANCH  26  27
ENDBRANCH  25  26
ENDBRANCH  24  25
ENDBRANCH  23  24
ENDBRANCH  21  23
ENDBRANCH  20  21
ENDBRANCH   7  20
TORSDOF 10
ENDMDL
MODEL 9
REMARK VINA RESULT:      -6.9     14.749     18.634
REMARK  10 active torsions:
REMARK  status: ('A' for Active; 'I' for Inactive)
REMARK    1  A    between atoms: C_9  and  O_1 
REMARK    2  A    between atoms: O_1  and  C_22 
REMARK    3  A    between atoms: C_22  and  C_23 
REMARK    4  A    between atoms: C_23  and  C_24 
REMARK    5  A    between atoms: C_24  and  C_25 
REMARK    6  A    between atoms: C_25  and  C_26 
REMARK    7  A    between atoms: C_26  and  C_27 
REMARK    8  A    between atoms: C_27  and  C_28 
REMARK    9  A    between atoms: C_28  and  C_29 
REMARK   10  A    between atoms: C_29  and  C_30 
ROOT
HETATM    1  O   UNK N   1      37.239  19.284  -5.704  0.00  0.00    -0.293 OA
HETATM    2  C   UNK N   1      31.057  23.888  -4.206  0.00  0.00     0.001 C 
HETATM    3  C   UNK N   1      29.946  23.034  -3.585  0.00  0.00    -0.013 C 
HETATM    4  C   UNK N   1      32.456  23.211  -4.206  0.00  0.00    -0.005 C 
HETATM    5  C   UNK N   1      32.401  21.742  -4.660  0.00  0.00    -0.002 C 
HETATM    6  C   UNK N   1      30.004  21.587  -4.085  0.00  0.00     0.012 C 
HETATM    7  C   UNK N   1      28.672  23.637  -4.161  0.00  0.00     0.140 C 
HETATM    8  C   UNK N   1      30.551  24.243  -5.600  0.00  0.00     0.008 C 
HETATM    9  C   UNK N   1      31.369  20.981  -3.836  0.00  0.00     0.006 C 
HETATM   10  C   UNK N   1      33.774  21.099  -4.476  0.00  0.00     0.019 C 
HETATM   11  C   UNK N   1      29.039  24.070  -5.572  0.00  0.00     0.034 C 
HETATM   12  C   UNK N   1      33.404  23.989  -5.128  0.00  0.00     0.010 C 
HETATM   13  C   UNK N   1      29.976  23.040  -2.059  0.00  0.00     0.018 C 
HETATM   14  C   UNK N   1      34.792  23.370  -5.327  0.00  0.00     0.035 C 
HETATM   15  C   UNK N   1      34.858  21.871  -5.206  0.00  0.00    -0.072 C 
HETATM   16  C   UNK N   1      33.763  19.621  -4.891  0.00  0.00     0.017 C 
HETATM   17  C   UNK N   1      35.135  18.990  -4.684  0.00  0.00     0.084 C 
HETATM   18  C   UNK N   1      35.993  21.258  -5.578  0.00  0.00     0.053 C 
HETATM   19  C   UNK N   1      36.192  19.809  -5.364  0.00  0.00     0.149 C 
ENDROOT
BRANCH   7  20
HETATM   20  O   UNK N   1      28.211  24.727  -3.460  0.00  0.00    -0.315 OA
BRANCH  20  21
HETATM   21  C   UNK N   1      26.899  25.071  -3.508  0.00  0.00     0.259 C 
HETATM   22  O   UNK N   1      26.046  24.202  -3.523  0.00  0.00    -0.265 OA
BRANCH  21  23
HETATM   23  C   UNK N   1      26.484  26.515  -3.547  0.00  0.00     0.111 C 
BRANCH  23  24
HETATM   24  C   UNK N   1      27.055  27.176  -4.791  0.00  0.00     0.010 C 
BRANCH  24  25
HETATM   25  C   UNK N   1      25.935  27.717  -5.657  0.00  0.00     0.000 C 
BRANCH  25  26
HETATM   26  C   UNK N   1      25.290  26.572  -6.408  0.00  0.00     0.000 C 
BRANCH  26  27
HETATM   27  C   UNK N   1      26.169  26.146  -7.558  0.00  0.00     0.000 C 
BRANCH  27  28
HETATM   28  C   UNK N   1      25.667  24.812  -8.060  0.00  0.00     0.000 C 
BRANCH  28  29
HETATM   29  C   UNK N   1      25.782  23.775  -6.968  0.00  0.00    -0.000 C 
BRANCH  29  30
HETATM   30  C   UNK N   1      26.171  22.452  -7.588  0.00  0.00    -0.005 C 
HETATM   31  C   UNK N   1      25.002  21.495  -7.508  0.00  0.00     0.005 C 
ENDBRANCH  29  30
ENDBRANCH  28  29
ENDBRANCH  27  28
ENDBRANCH  26  27
ENDBRANCH  25  26
ENDBRANCH  24  25
ENDBRANCH  23  24
ENDBRANCH  21  23
ENDBRANCH  20  21
ENDBRANCH   7  20
TORSDOF 10
ENDMDL
