REMARK  6 active torsions:
REMARK  status: ('A' for Active; 'I' for Inactive)
REMARK    1  A    between atoms: C_3  and  C_1 
REMARK       I    between atoms: C_1  and  N_5 
REMARK    2  A    between atoms: C_10  and  N_5 
REMARK    3  A    between atoms: N_5  and  C_7 
REMARK    4  A    between atoms: C_13  and  N_6 
REMARK    5  A    between atoms: C_14  and  C_13 
REMARK    6  A    between atoms: C_15  and  C_14 
ROOT
HETATM    1  N   UNK N   1       0.509  -1.280  -0.530  0.00  0.00     0.088 N 
HETATM    2  C   UNK N   1       0.263   1.435   0.126  0.00  0.00     0.096 C 
HETATM    3  C   UNK N   1       1.155   0.568   1.020  0.00  0.00     0.056 C 
HETATM    4  C   UNK N   1       0.370   1.111  -1.354  0.00  0.00     0.056 C 
HETATM    5  C   UNK N   1      -0.041  -0.357  -1.545  0.00  0.00     0.274 C 
HETATM    6  C   UNK N   1       1.597  -0.698   0.271  0.00  0.00     0.274 C 
ENDROOT
BRANCH   2   7
HETATM    7  N   UNK N   1       0.280   2.863   0.418  0.00  0.00    -0.313 N 
HETATM    8  C   UNK N   1       1.479   3.548   0.528  0.00  0.00     0.224 C 
HETATM    9  O   UNK N   1       1.501   4.748   0.750  0.00  0.00    -0.273 OA
BRANCH   7  10
HETATM   10  C   UNK N   1      -1.005   3.517   0.532  0.00  0.00     0.037 A 
HETATM   11  C   UNK N   1      -2.184   2.781   0.291  0.00  0.00     0.030 A 
HETATM   12  C   UNK N   1      -3.439   3.388   0.357  0.00  0.00     0.002 A 
HETATM   13  C   UNK N   1      -3.541   4.743   0.670  0.00  0.00     0.000 A 
HETATM   14  C   UNK N   1      -2.388   5.490   0.918  0.00  0.00     0.002 A 
HETATM   15  C   UNK N   1      -1.131   4.883   0.845  0.00  0.00     0.030 A 
ENDBRANCH   7  10
BRANCH   8  16
HETATM   16  C   UNK N   1       2.799   2.839   0.389  0.00  0.00     0.099 C 
HETATM   17  C   UNK N   1       3.547   3.319  -0.838  0.00  0.00     0.014 C 
ENDBRANCH   8  16
ENDBRANCH   2   7
BRANCH   1  18
HETATM   18  C   UNK N   1      -0.547  -1.718   0.379  0.00  0.00     0.277 C 
BRANCH  18  19
HETATM   19  C   UNK N   1      -1.028  -3.131   0.063  0.00  0.00     0.076 C 
BRANCH  19  20
HETATM   20  C   UNK N   1       0.033  -4.195   0.103  0.00  0.00    -0.016 A 
HETATM   21  S   UNK N   1       1.680  -4.015   0.161  0.00  0.00    -0.106 SA
HETATM   22  C   UNK N   1       2.150  -5.603   0.126  0.00  0.00     0.050 A 
HETATM   23  C   UNK N   1       0.966  -6.351   0.069  0.00  0.00     0.008 A 
HETATM   24  C   UNK N   1      -0.221  -5.563   0.051  0.00  0.00     0.015 A 
ENDBRANCH  19  20
ENDBRANCH  18  19
ENDBRANCH   1  18
TORSDOF 6
