MODEL 1
REMARK VINA RESULT:     -11.4      0.000      0.000
REMARK  7 active torsions:
REMARK  status: ('A' for Active; 'I' for Inactive)
REMARK    1  A    between atoms: C_17  and  C_16 
REMARK    2  A    between atoms: C_23  and  C_16 
REMARK    3  A    between atoms: N_24  and  C_17 
REMARK    4  A    between atoms: O_28  and  C_19 
REMARK    5  A    between atoms: C_23  and  C_20 
REMARK    6  A    between atoms: C_23  and  C_22 
REMARK    7  A    between atoms: O_29  and  C_22 
ROOT
HETATM    1  C   UNK N   1      23.283  11.593  12.807  0.00  0.00     0.143 A 
HETATM    2  C   UNK N   1      20.856  12.650  10.927  0.00  0.00     0.011 A 
HETATM    3  C   UNK N   1      24.335  12.400  10.554  0.00  0.00    -0.020 A 
HETATM    4  C   UNK N   1      24.603  12.660   9.847  0.00  0.00     0.004 A 
HETATM    5  C   UNK N   1      20.512  12.970  10.248  0.00  0.00     0.040 A 
HETATM    6  C   UNK N   1      23.902  12.338  10.828  0.00  0.00     0.037 A 
HETATM    7  C   UNK N   1      24.085  11.984  11.633  0.00  0.00     0.118 A 
HETATM    8  C   UNK N   1      20.888  14.561   6.284  0.00  0.00     0.143 A 
HETATM    9  C   UNK N   1      22.054  14.134   6.989  0.00  0.00     0.143 A 
HETATM   10  C   UNK N   1      20.769  14.030   7.604  0.00  0.00     0.143 A 
HETATM   11  C   UNK N   1      21.357  14.772   5.638  0.00  0.00     0.187 A 
HETATM   12  C   UNK N   1      22.523  14.346   6.345  0.00  0.00     0.187 A 
HETATM   13  C   UNK N   1      21.117  13.711   8.280  0.00  0.00     0.195 A 
HETATM   14  C   UNK N   1      22.010  12.237  11.605  0.00  0.00     0.065 A 
HETATM   15  C   UNK N   1      21.679  12.550  10.938  0.00  0.00    -0.046 A 
HETATM   16  C   UNK N   1      23.379  12.421  10.772  0.00  0.00     0.046 A 
HETATM   17  C   UNK N   1      22.821  12.165  11.550  0.00  0.00     0.091 A 
HETATM   18  C   UNK N   1      24.020  12.938   9.339  0.00  0.00     0.171 A 
HETATM   19  C   UNK N   1      20.998  13.180   9.601  0.00  0.00     0.102 A 
HETATM   20  C   UNK N   1      22.166  12.757  10.300  0.00  0.00    -0.003 A 
HETATM   21  C   UNK N   1      21.844  13.074   9.620  0.00  0.00     0.110 A 
HETATM   22  C   UNK N   1      23.212  12.941   9.558  0.00  0.00     0.175 A 
HETATM   23  C   UNK N   1      23.045  12.634  10.350  0.00  0.00     0.030 A 
HETATM   24  N   UNK N   1      23.385  11.895  12.046  0.00  0.00    -0.411 N 
HETATM   25  N   UNK N   1      21.237  14.242   6.959  0.00  0.00    -0.406 N 
HETATM   26  O   UNK N   1      24.236  13.219   8.595  0.00  0.00    -0.389 OA
HETATM   27  O   UNK N   1      22.174  14.665   5.669  0.00  0.00    -0.388 OA
HETATM   28  O   UNK N   1      20.649  13.500   8.924  0.00  0.00    -0.347 OA
HETATM   29  O   UNK N   1      22.530  13.188   9.151  0.00  0.00    -0.338 OA
HETATM   30  H   UNK N   1      23.558  13.549   7.986  0.00  0.00     0.210 HD
ENDROOT
TORSDOF 7
ENDMDL
MODEL 2
REMARK VINA RESULT:     -11.2      0.661      2.258
REMARK  7 active torsions:
REMARK  status: ('A' for Active; 'I' for Inactive)
REMARK    1  A    between atoms: C_17  and  C_16 
REMARK    2  A    between atoms: C_23  and  C_16 
REMARK    3  A    between atoms: N_24  and  C_17 
REMARK    4  A    between atoms: O_28  and  C_19 
REMARK    5  A    between atoms: C_23  and  C_20 
REMARK    6  A    between atoms: C_23  and  C_22 
REMARK    7  A    between atoms: O_29  and  C_22 
ROOT
HETATM    1  C   UNK N   1      23.339  11.614  12.904  0.00  0.00     0.143 A 
HETATM    2  C   UNK N   1      24.734  12.642  10.157  0.00  0.00     0.011 A 
HETATM    3  C   UNK N   1      21.422  12.308  11.266  0.00  0.00    -0.020 A 
HETATM    4  C   UNK N   1      20.878  12.534  10.727  0.00  0.00     0.004 A 
HETATM    5  C   UNK N   1      24.755  12.940   9.389  0.00  0.00     0.040 A 
HETATM    6  C   UNK N   1      21.932  12.265  11.338  0.00  0.00     0.037 A 
HETATM    7  C   UNK N   1      22.110  11.941  12.157  0.00  0.00     0.118 A 
HETATM    8  C   UNK N   1      22.720  14.361   5.892  0.00  0.00     0.143 A 
HETATM    9  C   UNK N   1      21.966  13.941   7.029  0.00  0.00     0.143 A 
HETATM   10  C   UNK N   1      23.393  13.887   7.059  0.00  0.00     0.143 A 
HETATM   11  C   UNK N   1      22.020  14.537   5.492  0.00  0.00     0.187 A 
HETATM   12  C   UNK N   1      21.266  14.116   6.631  0.00  0.00     0.187 A 
HETATM   13  C   UNK N   1      23.366  13.589   7.827  0.00  0.00     0.195 A 
HETATM   14  C   UNK N   1      23.978  12.233  11.264  0.00  0.00     0.065 A 
HETATM   15  C   UNK N   1      23.993  12.525  10.512  0.00  0.00    -0.046 A 
HETATM   16  C   UNK N   1      22.383  12.356  11.068  0.00  0.00     0.046 A 
HETATM   17  C   UNK N   1      23.221  12.143  11.552  0.00  0.00     0.091 A 
HETATM   18  C   UNK N   1      21.189  12.801  10.015  0.00  0.00     0.171 A 
HETATM   19  C   UNK N   1      24.039  13.115   8.995  0.00  0.00     0.102 A 
HETATM   20  C   UNK N   1      23.279  12.696  10.127  0.00  0.00    -0.003 A 
HETATM   21  C   UNK N   1      23.281  12.993   9.365  0.00  0.00     0.110 A 
HETATM   22  C   UNK N   1      22.015  12.830   9.880  0.00  0.00     0.175 A 
HETATM   23  C   UNK N   1      22.504  12.559  10.539  0.00  0.00     0.030 A 
HETATM   24  N   UNK N   1      22.922  11.883  12.245  0.00  0.00    -0.411 N 
HETATM   25  N   UNK N   1      22.692  14.063   6.660  0.00  0.00    -0.406 N 
HETATM   26  O   UNK N   1      20.675  13.048   9.420  0.00  0.00    -0.389 OA
HETATM   27  O   UNK N   1      21.292  14.415   5.862  0.00  0.00    -0.388 OA
HETATM   28  O   UNK N   1      24.065  13.413   8.226  0.00  0.00    -0.347 OA
HETATM   29  O   UNK N   1      22.459  13.073   9.220  0.00  0.00    -0.338 OA
HETATM   30  H   UNK N   1      21.029  13.367   8.575  0.00  0.00     0.210 HD
ENDROOT
TORSDOF 7
ENDMDL
MODEL 3
REMARK VINA RESULT:     -11.1      1.634      3.042
REMARK  7 active torsions:
REMARK  status: ('A' for Active; 'I' for Inactive)
REMARK    1  A    between atoms: C_17  and  C_16 
REMARK    2  A    between atoms: C_23  and  C_16 
REMARK    3  A    between atoms: N_24  and  C_17 
REMARK    4  A    between atoms: O_28  and  C_19 
REMARK    5  A    between atoms: C_23  and  C_20 
REMARK    6  A    between atoms: C_23  and  C_22 
REMARK    7  A    between atoms: O_29  and  C_22 
ROOT
HETATM    1  C   UNK N   1      20.459  12.041  11.776  0.00  0.00     0.143 A 
HETATM    2  C   UNK N   1      23.522  11.953  10.704  0.00  0.00     0.011 A 
HETATM    3  C   UNK N   1      20.633  13.711   9.772  0.00  0.00    -0.020 A 
HETATM    4  C   UNK N   1      20.743  14.207   9.156  0.00  0.00     0.004 A 
HETATM    5  C   UNK N   1      24.158  12.159  10.221  0.00  0.00     0.040 A 
HETATM    6  C   UNK N   1      20.882  13.371  10.072  0.00  0.00     0.037 A 
HETATM    7  C   UNK N   1      20.325  13.025  10.686  0.00  0.00     0.118 A 
HETATM    8  C   UNK N   1      25.769  14.436   6.964  0.00  0.00     0.143 A 
HETATM    9  C   UNK N   1      24.394  14.584   7.320  0.00  0.00     0.143 A 
HETATM   10  C   UNK N   1      25.227  13.681   8.048  0.00  0.00     0.143 A 
HETATM   11  C   UNK N   1      25.671  14.990   6.360  0.00  0.00     0.187 A 
HETATM   12  C   UNK N   1      24.296  15.137   6.716  0.00  0.00     0.187 A 
HETATM   13  C   UNK N   1      24.588  13.477   8.528  0.00  0.00     0.195 A 
HETATM   14  C   UNK N   1      22.171  12.110  11.040  0.00  0.00     0.065 A 
HETATM   15  C   UNK N   1      22.790  12.316  10.564  0.00  0.00    -0.046 A 
HETATM   16  C   UNK N   1      21.371  13.166  10.122  0.00  0.00     0.046 A 
HETATM   17  C   UNK N   1      21.482  12.502  10.849  0.00  0.00     0.091 A 
HETATM   18  C   UNK N   1      21.507  14.216   8.853  0.00  0.00     0.171 A 
HETATM   19  C   UNK N   1      24.047  12.722   9.612  0.00  0.00     0.102 A 
HETATM   20  C   UNK N   1      22.672  12.874   9.962  0.00  0.00    -0.003 A 
HETATM   21  C   UNK N   1      23.291  13.091   9.474  0.00  0.00     0.110 A 
HETATM   22  C   UNK N   1      22.113  13.737   9.176  0.00  0.00     0.175 A 
HETATM   23  C   UNK N   1      21.873  13.241   9.843  0.00  0.00     0.030 A 
HETATM   24  N   UNK N   1      20.741  12.491  11.146  0.00  0.00    -0.411 N 
HETATM   25  N   UNK N   1      25.129  14.234   7.443  0.00  0.00    -0.406 N 
HETATM   26  O   UNK N   1      21.680  14.709   8.215  0.00  0.00    -0.389 OA
HETATM   27  O   UNK N   1      24.935  15.340   6.236  0.00  0.00    -0.388 OA
HETATM   28  O   UNK N   1      24.686  12.925   9.132  0.00  0.00    -0.347 OA
HETATM   29  O   UNK N   1      22.914  13.647   8.973  0.00  0.00    -0.338 OA
HETATM   30  H   UNK N   1      22.578  14.729   7.848  0.00  0.00     0.210 HD
ENDROOT
TORSDOF 7
ENDMDL
MODEL 4
REMARK VINA RESULT:     -10.9      7.397      9.166
REMARK  7 active torsions:
REMARK  status: ('A' for Active; 'I' for Inactive)
REMARK    1  A    between atoms: C_17  and  C_16 
REMARK    2  A    between atoms: C_23  and  C_16 
REMARK    3  A    between atoms: N_24  and  C_17 
REMARK    4  A    between atoms: O_28  and  C_19 
REMARK    5  A    between atoms: C_23  and  C_20 
REMARK    6  A    between atoms: C_23  and  C_22 
REMARK    7  A    between atoms: O_29  and  C_22 
ROOT
HETATM    1  C   UNK N   1      27.768  18.972   4.509  0.00  0.00     0.143 A 
HETATM    2  C   UNK N   1      24.742  17.895   4.984  0.00  0.00     0.011 A 
HETATM    3  C   UNK N   1      26.173  20.460   3.066  0.00  0.00    -0.020 A 
HETATM    4  C   UNK N   1      25.642  20.882   2.646  0.00  0.00     0.004 A 
HETATM    5  C   UNK N   1      23.923  17.879   4.885  0.00  0.00     0.040 A 
HETATM    6  C   UNK N   1      26.211  20.065   3.397  0.00  0.00     0.037 A 
HETATM    7  C   UNK N   1      27.068  19.926   3.628  0.00  0.00     0.118 A 
HETATM    8  C   UNK N   1      20.361  19.461   3.096  0.00  0.00     0.143 A 
HETATM    9  C   UNK N   1      21.627  20.044   2.789  0.00  0.00     0.143 A 
HETATM   10  C   UNK N   1      21.550  18.938   3.689  0.00  0.00     0.143 A 
HETATM   11  C   UNK N   1      19.990  20.005   2.598  0.00  0.00     0.187 A 
HETATM   12  C   UNK N   1      21.258  20.588   2.291  0.00  0.00     0.187 A 
HETATM   13  C   UNK N   1      22.369  18.958   3.785  0.00  0.00     0.195 A 
HETATM   14  C   UNK N   1      25.976  18.479   4.671  0.00  0.00     0.065 A 
HETATM   15  C   UNK N   1      25.175  18.469   4.570  0.00  0.00    -0.046 A 
HETATM   16  C   UNK N   1      25.890  19.716   3.640  0.00  0.00     0.046 A 
HETATM   17  C   UNK N   1      26.340  19.066   4.237  0.00  0.00     0.091 A 
HETATM   18  C   UNK N   1      24.861  20.643   2.737  0.00  0.00     0.171 A 
HETATM   19  C   UNK N   1      23.559  18.435   4.377  0.00  0.00     0.102 A 
HETATM   20  C   UNK N   1      24.820  19.023   4.066  0.00  0.00    -0.003 A 
HETATM   21  C   UNK N   1      24.011  19.022   3.956  0.00  0.00     0.110 A 
HETATM   22  C   UNK N   1      24.654  20.003   3.236  0.00  0.00     0.175 A 
HETATM   23  C   UNK N   1      25.318  19.622   3.640  0.00  0.00     0.030 A 
HETATM   24  N   UNK N   1      27.099  19.297   4.151  0.00  0.00    -0.411 N 
HETATM   25  N   UNK N   1      21.179  19.482   3.191  0.00  0.00    -0.406 N 
HETATM   26  O   UNK N   1      24.268  21.042   2.327  0.00  0.00    -0.389 OA
HETATM   27  O   UNK N   1      20.439  20.568   2.195  0.00  0.00    -0.388 OA
HETATM   28  O   UNK N   1      22.740  18.416   4.282  0.00  0.00    -0.347 OA
HETATM   29  O   UNK N   1      23.919  19.659   3.418  0.00  0.00    -0.338 OA
HETATM   30  H   UNK N   1      23.343  20.769   2.426  0.00  0.00     0.210 HD
ENDROOT
TORSDOF 7
ENDMDL
MODEL 5
REMARK VINA RESULT:     -10.6     13.260     14.822
REMARK  7 active torsions:
REMARK  status: ('A' for Active; 'I' for Inactive)
REMARK    1  A    between atoms: C_17  and  C_16 
REMARK    2  A    between atoms: C_23  and  C_16 
REMARK    3  A    between atoms: N_24  and  C_17 
REMARK    4  A    between atoms: O_28  and  C_19 
REMARK    5  A    between atoms: C_23  and  C_20 
REMARK    6  A    between atoms: C_23  and  C_22 
REMARK    7  A    between atoms: O_29  and  C_22 
ROOT
HETATM    1  C   UNK N   1      35.310  10.942  20.323  0.00  0.00     0.143 A 
HETATM    2  C   UNK N   1      35.173   9.740  17.310  0.00  0.00     0.011 A 
HETATM    3  C   UNK N   1      35.268  12.971  18.674  0.00  0.00    -0.020 A 
HETATM    4  C   UNK N   1      35.254  13.552  18.126  0.00  0.00     0.004 A 
HETATM    5  C   UNK N   1      35.140   9.773  16.486  0.00  0.00     0.040 A 
HETATM    6  C   UNK N   1      35.264  12.457  18.723  0.00  0.00     0.037 A 
HETATM    7  C   UNK N   1      35.296  12.222  19.590  0.00  0.00     0.118 A 
HETATM    8  C   UNK N   1      35.022  12.050  12.854  0.00  0.00     0.143 A 
HETATM    9  C   UNK N   1      35.081  12.724  14.111  0.00  0.00     0.143 A 
HETATM   10  C   UNK N   1      35.061  11.296  14.066  0.00  0.00     0.143 A 
HETATM   11  C   UNK N   1      35.015  12.777  12.464  0.00  0.00     0.187 A 
HETATM   12  C   UNK N   1      35.074  13.451  13.723  0.00  0.00     0.187 A 
HETATM   13  C   UNK N   1      35.094  11.269  14.890  0.00  0.00     0.195 A 
HETATM   14  C   UNK N   1      35.231  10.418  18.535  0.00  0.00     0.065 A 
HETATM   15  C   UNK N   1      35.199  10.456  17.729  0.00  0.00    -0.046 A 
HETATM   16  C   UNK N   1      35.246  12.026  18.411  0.00  0.00     0.046 A 
HETATM   17  C   UNK N   1      35.254  11.155  18.883  0.00  0.00     0.091 A 
HETATM   18  C   UNK N   1      35.219  13.292  17.348  0.00  0.00     0.171 A 
HETATM   19  C   UNK N   1      35.134  10.516  16.103  0.00  0.00     0.102 A 
HETATM   20  C   UNK N   1      35.193  11.196  17.355  0.00  0.00    -0.003 A 
HETATM   21  C   UNK N   1      35.161  11.248  16.540  0.00  0.00     0.110 A 
HETATM   22  C   UNK N   1      35.201  12.476  17.159  0.00  0.00     0.175 A 
HETATM   23  C   UNK N   1      35.222  11.941  17.838  0.00  0.00     0.030 A 
HETATM   24  N   UNK N   1      35.288  11.405  19.641  0.00  0.00    -0.411 N 
HETATM   25  N   UNK N   1      35.055  12.024  13.677  0.00  0.00    -0.406 N 
HETATM   26  O   UNK N   1      35.201  13.847  16.739  0.00  0.00    -0.389 OA
HETATM   27  O   UNK N   1      35.041  13.478  12.899  0.00  0.00    -0.388 OA
HETATM   28  O   UNK N   1      35.101  10.543  15.279  0.00  0.00    -0.347 OA
HETATM   29  O   UNK N   1      35.167  12.078  16.429  0.00  0.00    -0.338 OA
HETATM   30  H   UNK N   1      35.160  13.552  15.816  0.00  0.00     0.210 HD
ENDROOT
TORSDOF 7
ENDMDL
MODEL 6
REMARK VINA RESULT:     -10.6     18.305     19.894
REMARK  7 active torsions:
REMARK  status: ('A' for Active; 'I' for Inactive)
REMARK    1  A    between atoms: C_17  and  C_16 
REMARK    2  A    between atoms: C_23  and  C_16 
REMARK    3  A    between atoms: N_24  and  C_17 
REMARK    4  A    between atoms: O_28  and  C_19 
REMARK    5  A    between atoms: C_23  and  C_20 
REMARK    6  A    between atoms: C_23  and  C_22 
REMARK    7  A    between atoms: O_29  and  C_22 
ROOT
HETATM    1  C   UNK N   1      26.116  27.782  -2.938  0.00  0.00     0.143 A 
HETATM    2  C   UNK N   1      26.647  24.670  -3.699  0.00  0.00     0.011 A 
HETATM    3  C   UNK N   1      25.381  27.449  -5.425  0.00  0.00    -0.020 A 
HETATM    4  C   UNK N   1      25.173  27.292  -6.180  0.00  0.00     0.004 A 
HETATM    5  C   UNK N   1      26.655  24.004  -4.185  0.00  0.00     0.040 A 
HETATM    6  C   UNK N   1      25.576  27.228  -5.001  0.00  0.00     0.037 A 
HETATM    7  C   UNK N   1      25.645  27.827  -4.335  0.00  0.00     0.118 A 
HETATM    8  C   UNK N   1      25.874  22.153  -7.974  0.00  0.00     0.143 A 
HETATM    9  C   UNK N   1      25.586  23.540  -7.790  0.00  0.00     0.143 A 
HETATM   10  C   UNK N   1      26.132  22.775  -6.714  0.00  0.00     0.143 A 
HETATM   11  C   UNK N   1      25.605  22.202  -8.753  0.00  0.00     0.187 A 
HETATM   12  C   UNK N   1      25.318  23.589  -8.568  0.00  0.00     0.187 A 
HETATM   13  C   UNK N   1      26.122  23.444  -6.232  0.00  0.00     0.195 A 
HETATM   14  C   UNK N   1      26.359  26.032  -3.535  0.00  0.00     0.065 A 
HETATM   15  C   UNK N   1      26.364  25.383  -4.016  0.00  0.00    -0.046 A 
HETATM   16  C   UNK N   1      25.748  26.749  -4.844  0.00  0.00     0.046 A 
HETATM   17  C   UNK N   1      26.069  26.697  -3.908  0.00  0.00     0.091 A 
HETATM   18  C   UNK N   1      25.291  26.513  -6.415  0.00  0.00     0.171 A 
HETATM   19  C   UNK N   1      26.380  24.065  -4.973  0.00  0.00     0.102 A 
HETATM   20  C   UNK N   1      26.090  25.450  -4.796  0.00  0.00    -0.003 A 
HETATM   21  C   UNK N   1      26.091  24.801  -5.291  0.00  0.00     0.110 A 
HETATM   22  C   UNK N   1      25.607  25.941  -5.892  0.00  0.00     0.175 A 
HETATM   23  C   UNK N   1      25.795  26.231  -5.099  0.00  0.00     0.030 A 
HETATM   24  N   UNK N   1      25.955  27.452  -3.677  0.00  0.00    -0.411 N 
HETATM   25  N   UNK N   1      25.863  22.823  -7.493  0.00  0.00    -0.406 N 
HETATM   26  O   UNK N   1      25.094  26.292  -7.184  0.00  0.00    -0.389 OA
HETATM   27  O   UNK N   1      25.327  22.919  -9.050  0.00  0.00    -0.388 OA
HETATM   28  O   UNK N   1      26.390  23.396  -5.455  0.00  0.00    -0.347 OA
HETATM   29  O   UNK N   1      25.776  25.133  -5.994  0.00  0.00    -0.338 OA
HETATM   30  H   UNK N   1      25.229  25.376  -7.474  0.00  0.00     0.210 HD
ENDROOT
TORSDOF 7
ENDMDL
MODEL 7
REMARK VINA RESULT:     -10.6     20.404     21.865
REMARK  7 active torsions:
REMARK  status: ('A' for Active; 'I' for Inactive)
REMARK    1  A    between atoms: C_17  and  C_16 
REMARK    2  A    between atoms: C_23  and  C_16 
REMARK    3  A    between atoms: N_24  and  C_17 
REMARK    4  A    between atoms: O_28  and  C_19 
REMARK    5  A    between atoms: C_23  and  C_20 
REMARK    6  A    between atoms: C_23  and  C_22 
REMARK    7  A    between atoms: O_29  and  C_22 
ROOT
HETATM    1  C   UNK N   1      27.318  30.991  -3.956  0.00  0.00     0.143 A 
HETATM    2  C   UNK N   1      28.079  29.268  -6.601  0.00  0.00     0.011 A 
HETATM    3  C   UNK N   1      25.939  28.772  -3.866  0.00  0.00    -0.020 A 
HETATM    4  C   UNK N   1      25.543  28.079  -3.889  0.00  0.00     0.004 A 
HETATM    5  C   UNK N   1      28.046  28.626  -7.117  0.00  0.00     0.040 A 
HETATM    6  C   UNK N   1      26.283  29.054  -4.128  0.00  0.00     0.037 A 
HETATM    7  C   UNK N   1      26.453  29.825  -3.700  0.00  0.00     0.118 A 
HETATM    8  C   UNK N   1      26.472  24.779  -8.173  0.00  0.00     0.143 A 
HETATM    9  C   UNK N   1      26.040  25.415  -6.971  0.00  0.00     0.143 A 
HETATM   10  C   UNK N   1      26.993  26.060  -7.817  0.00  0.00     0.143 A 
HETATM   11  C   UNK N   1      25.981  24.136  -8.010  0.00  0.00     0.187 A 
HETATM   12  C   UNK N   1      25.548  24.774  -6.807  0.00  0.00     0.187 A 
HETATM   13  C   UNK N   1      27.023  26.700  -7.297  0.00  0.00     0.195 A 
HETATM   14  C   UNK N   1      27.643  29.879  -5.417  0.00  0.00     0.065 A 
HETATM   15  C   UNK N   1      27.607  29.247  -5.919  0.00  0.00    -0.046 A 
HETATM   16  C   UNK N   1      26.567  29.021  -4.578  0.00  0.00     0.046 A 
HETATM   17  C   UNK N   1      27.156  29.794  -4.769  0.00  0.00     0.091 A 
HETATM   18  C   UNK N   1      25.706  27.610  -4.544  0.00  0.00     0.171 A 
HETATM   19  C   UNK N   1      27.543  27.981  -6.941  0.00  0.00     0.102 A 
HETATM   20  C   UNK N   1      27.106  28.611  -5.738  0.00  0.00    -0.003 A 
HETATM   21  C   UNK N   1      27.061  27.966  -6.238  0.00  0.00     0.110 A 
HETATM   22  C   UNK N   1      26.248  27.853  -5.133  0.00  0.00     0.175 A 
HETATM   23  C   UNK N   1      26.616  28.625  -4.998  0.00  0.00     0.030 A 
HETATM   24  N   UNK N   1      26.999  30.252  -4.134  0.00  0.00    -0.411 N 
HETATM   25  N   UNK N   1      26.501  25.418  -7.653  0.00  0.00    -0.406 N 
HETATM   26  O   UNK N   1      25.326  26.882  -4.621  0.00  0.00    -0.389 OA
HETATM   27  O   UNK N   1      25.518  24.134  -7.326  0.00  0.00    -0.388 OA
HETATM   28  O   UNK N   1      27.514  27.341  -7.460  0.00  0.00    -0.347 OA
HETATM   29  O   UNK N   1      26.504  27.487  -5.835  0.00  0.00    -0.338 OA
HETATM   30  H   UNK N   1      25.510  26.320  -5.390  0.00  0.00     0.210 HD
ENDROOT
TORSDOF 7
ENDMDL
MODEL 8
REMARK VINA RESULT:     -10.5      7.290      9.095
REMARK  7 active torsions:
REMARK  status: ('A' for Active; 'I' for Inactive)
REMARK    1  A    between atoms: C_17  and  C_16 
REMARK    2  A    between atoms: C_23  and  C_16 
REMARK    3  A    between atoms: N_24  and  C_17 
REMARK    4  A    between atoms: O_28  and  C_19 
REMARK    5  A    between atoms: C_23  and  C_20 
REMARK    6  A    between atoms: C_23  and  C_22 
REMARK    7  A    between atoms: O_29  and  C_22 
ROOT
HETATM    1  C   UNK N   1      28.047  18.741   4.417  0.00  0.00     0.143 A 
HETATM    2  C   UNK N   1      25.910  20.640   2.879  0.00  0.00     0.011 A 
HETATM    3  C   UNK N   1      25.659  17.809   4.936  0.00  0.00    -0.020 A 
HETATM    4  C   UNK N   1      24.908  17.568   5.061  0.00  0.00     0.004 A 
HETATM    5  C   UNK N   1      25.162  20.894   2.641  0.00  0.00     0.040 A 
HETATM    6  C   UNK N   1      25.936  18.169   4.690  0.00  0.00     0.037 A 
HETATM    7  C   UNK N   1      26.814  18.049   4.839  0.00  0.00     0.118 A 
HETATM    8  C   UNK N   1      20.897  20.451   2.672  0.00  0.00     0.143 A 
HETATM    9  C   UNK N   1      21.710  19.531   3.402  0.00  0.00     0.143 A 
HETATM   10  C   UNK N   1      22.317  20.594   2.665  0.00  0.00     0.143 A 
HETATM   11  C   UNK N   1      20.220  20.048   2.920  0.00  0.00     0.187 A 
HETATM   12  C   UNK N   1      21.035  19.129   3.650  0.00  0.00     0.187 A 
HETATM   13  C   UNK N   1      23.063  20.335   2.906  0.00  0.00     0.195 A 
HETATM   14  C   UNK N   1      26.693  19.729   3.600  0.00  0.00     0.065 A 
HETATM   15  C   UNK N   1      25.958  19.973   3.370  0.00  0.00    -0.046 A 
HETATM   16  C   UNK N   1      25.854  18.591   4.376  0.00  0.00     0.046 A 
HETATM   17  C   UNK N   1      26.669  19.071   4.081  0.00  0.00     0.091 A 
HETATM   18  C   UNK N   1      24.334  18.022   4.688  0.00  0.00     0.171 A 
HETATM   19  C   UNK N   1      24.484  20.478   2.899  0.00  0.00     0.102 A 
HETATM   20  C   UNK N   1      25.290  19.556   3.630  0.00  0.00    -0.003 A 
HETATM   21  C   UNK N   1      24.541  19.794   3.404  0.00  0.00     0.110 A 
HETATM   22  C   UNK N   1      24.535  18.684   4.217  0.00  0.00     0.175 A 
HETATM   23  C   UNK N   1      25.382  18.847   4.156  0.00  0.00     0.030 A 
HETATM   24  N   UNK N   1      27.230  18.631   4.441  0.00  0.00    -0.411 N 
HETATM   25  N   UNK N   1      21.641  20.191   2.913  0.00  0.00    -0.406 N 
HETATM   26  O   UNK N   1      23.540  17.820   4.782  0.00  0.00    -0.389 OA
HETATM   27  O   UNK N   1      20.289  19.387   3.409  0.00  0.00    -0.388 OA
HETATM   28  O   UNK N   1      23.738  20.737   2.658  0.00  0.00    -0.347 OA
HETATM   29  O   UNK N   1      24.066  19.222   3.791  0.00  0.00    -0.338 OA
HETATM   30  H   UNK N   1      22.852  18.348   4.347  0.00  0.00     0.210 HD
ENDROOT
TORSDOF 7
ENDMDL
MODEL 9
REMARK VINA RESULT:     -10.4     12.621     13.956
REMARK  7 active torsions:
REMARK  status: ('A' for Active; 'I' for Inactive)
REMARK    1  A    between atoms: C_17  and  C_16 
REMARK    2  A    between atoms: C_23  and  C_16 
REMARK    3  A    between atoms: N_24  and  C_17 
REMARK    4  A    between atoms: O_28  and  C_19 
REMARK    5  A    between atoms: C_23  and  C_20 
REMARK    6  A    between atoms: C_23  and  C_22 
REMARK    7  A    between atoms: O_29  and  C_22 
ROOT
HETATM    1  C   UNK N   1      35.651  11.623  17.419  0.00  0.00     0.143 A 
HETATM    2  C   UNK N   1      36.738  14.072  15.585  0.00  0.00     0.011 A 
HETATM    3  C   UNK N   1      34.476  11.437  15.091  0.00  0.00    -0.020 A 
HETATM    4  C   UNK N   1      34.147  11.427  14.363  0.00  0.00     0.004 A 
HETATM    5  C   UNK N   1      36.798  14.537  14.906  0.00  0.00     0.040 A 
HETATM    6  C   UNK N   1      34.810  11.700  15.384  0.00  0.00     0.037 A 
HETATM    7  C   UNK N   1      34.880  11.326  16.198  0.00  0.00     0.118 A 
HETATM    8  C   UNK N   1      35.654  15.372  10.858  0.00  0.00     0.143 A 
HETATM    9  C   UNK N   1      35.086  14.251  11.538  0.00  0.00     0.143 A 
HETATM   10  C   UNK N   1      36.031  15.089  12.206  0.00  0.00     0.143 A 
HETATM   11  C   UNK N   1      35.213  15.186  10.186  0.00  0.00     0.187 A 
HETATM   12  C   UNK N   1      34.646  14.066  10.867  0.00  0.00     0.187 A 
HETATM   13  C   UNK N   1      35.968  14.621  12.883  0.00  0.00     0.195 A 
HETATM   14  C   UNK N   1      36.171  12.969  16.237  0.00  0.00     0.065 A 
HETATM   15  C   UNK N   1      36.226  13.420  15.570  0.00  0.00    -0.046 A 
HETATM   16  C   UNK N   1      35.125  12.128  15.345  0.00  0.00     0.046 A 
HETATM   17  C   UNK N   1      35.652  12.346  16.155  0.00  0.00     0.091 A 
HETATM   18  C   UNK N   1      34.395  12.032  13.865  0.00  0.00     0.171 A 
HETATM   19  C   UNK N   1      36.345  14.339  14.231  0.00  0.00     0.102 A 
HETATM   20  C   UNK N   1      35.775  13.218  14.904  0.00  0.00    -0.003 A 
HETATM   21  C   UNK N   1      35.821  13.667  14.222  0.00  0.00     0.110 A 
HETATM   22  C   UNK N   1      34.951  12.606  14.115  0.00  0.00     0.175 A 
HETATM   23  C   UNK N   1      35.237  12.512  14.926  0.00  0.00     0.030 A 
HETATM   24  N   UNK N   1      35.413  11.760  16.641  0.00  0.00    -0.411 N 
HETATM   25  N   UNK N   1      35.590  14.904  11.534  0.00  0.00    -0.406 N 
HETATM   26  O   UNK N   1      34.089  12.073  13.101  0.00  0.00    -0.389 OA
HETATM   27  O   UNK N   1      34.709  14.533  10.190  0.00  0.00    -0.388 OA
HETATM   28  O   UNK N   1      36.408  14.806  13.554  0.00  0.00    -0.347 OA
HETATM   29  O   UNK N   1      35.284  13.260  13.723  0.00  0.00    -0.338 OA
HETATM   30  H   UNK N   1      34.374  12.782  12.502  0.00  0.00     0.210 HD
ENDROOT
TORSDOF 7
ENDMDL
