REMARK  6 active torsions:
REMARK  status: ('A' for Active; 'I' for Inactive)
REMARK       I    between atoms: C_2  and  N_1 
REMARK    1  A    between atoms: C_4  and  N_1 
REMARK    2  A    between atoms: C_8  and  N_1 
REMARK    3  A    between atoms: C_14  and  C_2 
REMARK    4  A    between atoms: C_11  and  N_3 
REMARK    5  A    between atoms: C_12  and  C_11 
REMARK    6  A    between atoms: C_13  and  C_12 
ROOT
HETATM    1  N   UNK N   1      -0.065  -0.240  -1.079  0.00  0.00     0.088 N 
HETATM    2  C   UNK N   1       1.161   1.768   0.677  0.00  0.00     0.096 C 
HETATM    3  C   UNK N   1       1.938   1.044  -0.420  0.00  0.00     0.056 C 
HETATM    4  C   UNK N   1       0.039   0.856   1.200  0.00  0.00     0.056 C 
HETATM    5  C   UNK N   1      -0.824   0.234   0.085  0.00  0.00     0.274 C 
HETATM    6  C   UNK N   1       1.001   0.651  -1.548  0.00  0.00     0.274 C 
ENDROOT
BRANCH   2   7
HETATM    7  N   UNK N   1       0.896   3.196   0.364  0.00  0.00    -0.313 N 
HETATM    8  C   UNK N   1       2.004   4.015   0.176  0.00  0.00     0.224 C 
HETATM    9  O   UNK N   1       1.878   5.189  -0.131  0.00  0.00    -0.273 OA
BRANCH   8  10
HETATM   10  C   UNK N   1       3.413   3.498   0.303  0.00  0.00     0.099 C 
HETATM   11  C   UNK N   1       3.743   3.148   1.741  0.00  0.00     0.014 C 
ENDBRANCH   8  10
BRANCH   7  12
HETATM   12  C   UNK N   1      -0.457   3.751   0.271  0.00  0.00     0.037 A 
HETATM   13  C   UNK N   1      -1.593   2.929   0.219  0.00  0.00     0.033 A 
HETATM   14  C   UNK N   1      -2.884   3.453   0.113  0.00  0.00     0.044 A 
HETATM   15  C   UNK N   1      -3.071   4.831   0.065  0.00  0.00     0.116 A 
HETATM   16  C   UNK N   1      -1.968   5.681   0.123  0.00  0.00     0.044 A 
HETATM   17  F   UNK N   1      -4.320   5.343  -0.040  0.00  0.00    -0.206 F 
HETATM   18  C   UNK N   1      -0.680   5.146   0.222  0.00  0.00     0.033 A 
ENDBRANCH   7  12
ENDBRANCH   2   7
BRANCH   1  19
HETATM   19  C   UNK N   1       0.322  -1.646  -1.000  0.00  0.00     0.277 C 
BRANCH  19  20
HETATM   20  C   UNK N   1       1.206  -1.982   0.197  0.00  0.00     0.068 C 
BRANCH  20  21
HETATM   21  C   UNK N   1       1.378  -3.459   0.245  0.00  0.00    -0.057 A 
HETATM   22  C   UNK N   1       2.630  -4.020  -0.023  0.00  0.00     0.007 A 
HETATM   23  C   UNK N   1       2.785  -5.410  -0.031  0.00  0.00     0.001 A 
HETATM   24  C   UNK N   1       1.689  -6.238   0.229  0.00  0.00     0.000 A 
HETATM   25  C   UNK N   1       0.439  -5.679   0.505  0.00  0.00     0.001 A 
HETATM   26  C   UNK N   1       0.282  -4.290   0.511  0.00  0.00     0.007 A 
ENDBRANCH  20  21
ENDBRANCH  19  20
ENDBRANCH   1  19
TORSDOF 6
