REMARK  5 active torsions:
REMARK  status: ('A' for Active; 'I' for Inactive)
REMARK    1  A    between atoms: C_2  and  C_3 
REMARK       I    between atoms: C_3  and  N_5 
REMARK    2  A    between atoms: N_5  and  C_6 
REMARK    3  A    between atoms: N_5  and  C_19 
REMARK    4  A    between atoms: N_9  and  C_10 
REMARK    5  A    between atoms: C_10  and  C_11 
ROOT
HETATM    1  C   UNK N   1      -0.218   0.838   0.229  0.00  0.00     0.096 C 
HETATM    2  C   UNK N   1       0.593   0.223   1.362  0.00  0.00     0.045 C 
HETATM    3  C   UNK N   1       1.740  -0.598   0.779  0.00  0.00     0.119 C 
HETATM    4  N   UNK N   1       1.296  -1.521  -0.270  0.00  0.00    -0.408 N 
HETATM    5  C   UNK N   1       0.543  -0.921  -1.386  0.00  0.00     0.119 C 
HETATM    6  C   UNK N   1      -0.637  -0.069  -0.919  0.00  0.00     0.045 C 
ENDROOT
BRANCH   1   7
HETATM    7  N   UNK N   1      -0.145   2.279  -0.013  0.00  0.00    -0.313 N 
HETATM    8  C   UNK N   1      -1.332   2.983  -0.087  0.00  0.00     0.224 C 
HETATM    9  O   UNK N   1      -1.343   4.182  -0.319  0.00  0.00    -0.273 OA
BRANCH   8  10
HETATM   10  C   UNK N   1      -2.664   2.300   0.074  0.00  0.00     0.099 C 
HETATM   11  C   UNK N   1      -2.867   1.821   1.499  0.00  0.00     0.014 C 
ENDBRANCH   8  10
BRANCH   7  12
HETATM   12  C   UNK N   1       1.146   2.923  -0.175  0.00  0.00     0.037 A 
HETATM   13  C   UNK N   1       1.274   4.327  -0.228  0.00  0.00     0.030 A 
HETATM   14  C   UNK N   1       2.524   4.936  -0.372  0.00  0.00     0.002 A 
HETATM   15  C   UNK N   1       3.673   4.152  -0.470  0.00  0.00     0.000 A 
HETATM   16  C   UNK N   1       3.572   2.762  -0.425  0.00  0.00     0.002 A 
HETATM   17  C   UNK N   1       2.321   2.156  -0.277  0.00  0.00     0.030 A 
ENDBRANCH   7  12
ENDBRANCH   1   7
BRANCH   4  18
HETATM   18  C   UNK N   1       0.883  -2.840   0.232  0.00  0.00     0.155 C 
BRANCH  18  19
HETATM   19  C   UNK N   1      -0.594  -3.085   0.300  0.00  0.00    -0.041 A 
HETATM   20  C   UNK N   1      -1.141  -4.128  -0.456  0.00  0.00     0.009 A 
HETATM   21  C   UNK N   1      -2.507  -4.413  -0.379  0.00  0.00     0.001 A 
HETATM   22  C   UNK N   1      -3.332  -3.657   0.458  0.00  0.00     0.000 A 
HETATM   23  C   UNK N   1      -2.788  -2.620   1.223  0.00  0.00     0.001 A 
HETATM   24  C   UNK N   1      -1.420  -2.339   1.151  0.00  0.00     0.009 A 
ENDBRANCH  18  19
ENDBRANCH   4  18
TORSDOF 5
