MODEL 1
REMARK VINA RESULT:      -6.6      0.000      0.000
REMARK  6 active torsions:
REMARK  status: ('A' for Active; 'I' for Inactive)
REMARK       I    between atoms: C_2  and  N_1 
REMARK    1  A    between atoms: C_4  and  N_1 
REMARK    2  A    between atoms: C_8  and  N_1 
REMARK    3  A    between atoms: C_14  and  C_2 
REMARK    4  A    between atoms: C_11  and  N_3 
REMARK    5  A    between atoms: C_12  and  C_11 
REMARK    6  A    between atoms: C_13  and  C_12 
ROOT
HETATM    1  N   UNK N   1      28.254  24.399  -3.271  0.00  0.00     0.088 N 
HETATM    2  C   UNK N   1      27.867  24.683  -6.168  0.00  0.00     0.096 C 
HETATM    3  C   UNK N   1      27.129  23.639  -5.333  0.00  0.00     0.056 C 
HETATM    4  C   UNK N   1      29.236  24.975  -5.532  0.00  0.00     0.056 C 
HETATM    5  C   UNK N   1      29.167  25.271  -4.021  0.00  0.00     0.274 C 
HETATM    6  C   UNK N   1      26.960  24.137  -3.909  0.00  0.00     0.274 C 
ENDROOT
BRANCH   2   7
HETATM    7  N   UNK N   1      26.992  25.791  -6.630  0.00  0.00    -0.313 N 
HETATM    8  C   UNK N   1      26.367  25.627  -7.862  0.00  0.00     0.224 C 
HETATM    9  O   UNK N   1      25.595  26.466  -8.296  0.00  0.00    -0.273 OA
BRANCH   8  10
HETATM   10  C   UNK N   1      26.576  24.400  -8.709  0.00  0.00     0.099 C 
HETATM   11  C   UNK N   1      25.363  23.490  -8.668  0.00  0.00     0.014 C 
ENDBRANCH   8  10
BRANCH   7  12
HETATM   12  C   UNK N   1      26.792  27.021  -5.858  0.00  0.00     0.037 A 
HETATM   13  C   UNK N   1      27.577  28.165  -6.071  0.00  0.00     0.033 A 
HETATM   14  C   UNK N   1      27.401  29.334  -5.325  0.00  0.00     0.044 A 
HETATM   15  C   UNK N   1      26.417  29.389  -4.343  0.00  0.00     0.116 A 
HETATM   16  C   UNK N   1      25.611  28.276  -4.109  0.00  0.00     0.044 A 
HETATM   17  F   UNK N   1      26.245  30.518  -3.617  0.00  0.00    -0.206 F 
HETATM   18  C   UNK N   1      25.800  27.109  -4.855  0.00  0.00     0.033 A 
ENDBRANCH   7  12
ENDBRANCH   2   7
BRANCH   1  19
HETATM   19  C   UNK N   1      28.896  23.214  -2.710  0.00  0.00     0.277 C 
BRANCH  19  20
HETATM   20  C   UNK N   1      30.412  23.326  -2.586  0.00  0.00     0.068 C 
BRANCH  20  21
HETATM   21  C   UNK N   1      31.023  22.187  -3.323  0.00  0.00    -0.057 A 
HETATM   22  C   UNK N   1      32.306  21.750  -2.983  0.00  0.00     0.007 A 
HETATM   23  C   UNK N   1      32.906  20.714  -3.707  0.00  0.00     0.001 A 
HETATM   24  C   UNK N   1      32.222  20.116  -4.769  0.00  0.00     0.000 A 
HETATM   25  C   UNK N   1      30.936  20.546  -5.106  0.00  0.00     0.001 A 
HETATM   26  C   UNK N   1      30.337  21.583  -4.385  0.00  0.00     0.007 A 
ENDBRANCH  20  21
ENDBRANCH  19  20
ENDBRANCH   1  19
TORSDOF 6
ENDMDL
MODEL 2
REMARK VINA RESULT:      -6.4     14.611     16.475
REMARK  6 active torsions:
REMARK  status: ('A' for Active; 'I' for Inactive)
REMARK       I    between atoms: C_2  and  N_1 
REMARK    1  A    between atoms: C_4  and  N_1 
REMARK    2  A    between atoms: C_8  and  N_1 
REMARK    3  A    between atoms: C_14  and  C_2 
REMARK    4  A    between atoms: C_11  and  N_3 
REMARK    5  A    between atoms: C_12  and  C_11 
REMARK    6  A    between atoms: C_13  and  C_12 
ROOT
HETATM    1  N   UNK N   1      21.645  15.127   5.979  0.00  0.00     0.088 N 
HETATM    2  C   UNK N   1      20.009  16.858   4.264  0.00  0.00     0.096 C 
HETATM    3  C   UNK N   1      21.225  17.368   5.033  0.00  0.00     0.056 C 
HETATM    4  C   UNK N   1      19.367  15.690   5.031  0.00  0.00     0.056 C 
HETATM    5  C   UNK N   1      20.373  14.606   5.462  0.00  0.00     0.274 C 
HETATM    6  C   UNK N   1      22.226  16.244   5.227  0.00  0.00     0.274 C 
ENDROOT
BRANCH   2   7
HETATM    7  N   UNK N   1      20.235  16.772   2.798  0.00  0.00    -0.313 N 
HETATM    8  C   UNK N   1      20.075  17.944   2.066  0.00  0.00     0.224 C 
HETATM    9  O   UNK N   1      20.288  17.973   0.865  0.00  0.00    -0.273 OA
BRANCH   8  10
HETATM   10  C   UNK N   1      19.670  19.242   2.713  0.00  0.00     0.099 C 
HETATM   11  C   UNK N   1      20.769  20.280   2.599  0.00  0.00     0.014 C 
ENDBRANCH   8  10
BRANCH   7  12
HETATM   12  C   UNK N   1      20.591  15.522   2.122  0.00  0.00     0.037 A 
HETATM   13  C   UNK N   1      21.926  15.121   1.960  0.00  0.00     0.033 A 
HETATM   14  C   UNK N   1      22.271  13.938   1.301  0.00  0.00     0.044 A 
HETATM   15  C   UNK N   1      21.274  13.113   0.789  0.00  0.00     0.116 A 
HETATM   16  C   UNK N   1      19.935  13.473   0.938  0.00  0.00     0.044 A 
HETATM   17  F   UNK N   1      21.604  11.967   0.148  0.00  0.00    -0.206 F 
HETATM   18  C   UNK N   1      19.601  14.662   1.593  0.00  0.00     0.033 A 
ENDBRANCH   7  12
ENDBRANCH   2   7
BRANCH   1  19
HETATM   19  C   UNK N   1      21.666  15.305   7.428  0.00  0.00     0.277 C 
BRANCH  19  20
HETATM   20  C   UNK N   1      20.620  14.481   8.172  0.00  0.00     0.068 C 
BRANCH  20  21
HETATM   21  C   UNK N   1      21.326  13.625   9.163  0.00  0.00    -0.057 A 
HETATM   22  C   UNK N   1      20.616  13.079  10.237  0.00  0.00     0.007 A 
HETATM   23  C   UNK N   1      21.285  12.317  11.200  0.00  0.00     0.001 A 
HETATM   24  C   UNK N   1      22.661  12.100  11.089  0.00  0.00     0.000 A 
HETATM   25  C   UNK N   1      23.370  12.637  10.012  0.00  0.00     0.001 A 
HETATM   26  C   UNK N   1      22.704  13.401   9.050  0.00  0.00     0.007 A 
ENDBRANCH  20  21
ENDBRANCH  19  20
ENDBRANCH   1  19
TORSDOF 6
ENDMDL
MODEL 3
REMARK VINA RESULT:      -6.4     12.652     14.550
REMARK  6 active torsions:
REMARK  status: ('A' for Active; 'I' for Inactive)
REMARK       I    between atoms: C_2  and  N_1 
REMARK    1  A    between atoms: C_4  and  N_1 
REMARK    2  A    between atoms: C_8  and  N_1 
REMARK    3  A    between atoms: C_14  and  C_2 
REMARK    4  A    between atoms: C_11  and  N_3 
REMARK    5  A    between atoms: C_12  and  C_11 
REMARK    6  A    between atoms: C_13  and  C_12 
ROOT
HETATM    1  N   UNK N   1      22.604  16.758   6.314  0.00  0.00     0.088 N 
HETATM    2  C   UNK N   1      22.496  18.002   3.657  0.00  0.00     0.096 C 
HETATM    3  C   UNK N   1      21.325  18.039   4.636  0.00  0.00     0.056 C 
HETATM    4  C   UNK N   1      23.317  16.722   3.886  0.00  0.00     0.056 C 
HETATM    5  C   UNK N   1      23.687  16.479   5.362  0.00  0.00     0.274 C 
HETATM    6  C   UNK N   1      21.838  17.983   6.064  0.00  0.00     0.274 C 
ENDROOT
BRANCH   2   7
HETATM    7  N   UNK N   1      23.168  19.317   3.496  0.00  0.00    -0.313 N 
HETATM    8  C   UNK N   1      22.432  20.330   2.890  0.00  0.00     0.224 C 
HETATM    9  O   UNK N   1      22.889  21.454   2.760  0.00  0.00    -0.273 OA
BRANCH   8  10
HETATM   10  C   UNK N   1      21.026  20.112   2.395  0.00  0.00     0.099 C 
HETATM   11  C   UNK N   1      20.839  20.681   1.002  0.00  0.00     0.014 C 
ENDBRANCH   8  10
BRANCH   7  12
HETATM   12  C   UNK N   1      24.548  19.563   3.925  0.00  0.00     0.037 A 
HETATM   13  C   UNK N   1      25.629  19.460   3.038  0.00  0.00     0.033 A 
HETATM   14  C   UNK N   1      26.948  19.676   3.446  0.00  0.00     0.044 A 
HETATM   15  C   UNK N   1      27.217  20.014   4.769  0.00  0.00     0.116 A 
HETATM   16  C   UNK N   1      26.168  20.134   5.679  0.00  0.00     0.044 A 
HETATM   17  F   UNK N   1      28.493  20.222   5.170  0.00  0.00    -0.206 F 
HETATM   18  C   UNK N   1      24.853  19.909   5.261  0.00  0.00     0.033 A 
ENDBRANCH   7  12
ENDBRANCH   2   7
BRANCH   1  19
HETATM   19  C   UNK N   1      21.783  15.594   6.634  0.00  0.00     0.277 C 
BRANCH  19  20
HETATM   20  C   UNK N   1      22.578  14.306   6.830  0.00  0.00     0.068 C 
BRANCH  20  21
HETATM   21  C   UNK N   1      22.151  13.689   8.114  0.00  0.00    -0.057 A 
HETATM   22  C   UNK N   1      21.032  14.191   8.786  0.00  0.00     0.007 A 
HETATM   23  C   UNK N   1      20.658  13.649  10.020  0.00  0.00     0.001 A 
HETATM   24  C   UNK N   1      21.401  12.607  10.581  0.00  0.00     0.000 A 
HETATM   25  C   UNK N   1      22.514  12.098   9.907  0.00  0.00     0.001 A 
HETATM   26  C   UNK N   1      22.891  12.640   8.675  0.00  0.00     0.007 A 
ENDBRANCH  20  21
ENDBRANCH  19  20
ENDBRANCH   1  19
TORSDOF 6
ENDMDL
MODEL 4
REMARK VINA RESULT:      -6.4     16.996     20.353
REMARK  6 active torsions:
REMARK  status: ('A' for Active; 'I' for Inactive)
REMARK       I    between atoms: C_2  and  N_1 
REMARK    1  A    between atoms: C_4  and  N_1 
REMARK    2  A    between atoms: C_8  and  N_1 
REMARK    3  A    between atoms: C_14  and  C_2 
REMARK    4  A    between atoms: C_11  and  N_3 
REMARK    5  A    between atoms: C_12  and  C_11 
REMARK    6  A    between atoms: C_13  and  C_12 
ROOT
HETATM    1  N   UNK N   1      34.776  13.705  11.530  0.00  0.00     0.088 N 
HETATM    2  C   UNK N   1      36.215  14.563   9.119  0.00  0.00     0.096 C 
HETATM    3  C   UNK N   1      35.959  13.095   9.451  0.00  0.00     0.056 C 
HETATM    4  C   UNK N   1      36.324  15.373  10.422  0.00  0.00     0.056 C 
HETATM    5  C   UNK N   1      35.170  15.115  11.410  0.00  0.00     0.274 C 
HETATM    6  C   UNK N   1      34.688  12.961  10.270  0.00  0.00     0.274 C 
ENDROOT
BRANCH   2   7
HETATM    7  N   UNK N   1      35.398  15.059   7.982  0.00  0.00    -0.313 N 
HETATM    8  C   UNK N   1      35.775  14.646   6.709  0.00  0.00     0.224 C 
HETATM    9  O   UNK N   1      35.132  14.967   5.723  0.00  0.00    -0.273 OA
BRANCH   8  10
HETATM   10  C   UNK N   1      36.968  13.756   6.476  0.00  0.00     0.099 C 
HETATM   11  C   UNK N   1      37.946  14.389   5.506  0.00  0.00     0.014 C 
ENDBRANCH   8  10
BRANCH   7  12
HETATM   12  C   UNK N   1      34.255  15.959   8.158  0.00  0.00     0.037 A 
HETATM   13  C   UNK N   1      32.969  15.476   8.444  0.00  0.00     0.033 A 
HETATM   14  C   UNK N   1      31.872  16.329   8.595  0.00  0.00     0.044 A 
HETATM   15  C   UNK N   1      32.042  17.704   8.471  0.00  0.00     0.116 A 
HETATM   16  C   UNK N   1      33.306  18.224   8.196  0.00  0.00     0.044 A 
HETATM   17  F   UNK N   1      30.982  18.534   8.615  0.00  0.00    -0.206 F 
HETATM   18  C   UNK N   1      34.395  17.361   8.039  0.00  0.00     0.033 A 
ENDBRANCH   7  12
ENDBRANCH   2   7
BRANCH   1  19
HETATM   19  C   UNK N   1      35.463  12.989  12.602  0.00  0.00     0.277 C 
BRANCH  19  20
HETATM   20  C   UNK N   1      35.712  13.827  13.851  0.00  0.00     0.068 C 
BRANCH  20  21
HETATM   21  C   UNK N   1      35.806  12.905  15.016  0.00  0.00    -0.057 A 
HETATM   22  C   UNK N   1      36.497  11.697  14.889  0.00  0.00     0.007 A 
HETATM   23  C   UNK N   1      36.543  10.803  15.964  0.00  0.00     0.001 A 
HETATM   24  C   UNK N   1      35.899  11.118  17.164  0.00  0.00     0.000 A 
HETATM   25  C   UNK N   1      35.215  12.328  17.295  0.00  0.00     0.001 A 
HETATM   26  C   UNK N   1      35.166  13.221  16.221  0.00  0.00     0.007 A 
ENDBRANCH  20  21
ENDBRANCH  19  20
ENDBRANCH   1  19
TORSDOF 6
ENDMDL
MODEL 5
REMARK VINA RESULT:      -6.4      2.334      4.247
REMARK  6 active torsions:
REMARK  status: ('A' for Active; 'I' for Inactive)
REMARK       I    between atoms: C_2  and  N_1 
REMARK    1  A    between atoms: C_4  and  N_1 
REMARK    2  A    between atoms: C_8  and  N_1 
REMARK    3  A    between atoms: C_14  and  C_2 
REMARK    4  A    between atoms: C_11  and  N_3 
REMARK    5  A    between atoms: C_12  and  C_11 
REMARK    6  A    between atoms: C_13  and  C_12 
ROOT
HETATM    1  N   UNK N   1      29.678  23.984  -4.384  0.00  0.00     0.088 N 
HETATM    2  C   UNK N   1      27.333  25.680  -3.896  0.00  0.00     0.096 C 
HETATM    3  C   UNK N   1      28.724  26.250  -4.160  0.00  0.00     0.056 C 
HETATM    4  C   UNK N   1      27.460  24.309  -3.211  0.00  0.00     0.056 C 
HETATM    5  C   UNK N   1      28.438  23.351  -3.918  0.00  0.00     0.274 C 
HETATM    6  C   UNK N   1      29.522  25.292  -5.028  0.00  0.00     0.274 C 
ENDROOT
BRANCH   2   7
HETATM    7  N   UNK N   1      26.392  25.879  -5.028  0.00  0.00    -0.313 N 
HETATM    8  C   UNK N   1      25.552  26.986  -4.961  0.00  0.00     0.224 C 
HETATM    9  O   UNK N   1      24.782  27.252  -5.869  0.00  0.00    -0.273 OA
BRANCH   8  10
HETATM   10  C   UNK N   1      25.568  27.934  -3.790  0.00  0.00     0.099 C 
HETATM   11  C   UNK N   1      26.291  29.221  -4.135  0.00  0.00     0.014 C 
ENDBRANCH   8  10
BRANCH   7  12
HETATM   12  C   UNK N   1      26.313  24.961  -6.167  0.00  0.00     0.037 A 
HETATM   13  C   UNK N   1      25.727  23.691  -6.055  0.00  0.00     0.033 A 
HETATM   14  C   UNK N   1      25.665  22.804  -7.133  0.00  0.00     0.044 A 
HETATM   15  C   UNK N   1      26.187  23.178  -8.368  0.00  0.00     0.116 A 
HETATM   16  C   UNK N   1      26.769  24.435  -8.522  0.00  0.00     0.044 A 
HETATM   17  F   UNK N   1      26.131  22.321  -9.415  0.00  0.00    -0.206 F 
HETATM   18  C   UNK N   1      26.832  25.311  -7.434  0.00  0.00     0.033 A 
ENDBRANCH   7  12
ENDBRANCH   2   7
BRANCH   1  19
HETATM   19  C   UNK N   1      30.774  23.918  -3.421  0.00  0.00     0.277 C 
BRANCH  19  20
HETATM   20  C   UNK N   1      30.766  22.662  -2.554  0.00  0.00     0.068 C 
BRANCH  20  21
HETATM   21  C   UNK N   1      31.615  21.637  -3.218  0.00  0.00    -0.057 A 
HETATM   22  C   UNK N   1      31.056  20.795  -4.184  0.00  0.00     0.007 A 
HETATM   23  C   UNK N   1      31.836  19.794  -4.773  0.00  0.00     0.001 A 
HETATM   24  C   UNK N   1      33.173  19.636  -4.397  0.00  0.00     0.000 A 
HETATM   25  C   UNK N   1      33.735  20.482  -3.438  0.00  0.00     0.001 A 
HETATM   26  C   UNK N   1      32.956  21.481  -2.847  0.00  0.00     0.007 A 
ENDBRANCH  20  21
ENDBRANCH  19  20
ENDBRANCH   1  19
TORSDOF 6
ENDMDL
MODEL 6
REMARK VINA RESULT:      -6.2     12.241     15.416
REMARK  6 active torsions:
REMARK  status: ('A' for Active; 'I' for Inactive)
REMARK       I    between atoms: C_2  and  N_1 
REMARK    1  A    between atoms: C_4  and  N_1 
REMARK    2  A    between atoms: C_8  and  N_1 
REMARK    3  A    between atoms: C_14  and  C_2 
REMARK    4  A    between atoms: C_11  and  N_3 
REMARK    5  A    between atoms: C_12  and  C_11 
REMARK    6  A    between atoms: C_13  and  C_12 
ROOT
HETATM    1  N   UNK N   1      29.486  15.785   4.510  0.00  0.00     0.088 N 
HETATM    2  C   UNK N   1      31.912  17.026   5.602  0.00  0.00     0.096 C 
HETATM    3  C   UNK N   1      30.837  16.397   6.484  0.00  0.00     0.056 C 
HETATM    4  C   UNK N   1      31.269  17.571   4.316  0.00  0.00     0.056 C 
HETATM    5  C   UNK N   1      30.347  16.560   3.607  0.00  0.00     0.274 C 
HETATM    6  C   UNK N   1      30.130  15.286   5.729  0.00  0.00     0.274 C 
ENDROOT
BRANCH   2   7
HETATM    7  N   UNK N   1      33.166  16.231   5.546  0.00  0.00    -0.313 N 
HETATM    8  C   UNK N   1      34.193  16.615   6.401  0.00  0.00     0.224 C 
HETATM    9  O   UNK N   1      35.239  15.988   6.455  0.00  0.00    -0.273 OA
BRANCH   8  10
HETATM   10  C   UNK N   1      34.064  17.794   7.329  0.00  0.00     0.099 C 
HETATM   11  C   UNK N   1      33.898  17.346   8.768  0.00  0.00     0.014 C 
ENDBRANCH   8  10
BRANCH   7  12
HETATM   12  C   UNK N   1      33.350  15.102   4.630  0.00  0.00     0.037 A 
HETATM   13  C   UNK N   1      33.763  15.285   3.302  0.00  0.00     0.033 A 
HETATM   14  C   UNK N   1      33.923  14.213   2.420  0.00  0.00     0.044 A 
HETATM   15  C   UNK N   1      33.679  12.914   2.856  0.00  0.00     0.116 A 
HETATM   16  C   UNK N   1      33.276  12.690   4.171  0.00  0.00     0.044 A 
HETATM   17  F   UNK N   1      33.831  11.873   2.004  0.00  0.00    -0.206 F 
HETATM   18  C   UNK N   1      33.112  13.771   5.043  0.00  0.00     0.033 A 
ENDBRANCH   7  12
ENDBRANCH   2   7
BRANCH   1  19
HETATM   19  C   UNK N   1      28.171  16.382   4.729  0.00  0.00     0.277 C 
BRANCH  19  20
HETATM   20  C   UNK N   1      27.902  17.623   3.884  0.00  0.00     0.068 C 
BRANCH  20  21
HETATM   21  C   UNK N   1      27.652  18.765   4.805  0.00  0.00    -0.057 A 
HETATM   22  C   UNK N   1      27.147  19.966   4.298  0.00  0.00     0.007 A 
HETATM   23  C   UNK N   1      26.960  21.059   5.150  0.00  0.00     0.001 A 
HETATM   24  C   UNK N   1      27.276  20.951   6.508  0.00  0.00     0.000 A 
HETATM   25  C   UNK N   1      27.773  19.749   7.017  0.00  0.00     0.001 A 
HETATM   26  C   UNK N   1      27.963  18.656   6.166  0.00  0.00     0.007 A 
ENDBRANCH  20  21
ENDBRANCH  19  20
ENDBRANCH   1  19
TORSDOF 6
ENDMDL
MODEL 7
REMARK VINA RESULT:      -6.2     11.031     13.517
REMARK  6 active torsions:
REMARK  status: ('A' for Active; 'I' for Inactive)
REMARK       I    between atoms: C_2  and  N_1 
REMARK    1  A    between atoms: C_4  and  N_1 
REMARK    2  A    between atoms: C_8  and  N_1 
REMARK    3  A    between atoms: C_14  and  C_2 
REMARK    4  A    between atoms: C_11  and  N_3 
REMARK    5  A    between atoms: C_12  and  C_11 
REMARK    6  A    between atoms: C_13  and  C_12 
ROOT
HETATM    1  N   UNK N   1      30.399  16.531   3.627  0.00  0.00     0.088 N 
HETATM    2  C   UNK N   1      29.090  16.748   6.245  0.00  0.00     0.096 C 
HETATM    3  C   UNK N   1      30.561  17.093   6.025  0.00  0.00     0.056 C 
HETATM    4  C   UNK N   1      28.662  15.659   5.247  0.00  0.00     0.056 C 
HETATM    5  C   UNK N   1      29.054  15.966   3.789  0.00  0.00     0.274 C 
HETATM    6  C   UNK N   1      30.777  17.563   4.598  0.00  0.00     0.274 C 
ENDROOT
BRANCH   2   7
HETATM    7  N   UNK N   1      28.236  17.941   6.480  0.00  0.00    -0.313 N 
HETATM    8  C   UNK N   1      28.188  18.434   7.779  0.00  0.00     0.224 C 
HETATM    9  O   UNK N   1      27.550  19.437   8.052  0.00  0.00    -0.273 OA
BRANCH   8  10
HETATM   10  C   UNK N   1      28.943  17.786   8.910  0.00  0.00     0.099 C 
HETATM   11  C   UNK N   1      30.050  18.688   9.421  0.00  0.00     0.014 C 
ENDBRANCH   8  10
BRANCH   7  12
HETATM   12  C   UNK N   1      27.452  18.578   5.419  0.00  0.00     0.037 A 
HETATM   13  C   UNK N   1      27.921  19.706   4.728  0.00  0.00     0.033 A 
HETATM   14  C   UNK N   1      27.170  20.328   3.727  0.00  0.00     0.044 A 
HETATM   15  C   UNK N   1      25.920  19.823   3.383  0.00  0.00     0.116 A 
HETATM   16  C   UNK N   1      25.423  18.699   4.041  0.00  0.00     0.044 A 
HETATM   17  F   UNK N   1      25.188  20.424   2.415  0.00  0.00    -0.206 F 
HETATM   18  C   UNK N   1      26.180  18.089   5.046  0.00  0.00     0.033 A 
ENDBRANCH   7  12
ENDBRANCH   2   7
BRANCH   1  19
HETATM   19  C   UNK N   1      31.435  15.530   3.384  0.00  0.00     0.277 C 
BRANCH  19  20
HETATM   20  C   UNK N   1      32.821  16.117   3.136  0.00  0.00     0.068 C 
BRANCH  20  21
HETATM   21  C   UNK N   1      33.774  15.468   4.076  0.00  0.00    -0.057 A 
HETATM   22  C   UNK N   1      34.041  16.063   5.313  0.00  0.00     0.007 A 
HETATM   23  C   UNK N   1      34.975  15.485   6.179  0.00  0.00     0.001 A 
HETATM   24  C   UNK N   1      35.640  14.312   5.809  0.00  0.00     0.000 A 
HETATM   25  C   UNK N   1      35.368  13.712   4.577  0.00  0.00     0.001 A 
HETATM   26  C   UNK N   1      34.437  14.290   3.710  0.00  0.00     0.007 A 
ENDBRANCH  20  21
ENDBRANCH  19  20
ENDBRANCH   1  19
TORSDOF 6
ENDMDL
MODEL 8
REMARK VINA RESULT:      -6.1      4.059      8.188
REMARK  6 active torsions:
REMARK  status: ('A' for Active; 'I' for Inactive)
REMARK       I    between atoms: C_2  and  N_1 
REMARK    1  A    between atoms: C_4  and  N_1 
REMARK    2  A    between atoms: C_8  and  N_1 
REMARK    3  A    between atoms: C_14  and  C_2 
REMARK    4  A    between atoms: C_11  and  N_3 
REMARK    5  A    between atoms: C_12  and  C_11 
REMARK    6  A    between atoms: C_13  and  C_12 
ROOT
HETATM    1  N   UNK N   1      29.174  23.262  -4.596  0.00  0.00     0.088 N 
HETATM    2  C   UNK N   1      31.985  22.425  -4.723  0.00  0.00     0.096 C 
HETATM    3  C   UNK N   1      31.145  22.311  -3.453  0.00  0.00     0.056 C 
HETATM    4  C   UNK N   1      31.485  23.611  -5.565  0.00  0.00     0.056 C 
HETATM    5  C   UNK N   1      29.960  23.616  -5.784  0.00  0.00     0.274 C 
HETATM    6  C   UNK N   1      29.681  22.131  -3.813  0.00  0.00     0.274 C 
ENDROOT
BRANCH   2   7
HETATM    7  N   UNK N   1      32.274  21.112  -5.356  0.00  0.00    -0.313 N 
HETATM    8  C   UNK N   1      33.286  20.348  -4.784  0.00  0.00     0.224 C 
HETATM    9  O   UNK N   1      33.557  19.238  -5.210  0.00  0.00    -0.273 OA
BRANCH   8  10
HETATM   10  C   UNK N   1      34.075  20.826  -3.594  0.00  0.00     0.099 C 
HETATM   11  C   UNK N   1      35.503  21.160  -3.978  0.00  0.00     0.014 C 
ENDBRANCH   8  10
BRANCH   7  12
HETATM   12  C   UNK N   1      31.560  20.626  -6.539  0.00  0.00     0.037 A 
HETATM   13  C   UNK N   1      30.340  19.939  -6.438  0.00  0.00     0.033 A 
HETATM   14  C   UNK N   1      29.664  19.459  -7.562  0.00  0.00     0.044 A 
HETATM   15  C   UNK N   1      30.196  19.664  -8.832  0.00  0.00     0.116 A 
HETATM   16  C   UNK N   1      31.401  20.350  -8.974  0.00  0.00     0.044 A 
HETATM   17  F   UNK N   1      29.545  19.198  -9.924  0.00  0.00    -0.206 F 
HETATM   18  C   UNK N   1      32.073  20.821  -7.842  0.00  0.00     0.033 A 
ENDBRANCH   7  12
ENDBRANCH   2   7
BRANCH   1  19
HETATM   19  C   UNK N   1      28.766  24.411  -3.792  0.00  0.00     0.277 C 
BRANCH  19  20
HETATM   20  C   UNK N   1      27.343  24.318  -3.251  0.00  0.00     0.068 C 
BRANCH  20  21
HETATM   21  C   UNK N   1      26.525  25.367  -3.917  0.00  0.00    -0.057 A 
HETATM   22  C   UNK N   1      25.941  25.105  -5.160  0.00  0.00     0.007 A 
HETATM   23  C   UNK N   1      25.215  26.105  -5.815  0.00  0.00     0.001 A 
HETATM   24  C   UNK N   1      25.074  27.366  -5.228  0.00  0.00     0.000 A 
HETATM   25  C   UNK N   1      25.650  27.628  -3.983  0.00  0.00     0.001 A 
HETATM   26  C   UNK N   1      26.378  26.630  -3.328  0.00  0.00     0.007 A 
ENDBRANCH  20  21
ENDBRANCH  19  20
ENDBRANCH   1  19
TORSDOF 6
ENDMDL
MODEL 9
REMARK VINA RESULT:      -6.1     12.288     14.471
REMARK  6 active torsions:
REMARK  status: ('A' for Active; 'I' for Inactive)
REMARK       I    between atoms: C_2  and  N_1 
REMARK    1  A    between atoms: C_4  and  N_1 
REMARK    2  A    between atoms: C_8  and  N_1 
REMARK    3  A    between atoms: C_14  and  C_2 
REMARK    4  A    between atoms: C_11  and  N_3 
REMARK    5  A    between atoms: C_12  and  C_11 
REMARK    6  A    between atoms: C_13  and  C_12 
ROOT
HETATM    1  N   UNK N   1      24.346  16.310   4.166  0.00  0.00     0.088 N 
HETATM    2  C   UNK N   1      22.033  16.537   5.960  0.00  0.00     0.096 C 
HETATM    3  C   UNK N   1      22.818  17.750   5.466  0.00  0.00     0.056 C 
HETATM    4  C   UNK N   1      22.967  15.318   6.042  0.00  0.00     0.056 C 
HETATM    5  C   UNK N   1      23.798  15.087   4.765  0.00  0.00     0.274 C 
HETATM    6  C   UNK N   1      23.431  17.455   4.109  0.00  0.00     0.274 C 
ENDROOT
BRANCH   2   7
HETATM    7  N   UNK N   1      20.684  16.421   5.346  0.00  0.00    -0.313 N 
HETATM    8  C   UNK N   1      19.627  16.132   6.202  0.00  0.00     0.224 C 
HETATM    9  O   UNK N   1      18.480  16.066   5.790  0.00  0.00    -0.273 OA
BRANCH   8  10
HETATM   10  C   UNK N   1      19.827  15.921   7.680  0.00  0.00     0.099 C 
HETATM   11  C   UNK N   1      19.406  17.143   8.472  0.00  0.00     0.014 C 
ENDBRANCH   8  10
BRANCH   7  12
HETATM   12  C   UNK N   1      20.450  16.578   3.909  0.00  0.00     0.037 A 
HETATM   13  C   UNK N   1      20.655  15.525   3.005  0.00  0.00     0.033 A 
HETATM   14  C   UNK N   1      20.449  15.675   1.631  0.00  0.00     0.044 A 
HETATM   15  C   UNK N   1      20.018  16.897   1.124  0.00  0.00     0.116 A 
HETATM   16  C   UNK N   1      19.794  17.965   1.991  0.00  0.00     0.044 A 
HETATM   17  F   UNK N   1      19.820  17.047  -0.207  0.00  0.00    -0.206 F 
HETATM   18  C   UNK N   1      20.010  17.806   3.363  0.00  0.00     0.033 A 
ENDBRANCH   7  12
ENDBRANCH   2   7
BRANCH   1  19
HETATM   19  C   UNK N   1      25.691  16.643   4.627  0.00  0.00     0.277 C 
BRANCH  19  20
HETATM   20  C   UNK N   1      26.360  17.765   3.840  0.00  0.00     0.068 C 
BRANCH  20  21
HETATM   21  C   UNK N   1      26.739  18.839   4.797  0.00  0.00    -0.057 A 
HETATM   22  C   UNK N   1      26.422  20.169   4.508  0.00  0.00     0.007 A 
HETATM   23  C   UNK N   1      26.823  21.188   5.378  0.00  0.00     0.001 A 
HETATM   24  C   UNK N   1      27.540  20.877   6.536  0.00  0.00     0.000 A 
HETATM   25  C   UNK N   1      27.852  19.547   6.831  0.00  0.00     0.001 A 
HETATM   26  C   UNK N   1      27.454  18.528   5.961  0.00  0.00     0.007 A 
ENDBRANCH  20  21
ENDBRANCH  19  20
ENDBRANCH   1  19
TORSDOF 6
ENDMDL
