MODEL 1
REMARK VINA RESULT:      -6.9      0.000      0.000
REMARK  8 active torsions:
REMARK  status: ('A' for Active; 'I' for Inactive)
REMARK    1  A    between atoms: O_1  and  C_12 
REMARK    2  A    between atoms: N_4  and  C_13 
REMARK    3  A    between atoms: C_6  and  N_5 
REMARK    4  A    between atoms: N_5  and  C_14 
REMARK       I    between atoms: N_5  and  C_15 
REMARK    5  A    between atoms: C_6  and  C_12 
REMARK    6  A    between atoms: C_13  and  C_16 
REMARK    7  A    between atoms: C_15  and  C_17 
REMARK    8  A    between atoms: C_16  and  C_20 
ROOT
HETATM    1  N   UNK N   1      23.528  13.871   5.936  0.00  0.00     0.089 N 
HETATM    2  C   UNK N   1      20.983  15.524   5.851  0.00  0.00     0.134 C 
HETATM    3  C   UNK N   1      21.082  14.016   5.448  0.00  0.00     0.049 C 
HETATM    4  C   UNK N   1      22.091  15.756   6.905  0.00  0.00     0.073 C 
HETATM    5  C   UNK N   1      22.472  13.630   4.943  0.00  0.00     0.279 C 
HETATM    6  C   UNK N   1      23.489  15.231   6.502  0.00  0.00     0.275 C 
HETATM    7  C   UNK N   1      20.688  13.056   6.591  0.00  0.00     0.015 C 
ENDROOT
BRANCH   2   8
HETATM    8  N   UNK N   1      21.101  16.469   4.664  0.00  0.00    -0.298 N 
HETATM    9  C   UNK N   1      21.269  17.853   4.782  0.00  0.00     0.225 C 
HETATM   10  O   UNK N   1      21.396  18.395   5.870  0.00  0.00    -0.273 OA
BRANCH   8  11
HETATM   11  C   UNK N   1      21.147  15.965   3.304  0.00  0.00     0.038 A 
HETATM   12  C   UNK N   1      22.378  15.649   2.695  0.00  0.00     0.030 A 
HETATM   13  C   UNK N   1      22.422  14.920   1.500  0.00  0.00     0.002 A 
HETATM   14  C   UNK N   1      21.240  14.470   0.910  0.00  0.00     0.000 A 
HETATM   15  C   UNK N   1      20.013  14.750   1.512  0.00  0.00     0.002 A 
HETATM   16  C   UNK N   1      19.973  15.469   2.711  0.00  0.00     0.030 A 
ENDBRANCH   8  11
BRANCH   9  17
HETATM   17  C   UNK N   1      21.343  18.757   3.579  0.00  0.00     0.099 C 
HETATM   18  C   UNK N   1      22.688  19.446   3.475  0.00  0.00     0.014 C 
ENDBRANCH   9  17
ENDBRANCH   2   8
BRANCH   2  19
HETATM   19  C   UNK N   1      19.615  15.618   6.549  0.00  0.00     0.288 C 
HETATM   20  O   UNK N   1      18.593  15.553   5.873  0.00  0.00    -0.262 OA
BRANCH  19  21
HETATM   21  O   UNK N   1      19.523  15.699   7.901  0.00  0.00    -0.324 OA
HETATM   22  C   UNK N   1      18.928  16.774   8.523  0.00  0.00     0.213 C 
ENDBRANCH  19  21
ENDBRANCH   2  19
BRANCH   1  23
HETATM   23  C   UNK N   1      23.562  12.823   6.957  0.00  0.00     0.277 C 
BRANCH  23  24
HETATM   24  C   UNK N   1      24.481  13.189   8.118  0.00  0.00     0.068 C 
BRANCH  24  25
HETATM   25  C   UNK N   1      23.895  12.774   9.419  0.00  0.00    -0.057 A 
HETATM   26  C   UNK N   1      24.717  12.328  10.460  0.00  0.00     0.007 A 
HETATM   27  C   UNK N   1      24.154  11.963  11.687  0.00  0.00     0.001 A 
HETATM   28  C   UNK N   1      22.770  12.041  11.872  0.00  0.00     0.000 A 
HETATM   29  C   UNK N   1      21.949  12.489  10.831  0.00  0.00     0.001 A 
HETATM   30  C   UNK N   1      22.513  12.860   9.609  0.00  0.00     0.007 A 
ENDBRANCH  24  25
ENDBRANCH  23  24
ENDBRANCH   1  23
TORSDOF 8
ENDMDL
MODEL 2
REMARK VINA RESULT:      -6.6     11.808     15.844
REMARK  8 active torsions:
REMARK  status: ('A' for Active; 'I' for Inactive)
REMARK    1  A    between atoms: O_1  and  C_12 
REMARK    2  A    between atoms: N_4  and  C_13 
REMARK    3  A    between atoms: C_6  and  N_5 
REMARK    4  A    between atoms: N_5  and  C_14 
REMARK       I    between atoms: N_5  and  C_15 
REMARK    5  A    between atoms: C_6  and  C_12 
REMARK    6  A    between atoms: C_13  and  C_16 
REMARK    7  A    between atoms: C_15  and  C_17 
REMARK    8  A    between atoms: C_16  and  C_20 
ROOT
HETATM    1  N   UNK N   1      34.214  15.990   9.990  0.00  0.00     0.089 N 
HETATM    2  C   UNK N   1      36.071  13.589  10.036  0.00  0.00     0.134 C 
HETATM    3  C   UNK N   1      34.995  13.864   8.935  0.00  0.00     0.049 C 
HETATM    4  C   UNK N   1      36.491  14.976  10.577  0.00  0.00     0.073 C 
HETATM    5  C   UNK N   1      33.813  14.680   9.456  0.00  0.00     0.279 C 
HETATM    6  C   UNK N   1      35.316  15.903  10.965  0.00  0.00     0.275 C 
HETATM    7  C   UNK N   1      35.570  14.569   7.688  0.00  0.00     0.015 C 
ENDROOT
BRANCH   2   8
HETATM    8  N   UNK N   1      35.577  12.660  11.136  0.00  0.00    -0.298 N 
HETATM    9  C   UNK N   1      34.693  11.597  10.921  0.00  0.00     0.225 C 
HETATM   10  O   UNK N   1      34.302  11.302   9.801  0.00  0.00    -0.273 OA
BRANCH   8  11
HETATM   11  C   UNK N   1      36.083  12.766  12.492  0.00  0.00     0.038 A 
HETATM   12  C   UNK N   1      35.303  13.359  13.505  0.00  0.00     0.030 A 
HETATM   13  C   UNK N   1      35.659  13.228  14.854  0.00  0.00     0.002 A 
HETATM   14  C   UNK N   1      36.781  12.481  15.213  0.00  0.00     0.000 A 
HETATM   15  C   UNK N   1      37.550  11.864  14.226  0.00  0.00     0.002 A 
HETATM   16  C   UNK N   1      37.186  11.986  12.882  0.00  0.00     0.030 A 
ENDBRANCH   8  11
BRANCH   9  17
HETATM   17  C   UNK N   1      34.199  10.726  12.047  0.00  0.00     0.099 C 
HETATM   18  C   UNK N   1      34.713   9.306  11.926  0.00  0.00     0.014 C 
ENDBRANCH   9  17
ENDBRANCH   2   8
BRANCH   2  19
HETATM   19  C   UNK N   1      37.249  12.995   9.244  0.00  0.00     0.288 C 
HETATM   20  O   UNK N   1      37.073  11.973   8.587  0.00  0.00    -0.262 OA
BRANCH  19  21
HETATM   21  O   UNK N   1      38.453  13.620   9.205  0.00  0.00    -0.324 OA
HETATM   22  C   UNK N   1      39.172  13.734   8.036  0.00  0.00     0.213 C 
ENDBRANCH  19  21
ENDBRANCH   2  19
BRANCH   1  23
HETATM   23  C   UNK N   1      34.466  16.958   8.922  0.00  0.00     0.277 C 
BRANCH  23  24
HETATM   24  C   UNK N   1      33.220  17.771   8.586  0.00  0.00     0.068 C 
BRANCH  24  25
HETATM   25  C   UNK N   1      32.748  17.484   7.207  0.00  0.00    -0.057 A 
HETATM   26  C   UNK N   1      31.408  17.154   6.968  0.00  0.00     0.007 A 
HETATM   27  C   UNK N   1      30.973  16.909   5.661  0.00  0.00     0.001 A 
HETATM   28  C   UNK N   1      31.875  16.993   4.596  0.00  0.00     0.000 A 
HETATM   29  C   UNK N   1      33.212  17.325   4.836  0.00  0.00     0.001 A 
HETATM   30  C   UNK N   1      33.646  17.576   6.139  0.00  0.00     0.007 A 
ENDBRANCH  24  25
ENDBRANCH  23  24
ENDBRANCH   1  23
TORSDOF 8
ENDMDL
MODEL 3
REMARK VINA RESULT:      -6.6      3.249      6.008
REMARK  8 active torsions:
REMARK  status: ('A' for Active; 'I' for Inactive)
REMARK    1  A    between atoms: O_1  and  C_12 
REMARK    2  A    between atoms: N_4  and  C_13 
REMARK    3  A    between atoms: C_6  and  N_5 
REMARK    4  A    between atoms: N_5  and  C_14 
REMARK       I    between atoms: N_5  and  C_15 
REMARK    5  A    between atoms: C_6  and  C_12 
REMARK    6  A    between atoms: C_13  and  C_16 
REMARK    7  A    between atoms: C_15  and  C_17 
REMARK    8  A    between atoms: C_16  and  C_20 
ROOT
HETATM    1  N   UNK N   1      24.666  16.484   4.508  0.00  0.00     0.089 N 
HETATM    2  C   UNK N   1      21.775  17.405   4.425  0.00  0.00     0.134 C 
HETATM    3  C   UNK N   1      22.989  18.310   4.817  0.00  0.00     0.049 C 
HETATM    4  C   UNK N   1      22.336  16.336   3.458  0.00  0.00     0.073 C 
HETATM    5  C   UNK N   1      24.147  17.515   5.418  0.00  0.00     0.279 C 
HETATM    6  C   UNK N   1      23.610  15.617   3.956  0.00  0.00     0.275 C 
HETATM    7  C   UNK N   1      23.525  19.149   3.638  0.00  0.00     0.015 C 
ENDROOT
BRANCH   2   8
HETATM    8  N   UNK N   1      21.074  16.791   5.629  0.00  0.00    -0.298 N 
HETATM    9  C   UNK N   1      20.891  17.454   6.848  0.00  0.00     0.225 C 
HETATM   10  O   UNK N   1      21.236  18.616   7.006  0.00  0.00    -0.273 OA
BRANCH   8  11
HETATM   11  C   UNK N   1      20.451  15.482   5.549  0.00  0.00     0.038 A 
HETATM   12  C   UNK N   1      19.307  15.279   4.752  0.00  0.00     0.030 A 
HETATM   13  C   UNK N   1      18.860  13.985   4.455  0.00  0.00     0.002 A 
HETATM   14  C   UNK N   1      19.564  12.876   4.924  0.00  0.00     0.000 A 
HETATM   15  C   UNK N   1      20.714  13.057   5.692  0.00  0.00     0.002 A 
HETATM   16  C   UNK N   1      21.165  14.350   5.977  0.00  0.00     0.030 A 
ENDBRANCH   8  11
BRANCH   9  17
HETATM   17  C   UNK N   1      20.225  16.793   8.027  0.00  0.00     0.099 C 
HETATM   18  C   UNK N   1      19.513  17.800   8.907  0.00  0.00     0.014 C 
ENDBRANCH   9  17
ENDBRANCH   2   8
BRANCH   2  19
HETATM   19  C   UNK N   1      20.863  18.356   3.630  0.00  0.00     0.288 C 
HETATM   20  O   UNK N   1      20.366  17.966   2.577  0.00  0.00    -0.262 OA
BRANCH  19  21
HETATM   21  O   UNK N   1      20.544  19.584   4.110  0.00  0.00    -0.324 OA
HETATM   22  C   UNK N   1      20.239  20.632   3.270  0.00  0.00     0.213 C 
ENDBRANCH  19  21
ENDBRANCH   2  19
BRANCH   1  23
HETATM   23  C   UNK N   1      25.537  17.057   3.480  0.00  0.00     0.277 C 
BRANCH  23  24
HETATM   24  C   UNK N   1      26.984  17.153   3.949  0.00  0.00     0.068 C 
BRANCH  24  25
HETATM   25  C   UNK N   1      27.216  18.397   4.726  0.00  0.00    -0.057 A 
HETATM   26  C   UNK N   1      26.999  19.651   4.142  0.00  0.00     0.007 A 
HETATM   27  C   UNK N   1      27.199  20.815   4.893  0.00  0.00     0.001 A 
HETATM   28  C   UNK N   1      27.618  20.724   6.224  0.00  0.00     0.000 A 
HETATM   29  C   UNK N   1      27.833  19.471   6.807  0.00  0.00     0.001 A 
HETATM   30  C   UNK N   1      27.626  18.310   6.059  0.00  0.00     0.007 A 
ENDBRANCH  24  25
ENDBRANCH  23  24
ENDBRANCH   1  23
TORSDOF 8
ENDMDL
MODEL 4
REMARK VINA RESULT:      -6.6     15.277     17.120
REMARK  8 active torsions:
REMARK  status: ('A' for Active; 'I' for Inactive)
REMARK    1  A    between atoms: O_1  and  C_12 
REMARK    2  A    between atoms: N_4  and  C_13 
REMARK    3  A    between atoms: C_6  and  N_5 
REMARK    4  A    between atoms: N_5  and  C_14 
REMARK       I    between atoms: N_5  and  C_15 
REMARK    5  A    between atoms: C_6  and  C_12 
REMARK    6  A    between atoms: C_13  and  C_16 
REMARK    7  A    between atoms: C_15  and  C_17 
REMARK    8  A    between atoms: C_16  and  C_20 
ROOT
HETATM    1  N   UNK N   1      29.891  23.342  -5.367  0.00  0.00     0.089 N 
HETATM    2  C   UNK N   1      27.273  24.609  -6.240  0.00  0.00     0.134 C 
HETATM    3  C   UNK N   1      28.243  23.824  -7.183  0.00  0.00     0.049 C 
HETATM    4  C   UNK N   1      27.480  24.014  -4.827  0.00  0.00     0.073 C 
HETATM    5  C   UNK N   1      29.698  23.888  -6.719  0.00  0.00     0.279 C 
HETATM    6  C   UNK N   1      28.956  23.907  -4.378  0.00  0.00     0.275 C 
HETATM    7  C   UNK N   1      27.847  22.344  -7.363  0.00  0.00     0.015 C 
ENDROOT
BRANCH   2   8
HETATM    8  N   UNK N   1      27.494  26.115  -6.275  0.00  0.00    -0.298 N 
HETATM    9  C   UNK N   1      27.874  26.822  -7.421  0.00  0.00     0.225 C 
HETATM   10  O   UNK N   1      27.996  26.270  -8.506  0.00  0.00    -0.273 OA
BRANCH   8  11
HETATM   11  C   UNK N   1      27.221  26.942  -5.114  0.00  0.00     0.038 A 
HETATM   12  C   UNK N   1      28.276  27.489  -4.357  0.00  0.00     0.030 A 
HETATM   13  C   UNK N   1      28.035  28.493  -3.410  0.00  0.00     0.002 A 
HETATM   14  C   UNK N   1      26.743  28.985  -3.225  0.00  0.00     0.000 A 
HETATM   15  C   UNK N   1      25.690  28.475  -3.983  0.00  0.00     0.002 A 
HETATM   16  C   UNK N   1      25.935  27.481  -4.936  0.00  0.00     0.030 A 
ENDBRANCH   8  11
BRANCH   9  17
HETATM   17  C   UNK N   1      28.119  28.308  -7.402  0.00  0.00     0.099 C 
HETATM   18  C   UNK N   1      29.198  28.713  -8.386  0.00  0.00     0.014 C 
ENDBRANCH   9  17
ENDBRANCH   2   8
BRANCH   2  19
HETATM   19  C   UNK N   1      25.878  24.203  -6.744  0.00  0.00     0.288 C 
HETATM   20  O   UNK N   1      25.225  23.385  -6.102  0.00  0.00    -0.262 OA
BRANCH  19  21
HETATM   21  O   UNK N   1      25.332  24.786  -7.841  0.00  0.00    -0.324 OA
HETATM   22  C   UNK N   1      25.187  24.101  -9.027  0.00  0.00     0.213 C 
ENDBRANCH  19  21
ENDBRANCH   2  19
BRANCH   1  23
HETATM   23  C   UNK N   1      29.911  21.879  -5.371  0.00  0.00     0.277 C 
BRANCH  23  24
HETATM   24  C   UNK N   1      30.257  21.312  -3.998  0.00  0.00     0.068 C 
BRANCH  24  25
HETATM   25  C   UNK N   1      31.663  20.835  -3.953  0.00  0.00    -0.057 A 
HETATM   26  C   UNK N   1      32.119  19.873  -4.862  0.00  0.00     0.007 A 
HETATM   27  C   UNK N   1      33.452  19.451  -4.822  0.00  0.00     0.001 A 
HETATM   28  C   UNK N   1      34.327  19.988  -3.873  0.00  0.00     0.000 A 
HETATM   29  C   UNK N   1      33.871  20.949  -2.965  0.00  0.00     0.001 A 
HETATM   30  C   UNK N   1      32.542  21.376  -3.010  0.00  0.00     0.007 A 
ENDBRANCH  24  25
ENDBRANCH  23  24
ENDBRANCH   1  23
TORSDOF 8
ENDMDL
MODEL 5
REMARK VINA RESULT:      -6.5      4.692      6.771
REMARK  8 active torsions:
REMARK  status: ('A' for Active; 'I' for Inactive)
REMARK    1  A    between atoms: O_1  and  C_12 
REMARK    2  A    between atoms: N_4  and  C_13 
REMARK    3  A    between atoms: C_6  and  N_5 
REMARK    4  A    between atoms: N_5  and  C_14 
REMARK       I    between atoms: N_5  and  C_15 
REMARK    5  A    between atoms: C_6  and  C_12 
REMARK    6  A    between atoms: C_13  and  C_16 
REMARK    7  A    between atoms: C_15  and  C_17 
REMARK    8  A    between atoms: C_16  and  C_20 
ROOT
HETATM    1  N   UNK N   1      24.745  15.322   6.779  0.00  0.00     0.089 N 
HETATM    2  C   UNK N   1      26.866  16.021   4.722  0.00  0.00     0.134 C 
HETATM    3  C   UNK N   1      26.996  14.882   5.786  0.00  0.00     0.049 C 
HETATM    4  C   UNK N   1      25.352  16.170   4.441  0.00  0.00     0.073 C 
HETATM    5  C   UNK N   1      26.181  15.159   7.049  0.00  0.00     0.279 C 
HETATM    6  C   UNK N   1      24.467  16.289   5.703  0.00  0.00     0.275 C 
HETATM    7  C   UNK N   1      26.601  13.494   5.239  0.00  0.00     0.015 C 
ENDROOT
BRANCH   2   8
HETATM    8  N   UNK N   1      27.507  17.328   5.166  0.00  0.00    -0.298 N 
HETATM    9  C   UNK N   1      27.290  18.558   4.533  0.00  0.00     0.225 C 
HETATM   10  O   UNK N   1      26.507  18.673   3.601  0.00  0.00    -0.273 OA
BRANCH   8  11
HETATM   11  C   UNK N   1      28.326  17.396   6.361  0.00  0.00     0.038 A 
HETATM   12  C   UNK N   1      29.700  17.087   6.309  0.00  0.00     0.030 A 
HETATM   13  C   UNK N   1      30.548  17.402   7.379  0.00  0.00     0.002 A 
HETATM   14  C   UNK N   1      30.043  18.057   8.503  0.00  0.00     0.000 A 
HETATM   15  C   UNK N   1      28.692  18.395   8.561  0.00  0.00     0.002 A 
HETATM   16  C   UNK N   1      27.850  18.090   7.488  0.00  0.00     0.030 A 
ENDBRANCH   8  11
BRANCH   9  17
HETATM   17  C   UNK N   1      27.977  19.822   4.982  0.00  0.00     0.099 C 
HETATM   18  C   UNK N   1      26.981  20.912   5.320  0.00  0.00     0.014 C 
ENDBRANCH   9  17
ENDBRANCH   2   8
BRANCH   2  19
HETATM   19  C   UNK N   1      27.540  15.423   3.475  0.00  0.00     0.288 C 
HETATM   20  O   UNK N   1      26.865  15.218   2.471  0.00  0.00    -0.262 OA
BRANCH  19  21
HETATM   21  O   UNK N   1      28.876  15.189   3.446  0.00  0.00    -0.324 OA
HETATM   22  C   UNK N   1      29.738  15.999   2.740  0.00  0.00     0.213 C 
ENDBRANCH  19  21
ENDBRANCH   2  19
BRANCH   1  23
HETATM   23  C   UNK N   1      24.080  14.034   6.582  0.00  0.00     0.277 C 
BRANCH  23  24
HETATM   24  C   UNK N   1      22.787  13.932   7.384  0.00  0.00     0.068 C 
BRANCH  24  25
HETATM   25  C   UNK N   1      23.015  13.255   8.687  0.00  0.00    -0.057 A 
HETATM   26  C   UNK N   1      24.291  12.798   9.038  0.00  0.00     0.007 A 
HETATM   27  C   UNK N   1      24.495  12.183  10.278  0.00  0.00     0.001 A 
HETATM   28  C   UNK N   1      23.424  12.024  11.163  0.00  0.00     0.000 A 
HETATM   29  C   UNK N   1      22.150  12.482  10.812  0.00  0.00     0.001 A 
HETATM   30  C   UNK N   1      21.948  13.102   9.577  0.00  0.00     0.007 A 
ENDBRANCH  24  25
ENDBRANCH  23  24
ENDBRANCH   1  23
TORSDOF 8
ENDMDL
MODEL 6
REMARK VINA RESULT:      -6.5      7.668     11.106
REMARK  8 active torsions:
REMARK  status: ('A' for Active; 'I' for Inactive)
REMARK    1  A    between atoms: O_1  and  C_12 
REMARK    2  A    between atoms: N_4  and  C_13 
REMARK    3  A    between atoms: C_6  and  N_5 
REMARK    4  A    between atoms: N_5  and  C_14 
REMARK       I    between atoms: N_5  and  C_15 
REMARK    5  A    between atoms: C_6  and  C_12 
REMARK    6  A    between atoms: C_13  and  C_16 
REMARK    7  A    between atoms: C_15  and  C_17 
REMARK    8  A    between atoms: C_16  and  C_20 
ROOT
HETATM    1  N   UNK N   1      27.917  16.835   5.200  0.00  0.00     0.089 N 
HETATM    2  C   UNK N   1      30.765  16.121   4.432  0.00  0.00     0.134 C 
HETATM    3  C   UNK N   1      29.518  15.213   4.175  0.00  0.00     0.049 C 
HETATM    4  C   UNK N   1      30.242  17.576   4.426  0.00  0.00     0.073 C 
HETATM    5  C   UNK N   1      28.399  15.446   5.190  0.00  0.00     0.279 C 
HETATM    6  C   UNK N   1      29.003  17.823   5.318  0.00  0.00     0.275 C 
HETATM    7  C   UNK N   1      28.935  15.373   2.754  0.00  0.00     0.015 C 
ENDROOT
BRANCH   2   8
HETATM    8  N   UNK N   1      31.503  15.773   5.718  0.00  0.00    -0.298 N 
HETATM    9  C   UNK N   1      31.627  14.471   6.218  0.00  0.00     0.225 C 
HETATM   10  O   UNK N   1      31.193  13.504   5.609  0.00  0.00    -0.273 OA
BRANCH   8  11
HETATM   11  C   UNK N   1      32.223  16.784   6.468  0.00  0.00     0.038 A 
HETATM   12  C   UNK N   1      31.692  17.303   7.666  0.00  0.00     0.030 A 
HETATM   13  C   UNK N   1      32.486  18.070   8.529  0.00  0.00     0.002 A 
HETATM   14  C   UNK N   1      33.827  18.305   8.225  0.00  0.00     0.000 A 
HETATM   15  C   UNK N   1      34.377  17.776   7.058  0.00  0.00     0.002 A 
HETATM   16  C   UNK N   1      33.586  17.002   6.203  0.00  0.00     0.030 A 
ENDBRANCH   8  11
BRANCH   9  17
HETATM   17  C   UNK N   1      32.332  14.177   7.516  0.00  0.00     0.099 C 
HETATM   18  C   UNK N   1      33.605  13.384   7.296  0.00  0.00     0.014 C 
ENDBRANCH   9  17
ENDBRANCH   2   8
BRANCH   2  19
HETATM   19  C   UNK N   1      31.629  15.905   3.177  0.00  0.00     0.288 C 
HETATM   20  O   UNK N   1      31.938  16.874   2.490  0.00  0.00    -0.262 OA
BRANCH  19  21
HETATM   21  O   UNK N   1      32.111  14.677   2.861  0.00  0.00    -0.324 OA
HETATM   22  C   UNK N   1      33.458  14.394   2.907  0.00  0.00     0.213 C 
ENDBRANCH  19  21
ENDBRANCH   2  19
BRANCH   1  23
HETATM   23  C   UNK N   1      27.013  17.104   4.080  0.00  0.00     0.277 C 
BRANCH  23  24
HETATM   24  C   UNK N   1      26.913  18.594   3.776  0.00  0.00     0.068 C 
BRANCH  24  25
HETATM   25  C   UNK N   1      25.496  19.019   3.634  0.00  0.00    -0.057 A 
HETATM   26  C   UNK N   1      25.176  20.238   3.023  0.00  0.00     0.007 A 
HETATM   27  C   UNK N   1      23.837  20.614   2.876  0.00  0.00     0.001 A 
HETATM   28  C   UNK N   1      22.820  19.774   3.339  0.00  0.00     0.000 A 
HETATM   29  C   UNK N   1      23.140  18.556   3.948  0.00  0.00     0.001 A 
HETATM   30  C   UNK N   1      24.477  18.178   4.089  0.00  0.00     0.007 A 
ENDBRANCH  24  25
ENDBRANCH  23  24
ENDBRANCH   1  23
TORSDOF 8
ENDMDL
MODEL 7
REMARK VINA RESULT:      -6.5     10.722     13.004
REMARK  8 active torsions:
REMARK  status: ('A' for Active; 'I' for Inactive)
REMARK    1  A    between atoms: O_1  and  C_12 
REMARK    2  A    between atoms: N_4  and  C_13 
REMARK    3  A    between atoms: C_6  and  N_5 
REMARK    4  A    between atoms: N_5  and  C_14 
REMARK       I    between atoms: N_5  and  C_15 
REMARK    5  A    between atoms: C_6  and  C_12 
REMARK    6  A    between atoms: C_13  and  C_16 
REMARK    7  A    between atoms: C_15  and  C_17 
REMARK    8  A    between atoms: C_16  and  C_20 
ROOT
HETATM    1  N   UNK N   1      34.833  15.139  10.409  0.00  0.00     0.089 N 
HETATM    2  C   UNK N   1      33.729  14.292   7.711  0.00  0.00     0.134 C 
HETATM    3  C   UNK N   1      35.250  14.378   8.065  0.00  0.00     0.049 C 
HETATM    4  C   UNK N   1      32.999  13.991   9.041  0.00  0.00     0.073 C 
HETATM    5  C   UNK N   1      35.545  15.412   9.151  0.00  0.00     0.279 C 
HETATM    6  C   UNK N   1      33.390  14.914  10.218  0.00  0.00     0.275 C 
HETATM    7  C   UNK N   1      35.849  13.023   8.498  0.00  0.00     0.015 C 
ENDROOT
BRANCH   2   8
HETATM    8  N   UNK N   1      33.202  15.546   7.028  0.00  0.00    -0.298 N 
HETATM    9  C   UNK N   1      33.940  16.305   6.113  0.00  0.00     0.225 C 
HETATM   10  O   UNK N   1      35.058  15.967   5.750  0.00  0.00    -0.273 OA
BRANCH   8  11
HETATM   11  C   UNK N   1      31.832  15.984   7.216  0.00  0.00     0.038 A 
HETATM   12  C   UNK N   1      31.538  17.086   8.045  0.00  0.00     0.030 A 
HETATM   13  C   UNK N   1      30.269  17.680   8.025  0.00  0.00     0.002 A 
HETATM   14  C   UNK N   1      29.286  17.204   7.157  0.00  0.00     0.000 A 
HETATM   15  C   UNK N   1      29.567  16.132   6.311  0.00  0.00     0.002 A 
HETATM   16  C   UNK N   1      30.837  15.547   6.324  0.00  0.00     0.030 A 
ENDBRANCH   8  11
BRANCH   9  17
HETATM   17  C   UNK N   1      33.393  17.562   5.489  0.00  0.00     0.099 C 
HETATM   18  C   UNK N   1      32.998  17.346   4.043  0.00  0.00     0.014 C 
ENDBRANCH   9  17
ENDBRANCH   2   8
BRANCH   2  19
HETATM   19  C   UNK N   1      33.642  13.046   6.812  0.00  0.00     0.288 C 
HETATM   20  O   UNK N   1      32.835  12.164   7.089  0.00  0.00    -0.262 OA
BRANCH  19  21
HETATM   21  O   UNK N   1      34.389  12.944   5.684  0.00  0.00    -0.324 OA
HETATM   22  C   UNK N   1      33.810  12.775   4.445  0.00  0.00     0.213 C 
ENDBRANCH  19  21
ENDBRANCH   2  19
BRANCH   1  23
HETATM   23  C   UNK N   1      35.484  14.080  11.181  0.00  0.00     0.277 C 
BRANCH  23  24
HETATM   24  C   UNK N   1      35.994  14.588  12.526  0.00  0.00     0.068 C 
BRANCH  24  25
HETATM   25  C   UNK N   1      36.393  13.462  13.409  0.00  0.00    -0.057 A 
HETATM   26  C   UNK N   1      36.027  13.455  14.761  0.00  0.00     0.007 A 
HETATM   27  C   UNK N   1      36.390  12.377  15.575  0.00  0.00     0.001 A 
HETATM   28  C   UNK N   1      37.118  11.310  15.040  0.00  0.00     0.000 A 
HETATM   29  C   UNK N   1      37.481  11.318  13.689  0.00  0.00     0.001 A 
HETATM   30  C   UNK N   1      37.113  12.391  12.874  0.00  0.00     0.007 A 
ENDBRANCH  24  25
ENDBRANCH  23  24
ENDBRANCH   1  23
TORSDOF 8
ENDMDL
MODEL 8
REMARK VINA RESULT:      -6.4      1.764      3.372
REMARK  8 active torsions:
REMARK  status: ('A' for Active; 'I' for Inactive)
REMARK    1  A    between atoms: O_1  and  C_12 
REMARK    2  A    between atoms: N_4  and  C_13 
REMARK    3  A    between atoms: C_6  and  N_5 
REMARK    4  A    between atoms: N_5  and  C_14 
REMARK       I    between atoms: N_5  and  C_15 
REMARK    5  A    between atoms: C_6  and  C_12 
REMARK    6  A    between atoms: C_13  and  C_16 
REMARK    7  A    between atoms: C_15  and  C_17 
REMARK    8  A    between atoms: C_16  and  C_20 
ROOT
HETATM    1  N   UNK N   1      24.693  13.243   6.270  0.00  0.00     0.089 N 
HETATM    2  C   UNK N   1      21.901  13.781   5.209  0.00  0.00     0.134 C 
HETATM    3  C   UNK N   1      22.579  12.373   5.261  0.00  0.00     0.049 C 
HETATM    4  C   UNK N   1      22.523  14.597   6.367  0.00  0.00     0.073 C 
HETATM    5  C   UNK N   1      24.104  12.449   5.182  0.00  0.00     0.279 C 
HETATM    6  C   UNK N   1      24.067  14.568   6.423  0.00  0.00     0.275 C 
HETATM    7  C   UNK N   1      22.190  11.559   6.514  0.00  0.00     0.015 C 
ENDROOT
BRANCH   2   8
HETATM    8  N   UNK N   1      22.058  14.471   3.861  0.00  0.00    -0.298 N 
HETATM    9  C   UNK N   1      22.097  13.793   2.637  0.00  0.00     0.225 C 
HETATM   10  O   UNK N   1      21.942  12.582   2.567  0.00  0.00    -0.273 OA
BRANCH   8  11
HETATM   11  C   UNK N   1      22.080  15.918   3.755  0.00  0.00     0.038 A 
HETATM   12  C   UNK N   1      20.905  16.670   3.956  0.00  0.00     0.030 A 
HETATM   13  C   UNK N   1      20.963  18.060   4.121  0.00  0.00     0.002 A 
HETATM   14  C   UNK N   1      22.194  18.716   4.117  0.00  0.00     0.000 A 
HETATM   15  C   UNK N   1      23.369  17.984   3.946  0.00  0.00     0.002 A 
HETATM   16  C   UNK N   1      23.310  16.596   3.793  0.00  0.00     0.030 A 
ENDBRANCH   8  11
BRANCH   9  17
HETATM   17  C   UNK N   1      22.294  14.513   1.328  0.00  0.00     0.099 C 
HETATM   18  C   UNK N   1      23.640  14.196   0.710  0.00  0.00     0.014 C 
ENDBRANCH   9  17
ENDBRANCH   2   8
BRANCH   2  19
HETATM   19  C   UNK N   1      20.431  13.483   5.553  0.00  0.00     0.288 C 
HETATM   20  O   UNK N   1      19.879  14.135   6.435  0.00  0.00    -0.262 OA
BRANCH  19  21
HETATM   21  O   UNK N   1      19.720  12.565   4.851  0.00  0.00    -0.324 OA
HETATM   22  C   UNK N   1      18.687  12.932   4.018  0.00  0.00     0.213 C 
ENDBRANCH  19  21
ENDBRANCH   2  19
BRANCH   1  23
HETATM   23  C   UNK N   1      24.754  12.487   7.521  0.00  0.00     0.277 C 
BRANCH  23  24
HETATM   24  C   UNK N   1      24.824  13.404   8.738  0.00  0.00     0.068 C 
BRANCH  24  25
HETATM   25  C   UNK N   1      23.886  12.960   9.801  0.00  0.00    -0.057 A 
HETATM   26  C   UNK N   1      22.519  13.248   9.710  0.00  0.00     0.007 A 
HETATM   27  C   UNK N   1      21.645  12.804  10.707  0.00  0.00     0.001 A 
HETATM   28  C   UNK N   1      22.136  12.073  11.793  0.00  0.00     0.000 A 
HETATM   29  C   UNK N   1      23.502  11.784  11.882  0.00  0.00     0.001 A 
HETATM   30  C   UNK N   1      24.374  12.222  10.883  0.00  0.00     0.007 A 
ENDBRANCH  24  25
ENDBRANCH  23  24
ENDBRANCH   1  23
TORSDOF 8
ENDMDL
MODEL 9
REMARK VINA RESULT:      -6.3     15.337     17.962
REMARK  8 active torsions:
REMARK  status: ('A' for Active; 'I' for Inactive)
REMARK    1  A    between atoms: O_1  and  C_12 
REMARK    2  A    between atoms: N_4  and  C_13 
REMARK    3  A    between atoms: C_6  and  N_5 
REMARK    4  A    between atoms: N_5  and  C_14 
REMARK       I    between atoms: N_5  and  C_15 
REMARK    5  A    between atoms: C_6  and  C_12 
REMARK    6  A    between atoms: C_13  and  C_16 
REMARK    7  A    between atoms: C_15  and  C_17 
REMARK    8  A    between atoms: C_16  and  C_20 
ROOT
HETATM    1  N   UNK N   1      27.614  24.159  -6.088  0.00  0.00     0.089 N 
HETATM    2  C   UNK N   1      30.368  24.506  -4.859  0.00  0.00     0.134 C 
HETATM    3  C   UNK N   1      30.037  24.699  -6.375  0.00  0.00     0.049 C 
HETATM    4  C   UNK N   1      29.067  24.842  -4.093  0.00  0.00     0.073 C 
HETATM    5  C   UNK N   1      28.846  23.856  -6.831  0.00  0.00     0.279 C 
HETATM    6  C   UNK N   1      27.800  24.134  -4.627  0.00  0.00     0.275 C 
HETATM    7  C   UNK N   1      29.774  26.171  -6.756  0.00  0.00     0.015 C 
ENDROOT
BRANCH   2   8
HETATM    8  N   UNK N   1      30.893  23.115  -4.533  0.00  0.00    -0.298 N 
HETATM    9  C   UNK N   1      31.106  22.646  -3.232  0.00  0.00     0.225 C 
HETATM   10  O   UNK N   1      30.820  23.317  -2.251  0.00  0.00    -0.273 OA
BRANCH   8  11
HETATM   11  C   UNK N   1      31.116  22.132  -5.578  0.00  0.00     0.038 A 
HETATM   12  C   UNK N   1      32.371  22.029  -6.210  0.00  0.00     0.030 A 
HETATM   13  C   UNK N   1      32.679  20.926  -7.017  0.00  0.00     0.002 A 
HETATM   14  C   UNK N   1      31.751  19.897  -7.181  0.00  0.00     0.000 A 
HETATM   15  C   UNK N   1      30.514  19.970  -6.542  0.00  0.00     0.002 A 
HETATM   16  C   UNK N   1      30.213  21.066  -5.728  0.00  0.00     0.030 A 
ENDBRANCH   8  11
BRANCH   9  17
HETATM   17  C   UNK N   1      31.664  21.274  -2.957  0.00  0.00     0.099 C 
HETATM   18  C   UNK N   1      33.149  21.320  -2.661  0.00  0.00     0.014 C 
ENDBRANCH   9  17
ENDBRANCH   2   8
BRANCH   2  19
HETATM   19  C   UNK N   1      31.402  25.610  -4.576  0.00  0.00     0.288 C 
HETATM   20  O   UNK N   1      31.161  26.448  -3.712  0.00  0.00    -0.262 OA
BRANCH  19  21
HETATM   21  O   UNK N   1      32.600  25.628  -5.213  0.00  0.00    -0.324 OA
HETATM   22  C   UNK N   1      33.349  26.779  -5.315  0.00  0.00     0.213 C 
ENDBRANCH  19  21
ENDBRANCH   2  19
BRANCH   1  23
HETATM   23  C   UNK N   1      26.981  25.389  -6.567  0.00  0.00     0.277 C 
BRANCH  23  24
HETATM   24  C   UNK N   1      25.928  25.904  -5.591  0.00  0.00     0.068 C 
BRANCH  24  25
HETATM   25  C   UNK N   1      26.247  27.279  -5.132  0.00  0.00    -0.057 A 
HETATM   26  C   UNK N   1      25.828  27.724  -3.872  0.00  0.00     0.007 A 
HETATM   27  C   UNK N   1      26.156  29.015  -3.443  0.00  0.00     0.001 A 
HETATM   28  C   UNK N   1      26.901  29.859  -4.272  0.00  0.00     0.000 A 
HETATM   29  C   UNK N   1      27.321  29.413  -5.530  0.00  0.00     0.001 A 
HETATM   30  C   UNK N   1      26.999  28.122  -5.955  0.00  0.00     0.007 A 
ENDBRANCH  24  25
ENDBRANCH  23  24
ENDBRANCH   1  23
TORSDOF 8
ENDMDL
