MODEL 1
REMARK VINA RESULT:      -6.9      0.000      0.000
REMARK  7 active torsions:
REMARK  status: ('A' for Active; 'I' for Inactive)
REMARK    1  A    between atoms: N_2  and  C_9 
REMARK    2  A    between atoms: N_3  and  C_4 
REMARK    3  A    between atoms: N_3  and  C_11 
REMARK       I    between atoms: N_3  and  C_12 
REMARK    4  A    between atoms: C_9  and  C_10 
REMARK    5  A    between atoms: C_10  and  C_14 
REMARK    6  A    between atoms: C_12  and  C_13 
REMARK    7  A    between atoms: C_13  and  C_17 
ROOT
HETATM    1  N   UNK N   1      25.010  13.925   6.017  0.00  0.00     0.088 N 
HETATM    2  C   UNK N   1      26.650  16.158   5.176  0.00  0.00     0.096 C 
HETATM    3  C   UNK N   1      25.217  16.358   5.692  0.00  0.00     0.056 C 
HETATM    4  C   UNK N   1      27.324  14.899   5.719  0.00  0.00     0.056 C 
HETATM    5  C   UNK N   1      24.796  15.235   6.638  0.00  0.00     0.274 C 
HETATM    6  C   UNK N   1      26.390  13.699   5.546  0.00  0.00     0.274 C 
ENDROOT
BRANCH   2   7
HETATM    7  N   UNK N   1      27.465  17.357   5.379  0.00  0.00    -0.313 N 
HETATM    8  C   UNK N   1      27.258  18.395   4.493  0.00  0.00     0.224 C 
HETATM    9  O   UNK N   1      26.426  18.271   3.605  0.00  0.00    -0.273 OA
BRANCH   7  10
HETATM   10  C   UNK N   1      28.386  17.407   6.501  0.00  0.00     0.037 A 
HETATM   11  C   UNK N   1      29.770  17.193   6.349  0.00  0.00     0.030 A 
HETATM   12  C   UNK N   1      30.640  17.286   7.441  0.00  0.00     0.002 A 
HETATM   13  C   UNK N   1      30.145  17.591   8.709  0.00  0.00     0.000 A 
HETATM   14  C   UNK N   1      28.779  17.803   8.886  0.00  0.00     0.002 A 
HETATM   15  C   UNK N   1      27.914  17.717   7.794  0.00  0.00     0.030 A 
ENDBRANCH   7  10
BRANCH   8  16
HETATM   16  C   UNK N   1      27.985  19.712   4.574  0.00  0.00     0.103 C 
BRANCH  16  17
HETATM   17  C   UNK N   1      27.054  20.842   4.979  0.00  0.00     0.005 C 
HETATM   18  C   UNK N   1      27.103  21.000   6.486  0.00  0.00     0.005 C 
ENDBRANCH  16  17
ENDBRANCH   8  16
ENDBRANCH   2   7
BRANCH   1  19
HETATM   19  C   UNK N   1      24.737  12.924   7.036  0.00  0.00     0.277 C 
BRANCH  19  20
HETATM   20  C   UNK N   1      25.085  13.469   8.413  0.00  0.00     0.068 C 
BRANCH  20  21
HETATM   21  C   UNK N   1      24.113  13.002   9.447  0.00  0.00    -0.057 A 
HETATM   22  C   UNK N   1      24.582  12.324  10.578  0.00  0.00     0.007 A 
HETATM   23  C   UNK N   1      23.685  11.893  11.559  0.00  0.00     0.001 A 
HETATM   24  C   UNK N   1      22.315  12.138  11.411  0.00  0.00     0.000 A 
HETATM   25  C   UNK N   1      21.844  12.818  10.285  0.00  0.00     0.001 A 
HETATM   26  C   UNK N   1      22.741  13.252   9.305  0.00  0.00     0.007 A 
ENDBRANCH  20  21
ENDBRANCH  19  20
ENDBRANCH   1  19
TORSDOF 7
ENDMDL
MODEL 2
REMARK VINA RESULT:      -6.8      8.193     10.853
REMARK  7 active torsions:
REMARK  status: ('A' for Active; 'I' for Inactive)
REMARK    1  A    between atoms: N_2  and  C_9 
REMARK    2  A    between atoms: N_3  and  C_4 
REMARK    3  A    between atoms: N_3  and  C_11 
REMARK       I    between atoms: N_3  and  C_12 
REMARK    4  A    between atoms: C_9  and  C_10 
REMARK    5  A    between atoms: C_10  and  C_14 
REMARK    6  A    between atoms: C_12  and  C_13 
REMARK    7  A    between atoms: C_13  and  C_17 
ROOT
HETATM    1  N   UNK N   1      36.582  13.378  12.177  0.00  0.00     0.088 N 
HETATM    2  C   UNK N   1      35.787  15.338  10.198  0.00  0.00     0.096 C 
HETATM    3  C   UNK N   1      36.741  14.183   9.854  0.00  0.00     0.056 C 
HETATM    4  C   UNK N   1      34.846  15.025  11.359  0.00  0.00     0.056 C 
HETATM    5  C   UNK N   1      36.523  12.979  10.768  0.00  0.00     0.274 C 
HETATM    6  C   UNK N   1      35.648  14.463  12.536  0.00  0.00     0.274 C 
ENDROOT
BRANCH   2   7
HETATM    7  N   UNK N   1      35.070  15.811   9.013  0.00  0.00    -0.313 N 
HETATM    8  C   UNK N   1      34.886  17.176   8.914  0.00  0.00     0.224 C 
HETATM    9  O   UNK N   1      35.318  17.907   9.794  0.00  0.00    -0.273 OA
BRANCH   7  10
HETATM   10  C   UNK N   1      34.648  14.851   8.008  0.00  0.00     0.037 A 
HETATM   11  C   UNK N   1      33.504  14.046   8.170  0.00  0.00     0.030 A 
HETATM   12  C   UNK N   1      33.097  13.156   7.169  0.00  0.00     0.002 A 
HETATM   13  C   UNK N   1      33.829  13.050   5.986  0.00  0.00     0.000 A 
HETATM   14  C   UNK N   1      34.968  13.833   5.803  0.00  0.00     0.002 A 
HETATM   15  C   UNK N   1      35.367  14.724   6.800  0.00  0.00     0.030 A 
ENDBRANCH   7  10
BRANCH   8  16
HETATM   16  C   UNK N   1      34.198  17.837   7.747  0.00  0.00     0.103 C 
BRANCH  16  17
HETATM   17  C   UNK N   1      32.694  17.910   7.952  0.00  0.00     0.005 C 
HETATM   18  C   UNK N   1      32.011  17.161   6.825  0.00  0.00     0.005 C 
ENDBRANCH  16  17
ENDBRANCH   8  16
ENDBRANCH   2   7
BRANCH   1  19
HETATM   19  C   UNK N   1      36.207  12.214  12.963  0.00  0.00     0.277 C 
BRANCH  19  20
HETATM   20  C   UNK N   1      37.198  12.005  14.098  0.00  0.00     0.068 C 
BRANCH  20  21
HETATM   21  C   UNK N   1      36.518  12.024  15.427  0.00  0.00    -0.057 A 
HETATM   22  C   UNK N   1      35.942  13.213  15.889  0.00  0.00     0.007 A 
HETATM   23  C   UNK N   1      35.291  13.242  17.127  0.00  0.00     0.001 A 
HETATM   24  C   UNK N   1      35.216  12.082  17.905  0.00  0.00     0.000 A 
HETATM   25  C   UNK N   1      35.787  10.892  17.445  0.00  0.00     0.001 A 
HETATM   26  C   UNK N   1      36.435  10.862  16.206  0.00  0.00     0.007 A 
ENDBRANCH  20  21
ENDBRANCH  19  20
ENDBRANCH   1  19
TORSDOF 7
ENDMDL
MODEL 3
REMARK VINA RESULT:      -6.7      6.134      8.993
REMARK  7 active torsions:
REMARK  status: ('A' for Active; 'I' for Inactive)
REMARK    1  A    between atoms: N_2  and  C_9 
REMARK    2  A    between atoms: N_3  and  C_4 
REMARK    3  A    between atoms: N_3  and  C_11 
REMARK       I    between atoms: N_3  and  C_12 
REMARK    4  A    between atoms: C_9  and  C_10 
REMARK    5  A    between atoms: C_10  and  C_14 
REMARK    6  A    between atoms: C_12  and  C_13 
REMARK    7  A    between atoms: C_13  and  C_17 
ROOT
HETATM    1  N   UNK N   1      34.716  14.520  10.119  0.00  0.00     0.088 N 
HETATM    2  C   UNK N   1      33.895  15.847   7.679  0.00  0.00     0.096 C 
HETATM    3  C   UNK N   1      33.169  14.597   8.203  0.00  0.00     0.056 C 
HETATM    4  C   UNK N   1      34.581  16.659   8.776  0.00  0.00     0.056 C 
HETATM    5  C   UNK N   1      33.307  14.458   9.718  0.00  0.00     0.274 C 
HETATM    6  C   UNK N   1      35.422  15.730   9.655  0.00  0.00     0.274 C 
ENDROOT
BRANCH   2   7
HETATM    7  N   UNK N   1      33.014  16.668   6.847  0.00  0.00    -0.313 N 
HETATM    8  C   UNK N   1      33.446  16.918   5.560  0.00  0.00     0.224 C 
HETATM    9  O   UNK N   1      34.513  16.454   5.183  0.00  0.00    -0.273 OA
BRANCH   7  10
HETATM   10  C   UNK N   1      31.745  17.122   7.390  0.00  0.00     0.037 A 
HETATM   11  C   UNK N   1      30.509  16.640   6.916  0.00  0.00     0.030 A 
HETATM   12  C   UNK N   1      29.302  17.064   7.483  0.00  0.00     0.002 A 
HETATM   13  C   UNK N   1      29.306  17.983   8.533  0.00  0.00     0.000 A 
HETATM   14  C   UNK N   1      30.515  18.478   9.017  0.00  0.00     0.002 A 
HETATM   15  C   UNK N   1      31.718  18.047   8.454  0.00  0.00     0.030 A 
ENDBRANCH   7  10
BRANCH   8  16
HETATM   16  C   UNK N   1      32.652  17.717   4.559  0.00  0.00     0.103 C 
BRANCH  16  17
HETATM   17  C   UNK N   1      32.514  16.979   3.237  0.00  0.00     0.005 C 
HETATM   18  C   UNK N   1      31.084  16.496   3.095  0.00  0.00     0.005 C 
ENDBRANCH  16  17
ENDBRANCH   8  16
ENDBRANCH   2   7
BRANCH   1  19
HETATM   19  C   UNK N   1      34.741  14.542  11.572  0.00  0.00     0.277 C 
BRANCH  19  20
HETATM   20  C   UNK N   1      35.074  13.159  12.113  0.00  0.00     0.068 C 
BRANCH  20  21
HETATM   21  C   UNK N   1      35.380  13.203  13.574  0.00  0.00    -0.057 A 
HETATM   22  C   UNK N   1      36.365  14.078  14.046  0.00  0.00     0.007 A 
HETATM   23  C   UNK N   1      36.652  14.138  15.414  0.00  0.00     0.001 A 
HETATM   24  C   UNK N   1      35.955  13.323  16.311  0.00  0.00     0.000 A 
HETATM   25  C   UNK N   1      34.968  12.451  15.843  0.00  0.00     0.001 A 
HETATM   26  C   UNK N   1      34.678  12.393  14.478  0.00  0.00     0.007 A 
ENDBRANCH  20  21
ENDBRANCH  19  20
ENDBRANCH   1  19
TORSDOF 7
ENDMDL
MODEL 4
REMARK VINA RESULT:      -6.5     13.373     15.898
REMARK  7 active torsions:
REMARK  status: ('A' for Active; 'I' for Inactive)
REMARK    1  A    between atoms: N_2  and  C_9 
REMARK    2  A    between atoms: N_3  and  C_4 
REMARK    3  A    between atoms: N_3  and  C_11 
REMARK       I    between atoms: N_3  and  C_12 
REMARK    4  A    between atoms: C_9  and  C_10 
REMARK    5  A    between atoms: C_10  and  C_14 
REMARK    6  A    between atoms: C_12  and  C_13 
REMARK    7  A    between atoms: C_13  and  C_17 
ROOT
HETATM    1  N   UNK N   1      31.307  23.228  -2.928  0.00  0.00     0.088 N 
HETATM    2  C   UNK N   1      29.187  25.027  -3.737  0.00  0.00     0.096 C 
HETATM    3  C   UNK N   1      30.620  25.175  -4.272  0.00  0.00     0.056 C 
HETATM    4  C   UNK N   1      28.836  23.601  -3.317  0.00  0.00     0.056 C 
HETATM    5  C   UNK N   1      31.367  23.843  -4.257  0.00  0.00     0.274 C 
HETATM    6  C   UNK N   1      29.937  23.046  -2.410  0.00  0.00     0.274 C 
ENDROOT
BRANCH   2   7
HETATM    7  N   UNK N   1      28.207  25.591  -4.667  0.00  0.00    -0.313 N 
HETATM    8  C   UNK N   1      27.931  26.936  -4.525  0.00  0.00     0.224 C 
HETATM    9  O   UNK N   1      28.502  27.579  -3.655  0.00  0.00    -0.273 OA
BRANCH   7  10
HETATM   10  C   UNK N   1      27.631  24.738  -5.693  0.00  0.00     0.037 A 
HETATM   11  C   UNK N   1      28.276  24.499  -6.921  0.00  0.00     0.030 A 
HETATM   12  C   UNK N   1      27.718  23.642  -7.877  0.00  0.00     0.002 A 
HETATM   13  C   UNK N   1      26.500  23.010  -7.625  0.00  0.00     0.000 A 
HETATM   14  C   UNK N   1      25.839  23.234  -6.418  0.00  0.00     0.002 A 
HETATM   15  C   UNK N   1      26.403  24.083  -5.464  0.00  0.00     0.030 A 
ENDBRANCH   7  10
BRANCH   8  16
HETATM   16  C   UNK N   1      26.973  27.684  -5.415  0.00  0.00     0.103 C 
BRANCH  16  17
HETATM   17  C   UNK N   1      25.598  27.808  -4.779  0.00  0.00     0.005 C 
HETATM   18  C   UNK N   1      24.576  27.167  -5.697  0.00  0.00     0.005 C 
ENDBRANCH  16  17
ENDBRANCH   8  16
ENDBRANCH   2   7
BRANCH   1  19
HETATM   19  C   UNK N   1      31.898  21.905  -3.046  0.00  0.00     0.277 C 
BRANCH  19  20
HETATM   20  C   UNK N   1      30.858  20.906  -3.530  0.00  0.00     0.068 C 
BRANCH  20  21
HETATM   21  C   UNK N   1      30.980  20.658  -4.998  0.00  0.00    -0.057 A 
HETATM   22  C   UNK N   1      29.908  20.977  -5.841  0.00  0.00     0.007 A 
HETATM   23  C   UNK N   1      30.013  20.762  -7.219  0.00  0.00     0.001 A 
HETATM   24  C   UNK N   1      31.188  20.228  -7.756  0.00  0.00     0.000 A 
HETATM   25  C   UNK N   1      32.261  19.913  -6.918  0.00  0.00     0.001 A 
HETATM   26  C   UNK N   1      32.159  20.130  -5.541  0.00  0.00     0.007 A 
ENDBRANCH  20  21
ENDBRANCH  19  20
ENDBRANCH   1  19
TORSDOF 7
ENDMDL
MODEL 5
REMARK VINA RESULT:      -6.5      4.308      6.649
REMARK  7 active torsions:
REMARK  status: ('A' for Active; 'I' for Inactive)
REMARK    1  A    between atoms: N_2  and  C_9 
REMARK    2  A    between atoms: N_3  and  C_4 
REMARK    3  A    between atoms: N_3  and  C_11 
REMARK       I    between atoms: N_3  and  C_12 
REMARK    4  A    between atoms: C_9  and  C_10 
REMARK    5  A    between atoms: C_10  and  C_14 
REMARK    6  A    between atoms: C_12  and  C_13 
REMARK    7  A    between atoms: C_13  and  C_17 
ROOT
HETATM    1  N   UNK N   1      26.113  17.995   4.983  0.00  0.00     0.088 N 
HETATM    2  C   UNK N   1      28.678  17.785   6.310  0.00  0.00     0.096 C 
HETATM    3  C   UNK N   1      27.694  16.606   6.263  0.00  0.00     0.056 C 
HETATM    4  C   UNK N   1      28.517  18.761   5.146  0.00  0.00     0.056 C 
HETATM    5  C   UNK N   1      26.773  16.688   5.048  0.00  0.00     0.274 C 
HETATM    6  C   UNK N   1      27.042  19.141   4.993  0.00  0.00     0.274 C 
ENDROOT
BRANCH   2   7
HETATM    7  N   UNK N   1      30.059  17.325   6.464  0.00  0.00    -0.313 N 
HETATM    8  C   UNK N   1      30.570  17.337   7.747  0.00  0.00     0.224 C 
HETATM    9  O   UNK N   1      29.865  17.719   8.671  0.00  0.00    -0.273 OA
BRANCH   7  10
HETATM   10  C   UNK N   1      30.782  16.847   5.297  0.00  0.00     0.037 A 
HETATM   11  C   UNK N   1      31.628  17.681   4.542  0.00  0.00     0.030 A 
HETATM   12  C   UNK N   1      32.342  17.185   3.446  0.00  0.00     0.002 A 
HETATM   13  C   UNK N   1      32.223  15.844   3.080  0.00  0.00     0.000 A 
HETATM   14  C   UNK N   1      31.388  14.998   3.809  0.00  0.00     0.002 A 
HETATM   15  C   UNK N   1      30.682  15.495   4.906  0.00  0.00     0.030 A 
ENDBRANCH   7  10
BRANCH   8  16
HETATM   16  C   UNK N   1      31.960  16.869   8.090  0.00  0.00     0.103 C 
BRANCH  16  17
HETATM   17  C   UNK N   1      32.938  18.029   8.169  0.00  0.00     0.005 C 
HETATM   18  C   UNK N   1      34.125  17.728   7.276  0.00  0.00     0.005 C 
ENDBRANCH  16  17
ENDBRANCH   8  16
ENDBRANCH   2   7
BRANCH   1  19
HETATM   19  C   UNK N   1      25.389  18.042   3.724  0.00  0.00     0.277 C 
BRANCH  19  20
HETATM   20  C   UNK N   1      24.929  19.462   3.434  0.00  0.00     0.068 C 
BRANCH  20  21
HETATM   21  C   UNK N   1      23.439  19.565   3.438  0.00  0.00    -0.057 A 
HETATM   22  C   UNK N   1      22.691  18.705   4.249  0.00  0.00     0.007 A 
HETATM   23  C   UNK N   1      21.296  18.798   4.272  0.00  0.00     0.001 A 
HETATM   24  C   UNK N   1      20.646  19.753   3.482  0.00  0.00     0.000 A 
HETATM   25  C   UNK N   1      21.390  20.616   2.674  0.00  0.00     0.001 A 
HETATM   26  C   UNK N   1      22.785  20.525   2.653  0.00  0.00     0.007 A 
ENDBRANCH  20  21
ENDBRANCH  19  20
ENDBRANCH   1  19
TORSDOF 7
ENDMDL
MODEL 6
REMARK VINA RESULT:      -6.5      8.532     12.149
REMARK  7 active torsions:
REMARK  status: ('A' for Active; 'I' for Inactive)
REMARK    1  A    between atoms: N_2  and  C_9 
REMARK    2  A    between atoms: N_3  and  C_4 
REMARK    3  A    between atoms: N_3  and  C_11 
REMARK       I    between atoms: N_3  and  C_12 
REMARK    4  A    between atoms: C_9  and  C_10 
REMARK    5  A    between atoms: C_10  and  C_14 
REMARK    6  A    between atoms: C_12  and  C_13 
REMARK    7  A    between atoms: C_13  and  C_17 
ROOT
HETATM    1  N   UNK N   1      35.750  14.673   9.360  0.00  0.00     0.088 N 
HETATM    2  C   UNK N   1      36.322  14.018  12.122  0.00  0.00     0.096 C 
HETATM    3  C   UNK N   1      34.932  14.502  11.677  0.00  0.00     0.056 C 
HETATM    4  C   UNK N   1      37.111  13.328  11.012  0.00  0.00     0.056 C 
HETATM    5  C   UNK N   1      34.665  14.175  10.210  0.00  0.00     0.274 C 
HETATM    6  C   UNK N   1      37.090  14.193   9.749  0.00  0.00     0.274 C 
ENDROOT
BRANCH   2   7
HETATM    7  N   UNK N   1      36.243  13.206  13.337  0.00  0.00    -0.313 N 
HETATM    8  C   UNK N   1      36.482  13.862  14.529  0.00  0.00     0.224 C 
HETATM    9  O   UNK N   1      36.740  15.057  14.516  0.00  0.00    -0.273 OA
BRANCH   7  10
HETATM   10  C   UNK N   1      35.878  11.804  13.231  0.00  0.00     0.037 A 
HETATM   11  C   UNK N   1      36.839  10.775  13.225  0.00  0.00     0.030 A 
HETATM   12  C   UNK N   1      36.458   9.430  13.161  0.00  0.00     0.002 A 
HETATM   13  C   UNK N   1      35.108   9.086  13.097  0.00  0.00     0.000 A 
HETATM   14  C   UNK N   1      34.137  10.086  13.097  0.00  0.00     0.002 A 
HETATM   15  C   UNK N   1      34.520  11.427  13.168  0.00  0.00     0.030 A 
ENDBRANCH   7  10
BRANCH   8  16
HETATM   16  C   UNK N   1      36.411  13.188  15.874  0.00  0.00     0.103 C 
BRANCH  16  17
HETATM   17  C   UNK N   1      35.029  13.317  16.493  0.00  0.00     0.005 C 
HETATM   18  C   UNK N   1      35.180  13.514  17.989  0.00  0.00     0.005 C 
ENDBRANCH  16  17
ENDBRANCH   8  16
ENDBRANCH   2   7
BRANCH   1  19
HETATM   19  C   UNK N   1      35.494  14.182   8.016  0.00  0.00     0.277 C 
BRANCH  19  20
HETATM   20  C   UNK N   1      35.343  15.348   7.050  0.00  0.00     0.068 C 
BRANCH  20  21
HETATM   21  C   UNK N   1      34.124  16.156   7.355  0.00  0.00    -0.057 A 
HETATM   22  C   UNK N   1      32.862  15.557   7.268  0.00  0.00     0.007 A 
HETATM   23  C   UNK N   1      31.713  16.299   7.563  0.00  0.00     0.001 A 
HETATM   24  C   UNK N   1      31.825  17.639   7.945  0.00  0.00     0.000 A 
HETATM   25  C   UNK N   1      33.084  18.238   8.036  0.00  0.00     0.001 A 
HETATM   26  C   UNK N   1      34.233  17.498   7.745  0.00  0.00     0.007 A 
ENDBRANCH  20  21
ENDBRANCH  19  20
ENDBRANCH   1  19
TORSDOF 7
ENDMDL
MODEL 7
REMARK VINA RESULT:      -6.4      4.102      6.915
REMARK  7 active torsions:
REMARK  status: ('A' for Active; 'I' for Inactive)
REMARK    1  A    between atoms: N_2  and  C_9 
REMARK    2  A    between atoms: N_3  and  C_4 
REMARK    3  A    between atoms: N_3  and  C_11 
REMARK       I    between atoms: N_3  and  C_12 
REMARK    4  A    between atoms: C_9  and  C_10 
REMARK    5  A    between atoms: C_10  and  C_14 
REMARK    6  A    between atoms: C_12  and  C_13 
REMARK    7  A    between atoms: C_13  and  C_17 
ROOT
HETATM    1  N   UNK N   1      27.453  15.802   6.216  0.00  0.00     0.088 N 
HETATM    2  C   UNK N   1      30.183  16.491   6.892  0.00  0.00     0.096 C 
HETATM    3  C   UNK N   1      29.842  15.210   6.115  0.00  0.00     0.056 C 
HETATM    4  C   UNK N   1      29.155  17.605   6.712  0.00  0.00     0.056 C 
HETATM    5  C   UNK N   1      28.535  15.353   5.336  0.00  0.00     0.274 C 
HETATM    6  C   UNK N   1      27.747  17.051   6.946  0.00  0.00     0.274 C 
ENDROOT
BRANCH   2   7
HETATM    7  N   UNK N   1      31.547  16.941   6.609  0.00  0.00    -0.313 N 
HETATM    8  C   UNK N   1      32.205  17.584   7.639  0.00  0.00     0.224 C 
HETATM    9  O   UNK N   1      31.636  17.742   8.710  0.00  0.00    -0.273 OA
BRANCH   7  10
HETATM   10  C   UNK N   1      32.136  16.650   5.313  0.00  0.00     0.037 A 
HETATM   11  C   UNK N   1      31.824  17.397   4.161  0.00  0.00     0.030 A 
HETATM   12  C   UNK N   1      32.435  17.121   2.932  0.00  0.00     0.002 A 
HETATM   13  C   UNK N   1      33.369  16.089   2.830  0.00  0.00     0.000 A 
HETATM   14  C   UNK N   1      33.692  15.333   3.956  0.00  0.00     0.002 A 
HETATM   15  C   UNK N   1      33.086  15.616   5.181  0.00  0.00     0.030 A 
ENDBRANCH   7  10
BRANCH   8  16
HETATM   16  C   UNK N   1      33.622  18.084   7.532  0.00  0.00     0.103 C 
BRANCH  16  17
HETATM   17  C   UNK N   1      34.489  17.556   8.663  0.00  0.00     0.005 C 
HETATM   18  C   UNK N   1      34.691  16.066   8.469  0.00  0.00     0.005 C 
ENDBRANCH  16  17
ENDBRANCH   8  16
ENDBRANCH   2   7
BRANCH   1  19
HETATM   19  C   UNK N   1      26.300  16.064   5.369  0.00  0.00     0.277 C 
BRANCH  19  20
HETATM   20  C   UNK N   1      26.746  16.674   4.049  0.00  0.00     0.068 C 
BRANCH  20  21
HETATM   21  C   UNK N   1      26.141  18.024   3.839  0.00  0.00    -0.057 A 
HETATM   22  C   UNK N   1      26.977  19.135   3.674  0.00  0.00     0.007 A 
HETATM   23  C   UNK N   1      26.424  20.402   3.464  0.00  0.00     0.001 A 
HETATM   24  C   UNK N   1      25.035  20.561   3.419  0.00  0.00     0.000 A 
HETATM   25  C   UNK N   1      24.199  19.453   3.580  0.00  0.00     0.001 A 
HETATM   26  C   UNK N   1      24.750  18.186   3.786  0.00  0.00     0.007 A 
ENDBRANCH  20  21
ENDBRANCH  19  20
ENDBRANCH   1  19
TORSDOF 7
ENDMDL
MODEL 8
REMARK VINA RESULT:      -6.4     15.209     17.999
REMARK  7 active torsions:
REMARK  status: ('A' for Active; 'I' for Inactive)
REMARK    1  A    between atoms: N_2  and  C_9 
REMARK    2  A    between atoms: N_3  and  C_4 
REMARK    3  A    between atoms: N_3  and  C_11 
REMARK       I    between atoms: N_3  and  C_12 
REMARK    4  A    between atoms: C_9  and  C_10 
REMARK    5  A    between atoms: C_10  and  C_14 
REMARK    6  A    between atoms: C_12  and  C_13 
REMARK    7  A    between atoms: C_13  and  C_17 
ROOT
HETATM    1  N   UNK N   1      26.504  25.868  -3.553  0.00  0.00     0.088 N 
HETATM    2  C   UNK N   1      27.641  23.885  -5.332  0.00  0.00     0.096 C 
HETATM    3  C   UNK N   1      26.121  24.040  -5.160  0.00  0.00     0.056 C 
HETATM    4  C   UNK N   1      28.421  25.167  -5.046  0.00  0.00     0.056 C 
HETATM    5  C   UNK N   1      25.743  25.458  -4.737  0.00  0.00     0.274 C 
HETATM    6  C   UNK N   1      27.968  25.759  -3.709  0.00  0.00     0.274 C 
ENDROOT
BRANCH   2   7
HETATM    7  N   UNK N   1      27.976  23.307  -6.634  0.00  0.00    -0.313 N 
HETATM    8  C   UNK N   1      28.844  22.234  -6.623  0.00  0.00     0.224 C 
HETATM    9  O   UNK N   1      29.280  21.824  -5.556  0.00  0.00    -0.273 OA
BRANCH   7  10
HETATM   10  C   UNK N   1      27.355  23.848  -7.831  0.00  0.00     0.037 A 
HETATM   11  C   UNK N   1      26.250  23.232  -8.449  0.00  0.00     0.030 A 
HETATM   12  C   UNK N   1      25.646  23.796  -9.579  0.00  0.00     0.002 A 
HETATM   13  C   UNK N   1      26.138  24.985 -10.117  0.00  0.00     0.000 A 
HETATM   14  C   UNK N   1      27.234  25.612  -9.527  0.00  0.00     0.002 A 
HETATM   15  C   UNK N   1      27.830  25.051  -8.395  0.00  0.00     0.030 A 
ENDBRANCH   7  10
BRANCH   8  16
HETATM   16  C   UNK N   1      29.272  21.500  -7.867  0.00  0.00     0.103 C 
BRANCH  16  17
HETATM   17  C   UNK N   1      28.448  20.242  -8.085  0.00  0.00     0.005 C 
HETATM   18  C   UNK N   1      29.314  19.033  -7.794  0.00  0.00     0.005 C 
ENDBRANCH  16  17
ENDBRANCH   8  16
ENDBRANCH   2   7
BRANCH   1  19
HETATM   19  C   UNK N   1      26.203  27.271  -3.320  0.00  0.00     0.277 C 
BRANCH  19  20
HETATM   20  C   UNK N   1      25.706  27.921  -4.603  0.00  0.00     0.068 C 
BRANCH  20  21
HETATM   21  C   UNK N   1      26.783  28.718  -5.263  0.00  0.00    -0.057 A 
HETATM   22  C   UNK N   1      27.229  29.903  -4.665  0.00  0.00     0.007 A 
HETATM   23  C   UNK N   1      28.244  30.652  -5.266  0.00  0.00     0.001 A 
HETATM   24  C   UNK N   1      28.817  30.219  -6.466  0.00  0.00     0.000 A 
HETATM   25  C   UNK N   1      28.376  29.035  -7.064  0.00  0.00     0.001 A 
HETATM   26  C   UNK N   1      27.364  28.284  -6.462  0.00  0.00     0.007 A 
ENDBRANCH  20  21
ENDBRANCH  19  20
ENDBRANCH   1  19
TORSDOF 7
ENDMDL
MODEL 9
REMARK VINA RESULT:      -6.4     13.624     17.454
REMARK  7 active torsions:
REMARK  status: ('A' for Active; 'I' for Inactive)
REMARK    1  A    between atoms: N_2  and  C_9 
REMARK    2  A    between atoms: N_3  and  C_4 
REMARK    3  A    between atoms: N_3  and  C_11 
REMARK       I    between atoms: N_3  and  C_12 
REMARK    4  A    between atoms: C_9  and  C_10 
REMARK    5  A    between atoms: C_10  and  C_14 
REMARK    6  A    between atoms: C_12  and  C_13 
REMARK    7  A    between atoms: C_13  and  C_17 
ROOT
HETATM    1  N   UNK N   1      30.750  28.097  -6.152  0.00  0.00     0.088 N 
HETATM    2  C   UNK N   1      30.503  25.212  -6.113  0.00  0.00     0.096 C 
HETATM    3  C   UNK N   1      30.852  26.010  -4.847  0.00  0.00     0.056 C 
HETATM    4  C   UNK N   1      29.709  26.016  -7.141  0.00  0.00     0.056 C 
HETATM    5  C   UNK N   1      30.317  27.439  -4.915  0.00  0.00     0.274 C 
HETATM    6  C   UNK N   1      30.394  27.364  -7.381  0.00  0.00     0.274 C 
ENDROOT
BRANCH   2   7
HETATM    7  N   UNK N   1      29.859  23.940  -5.784  0.00  0.00    -0.313 N 
HETATM    8  C   UNK N   1      30.667  22.820  -5.805  0.00  0.00     0.224 C 
HETATM    9  O   UNK N   1      31.851  22.939  -6.088  0.00  0.00    -0.273 OA
BRANCH   7  10
HETATM   10  C   UNK N   1      28.454  23.930  -5.414  0.00  0.00     0.037 A 
HETATM   11  C   UNK N   1      28.012  24.294  -4.127  0.00  0.00     0.030 A 
HETATM   12  C   UNK N   1      26.650  24.314  -3.809  0.00  0.00     0.002 A 
HETATM   13  C   UNK N   1      25.700  23.967  -4.770  0.00  0.00     0.000 A 
HETATM   14  C   UNK N   1      26.112  23.599  -6.049  0.00  0.00     0.002 A 
HETATM   15  C   UNK N   1      27.471  23.587  -6.366  0.00  0.00     0.030 A 
ENDBRANCH   7  10
BRANCH   8  16
HETATM   16  C   UNK N   1      30.178  21.438  -5.462  0.00  0.00     0.103 C 
BRANCH  16  17
HETATM   17  C   UNK N   1      30.869  20.890  -4.225  0.00  0.00     0.005 C 
HETATM   18  C   UNK N   1      30.572  21.805  -3.054  0.00  0.00     0.005 C 
ENDBRANCH  16  17
ENDBRANCH   8  16
ENDBRANCH   2   7
BRANCH   1  19
HETATM   19  C   UNK N   1      30.070  29.381  -6.208  0.00  0.00     0.277 C 
BRANCH  19  20
HETATM   20  C   UNK N   1      28.747  29.243  -6.945  0.00  0.00     0.068 C 
BRANCH  20  21
HETATM   21  C   UNK N   1      27.628  28.935  -6.006  0.00  0.00    -0.057 A 
HETATM   22  C   UNK N   1      26.804  27.831  -6.255  0.00  0.00     0.007 A 
HETATM   23  C   UNK N   1      25.760  27.523  -5.377  0.00  0.00     0.001 A 
HETATM   24  C   UNK N   1      25.537  28.318  -4.248  0.00  0.00     0.000 A 
HETATM   25  C   UNK N   1      26.361  29.419  -3.995  0.00  0.00     0.001 A 
HETATM   26  C   UNK N   1      27.406  29.725  -4.870  0.00  0.00     0.007 A 
ENDBRANCH  20  21
ENDBRANCH  19  20
ENDBRANCH   1  19
TORSDOF 7
ENDMDL
