MODEL 1
REMARK VINA RESULT:      -6.4      0.000      0.000
REMARK  7 active torsions:
REMARK  status: ('A' for Active; 'I' for Inactive)
REMARK    1  A    between atoms: C_1  and  C_2 
REMARK       I    between atoms: C_1  and  N_5 
REMARK    2  A    between atoms: N_5  and  C_10 
REMARK    3  A    between atoms: N_5  and  C_17 
REMARK    4  A    between atoms: N_12  and  C_18 
REMARK    5  A    between atoms: C_18  and  C_19 
REMARK    6  A    between atoms: C_19  and  O_20 
REMARK    7  A    between atoms: C_19  and  C_23 
ROOT
HETATM    1  N   UNK N   1      32.823  17.699   6.528  0.00  0.00     0.091 N 
HETATM    2  C   UNK N   1      31.798  16.843   7.145  0.00  0.00     0.274 C 
HETATM    3  C   UNK N   1      32.865  17.653   5.050  0.00  0.00     0.274 C 
HETATM    4  C   UNK N   1      31.472  15.661   6.253  0.00  0.00     0.056 C 
HETATM    5  C   UNK N   1      31.491  17.394   4.413  0.00  0.00     0.056 C 
HETATM    6  C   UNK N   1      30.757  16.158   4.987  0.00  0.00     0.096 C 
ENDROOT
BRANCH   6   7
HETATM    7  N   UNK N   1      29.296  16.260   5.231  0.00  0.00    -0.313 N 
HETATM    8  C   UNK N   1      28.422  15.171   5.153  0.00  0.00     0.224 C 
HETATM    9  O   UNK N   1      27.228  15.319   5.358  0.00  0.00    -0.273 OA
BRANCH   8  10
HETATM   10  C   UNK N   1      28.869  13.765   4.869  0.00  0.00     0.099 C 
HETATM   11  C   UNK N   1      28.727  13.429   3.398  0.00  0.00     0.014 C 
ENDBRANCH   8  10
BRANCH   7  12
HETATM   12  C   UNK N   1      28.788  17.588   5.562  0.00  0.00     0.037 A 
HETATM   13  C   UNK N   1      28.397  18.477   4.535  0.00  0.00     0.030 A 
HETATM   14  C   UNK N   1      27.861  19.732   4.825  0.00  0.00     0.002 A 
HETATM   15  C   UNK N   1      27.700  20.131   6.150  0.00  0.00     0.000 A 
HETATM   16  C   UNK N   1      28.085  19.278   7.184  0.00  0.00     0.002 A 
HETATM   17  C   UNK N   1      28.623  18.022   6.892  0.00  0.00     0.030 A 
ENDBRANCH   7  12
ENDBRANCH   6   7
BRANCH   1  18
HETATM   18  C   UNK N   1      34.144  17.342   7.054  0.00  0.00     0.309 C 
BRANCH  18  19
HETATM   19  C   UNK N   1      34.365  17.847   8.485  0.00  0.00     0.186 C 
BRANCH  19  20
HETATM   20  O   UNK N   1      35.202  18.966   8.476  0.00  0.00    -0.389 OA
HETATM   21  H   UNK N   1      34.952  19.898   8.577  0.00  0.00     0.210 HD
ENDBRANCH  19  20
BRANCH  19  22
HETATM   22  C   UNK N   1      34.920  16.763   9.347  0.00  0.00     0.013 A 
HETATM   23  S   UNK N   1      35.092  15.181   8.902  0.00  0.00    -0.104 SA
HETATM   24  C   UNK N   1      35.721  14.556  10.304  0.00  0.00     0.050 A 
HETATM   25  C   UNK N   1      35.809  15.633  11.200  0.00  0.00     0.008 A 
HETATM   26  C   UNK N   1      35.358  16.873  10.665  0.00  0.00     0.018 A 
ENDBRANCH  19  22
ENDBRANCH  18  19
ENDBRANCH   1  18
TORSDOF 7
ENDMDL
MODEL 2
REMARK VINA RESULT:      -6.3      2.320      4.094
REMARK  7 active torsions:
REMARK  status: ('A' for Active; 'I' for Inactive)
REMARK    1  A    between atoms: C_1  and  C_2 
REMARK       I    between atoms: C_1  and  N_5 
REMARK    2  A    between atoms: N_5  and  C_10 
REMARK    3  A    between atoms: N_5  and  C_17 
REMARK    4  A    between atoms: N_12  and  C_18 
REMARK    5  A    between atoms: C_18  and  C_19 
REMARK    6  A    between atoms: C_19  and  O_20 
REMARK    7  A    between atoms: C_19  and  C_23 
ROOT
HETATM    1  N   UNK N   1      34.000  16.209   9.395  0.00  0.00     0.091 N 
HETATM    2  C   UNK N   1      32.979  15.355   8.768  0.00  0.00     0.274 C 
HETATM    3  C   UNK N   1      34.394  17.393   8.601  0.00  0.00     0.274 C 
HETATM    4  C   UNK N   1      33.028  15.474   7.257  0.00  0.00     0.056 C 
HETATM    5  C   UNK N   1      33.254  17.946   7.731  0.00  0.00     0.056 C 
HETATM    6  C   UNK N   1      32.573  16.880   6.840  0.00  0.00     0.096 C 
ENDROOT
BRANCH   6   7
HETATM    7  N   UNK N   1      31.094  16.920   6.703  0.00  0.00    -0.313 N 
HETATM    8  C   UNK N   1      30.246  17.496   7.654  0.00  0.00     0.224 C 
HETATM    9  O   UNK N   1      29.037  17.492   7.488  0.00  0.00    -0.273 OA
BRANCH   8  10
HETATM   10  C   UNK N   1      30.737  18.190   8.892  0.00  0.00     0.099 C 
HETATM   11  C   UNK N   1      29.581  18.613   9.779  0.00  0.00     0.014 C 
ENDBRANCH   8  10
BRANCH   7  12
HETATM   12  C   UNK N   1      30.541  16.307   5.499  0.00  0.00     0.037 A 
HETATM   13  C   UNK N   1      30.571  17.002   4.269  0.00  0.00     0.030 A 
HETATM   14  C   UNK N   1      30.095  16.420   3.093  0.00  0.00     0.002 A 
HETATM   15  C   UNK N   1      29.579  15.125   3.117  0.00  0.00     0.000 A 
HETATM   16  C   UNK N   1      29.529  14.419   4.318  0.00  0.00     0.002 A 
HETATM   17  C   UNK N   1      30.005  15.005   5.495  0.00  0.00     0.030 A 
ENDBRANCH   7  12
ENDBRANCH   6   7
BRANCH   1  18
HETATM   18  C   UNK N   1      35.195  15.413   9.688  0.00  0.00     0.309 C 
BRANCH  18  19
HETATM   19  C   UNK N   1      35.832  15.779  11.034  0.00  0.00     0.186 C 
BRANCH  19  20
HETATM   20  O   UNK N   1      37.170  16.139  10.850  0.00  0.00    -0.389 OA
HETATM   21  H   UNK N   1      37.865  15.637  10.397  0.00  0.00     0.210 HD
ENDBRANCH  19  20
BRANCH  19  22
HETATM   22  C   UNK N   1      35.704  14.652  12.003  0.00  0.00     0.013 A 
HETATM   23  S   UNK N   1      34.930  13.222  11.710  0.00  0.00    -0.104 SA
HETATM   24  C   UNK N   1      35.142  12.475  13.176  0.00  0.00     0.050 A 
HETATM   25  C   UNK N   1      35.859  13.383  13.970  0.00  0.00     0.008 A 
HETATM   26  C   UNK N   1      36.173  14.608  13.315  0.00  0.00     0.018 A 
ENDBRANCH  19  22
ENDBRANCH  18  19
ENDBRANCH   1  18
TORSDOF 7
ENDMDL
MODEL 3
REMARK VINA RESULT:      -6.3      3.763      9.052
REMARK  7 active torsions:
REMARK  status: ('A' for Active; 'I' for Inactive)
REMARK    1  A    between atoms: C_1  and  C_2 
REMARK       I    between atoms: C_1  and  N_5 
REMARK    2  A    between atoms: N_5  and  C_10 
REMARK    3  A    between atoms: N_5  and  C_17 
REMARK    4  A    between atoms: N_12  and  C_18 
REMARK    5  A    between atoms: C_18  and  C_19 
REMARK    6  A    between atoms: C_19  and  O_20 
REMARK    7  A    between atoms: C_19  and  C_23 
ROOT
HETATM    1  N   UNK N   1      34.851  15.871   9.132  0.00  0.00     0.091 N 
HETATM    2  C   UNK N   1      34.394  14.513   9.467  0.00  0.00     0.274 C 
HETATM    3  C   UNK N   1      35.328  16.669  10.282  0.00  0.00     0.274 C 
HETATM    4  C   UNK N   1      33.901  14.447  10.899  0.00  0.00     0.056 C 
HETATM    5  C   UNK N   1      35.969  15.815  11.386  0.00  0.00     0.056 C 
HETATM    6  C   UNK N   1      35.087  14.634  11.857  0.00  0.00     0.096 C 
ENDROOT
BRANCH   6   7
HETATM    7  N   UNK N   1      35.743  13.328  12.120  0.00  0.00    -0.313 N 
HETATM    8  C   UNK N   1      36.915  12.911  11.482  0.00  0.00     0.224 C 
HETATM    9  O   UNK N   1      37.404  11.822  11.735  0.00  0.00    -0.273 OA
BRANCH   8  10
HETATM   10  C   UNK N   1      37.675  13.760  10.502  0.00  0.00     0.099 C 
HETATM   11  C   UNK N   1      38.982  13.102  10.103  0.00  0.00     0.014 C 
ENDBRANCH   8  10
BRANCH   7  12
HETATM   12  C   UNK N   1      35.091  12.463  13.098  0.00  0.00     0.037 A 
HETATM   13  C   UNK N   1      34.462  11.268  12.684  0.00  0.00     0.030 A 
HETATM   14  C   UNK N   1      33.876  10.398  13.606  0.00  0.00     0.002 A 
HETATM   15  C   UNK N   1      33.906  10.701  14.966  0.00  0.00     0.000 A 
HETATM   16  C   UNK N   1      34.513  11.878  15.402  0.00  0.00     0.002 A 
HETATM   17  C   UNK N   1      35.098  12.748  14.478  0.00  0.00     0.030 A 
ENDBRANCH   7  12
ENDBRANCH   6   7
BRANCH   1  18
HETATM   18  C   UNK N   1      33.772  16.602   8.459  0.00  0.00     0.309 C 
BRANCH  18  19
HETATM   19  C   UNK N   1      34.233  17.268   7.158  0.00  0.00     0.186 C 
BRANCH  19  20
HETATM   20  O   UNK N   1      34.746  18.541   7.425  0.00  0.00    -0.389 OA
HETATM   21  H   UNK N   1      35.314  18.811   8.164  0.00  0.00     0.210 HD
ENDBRANCH  19  20
BRANCH  19  22
HETATM   22  C   UNK N   1      33.115  17.333   6.173  0.00  0.00     0.013 A 
HETATM   23  S   UNK N   1      31.525  17.038   6.511  0.00  0.00    -0.104 SA
HETATM   24  C   UNK N   1      30.866  17.253   5.003  0.00  0.00     0.050 A 
HETATM   25  C   UNK N   1      31.939  17.573   4.157  0.00  0.00     0.008 A 
HETATM   26  C   UNK N   1      33.203  17.616   4.811  0.00  0.00     0.018 A 
ENDBRANCH  19  22
ENDBRANCH  18  19
ENDBRANCH   1  18
TORSDOF 7
ENDMDL
MODEL 4
REMARK VINA RESULT:      -6.2      2.661      3.779
REMARK  7 active torsions:
REMARK  status: ('A' for Active; 'I' for Inactive)
REMARK    1  A    between atoms: C_1  and  C_2 
REMARK       I    between atoms: C_1  and  N_5 
REMARK    2  A    between atoms: N_5  and  C_10 
REMARK    3  A    between atoms: N_5  and  C_17 
REMARK    4  A    between atoms: N_12  and  C_18 
REMARK    5  A    between atoms: C_18  and  C_19 
REMARK    6  A    between atoms: C_19  and  O_20 
REMARK    7  A    between atoms: C_19  and  C_23 
ROOT
HETATM    1  N   UNK N   1      33.922  16.151   9.561  0.00  0.00     0.091 N 
HETATM    2  C   UNK N   1      32.958  15.489   8.669  0.00  0.00     0.274 C 
HETATM    3  C   UNK N   1      34.646  17.293   8.960  0.00  0.00     0.274 C 
HETATM    4  C   UNK N   1      33.360  15.660   7.217  0.00  0.00     0.056 C 
HETATM    5  C   UNK N   1      33.818  18.047   7.908  0.00  0.00     0.056 C 
HETATM    6  C   UNK N   1      33.211  17.135   6.815  0.00  0.00     0.096 C 
ENDROOT
BRANCH   6   7
HETATM    7  N   UNK N   1      31.821  17.405   6.366  0.00  0.00    -0.313 N 
HETATM    8  C   UNK N   1      31.451  17.516   5.022  0.00  0.00     0.224 C 
HETATM    9  O   UNK N   1      30.292  17.746   4.716  0.00  0.00    -0.273 OA
BRANCH   8  10
HETATM   10  C   UNK N   1      32.405  17.317   3.879  0.00  0.00     0.099 C 
HETATM   11  C   UNK N   1      32.372  15.886   3.378  0.00  0.00     0.014 C 
ENDBRANCH   8  10
BRANCH   7  12
HETATM   12  C   UNK N   1      30.822  17.563   7.419  0.00  0.00     0.037 A 
HETATM   13  C   UNK N   1      31.024  18.501   8.457  0.00  0.00     0.030 A 
HETATM   14  C   UNK N   1      30.062  18.708   9.446  0.00  0.00     0.002 A 
HETATM   15  C   UNK N   1      28.872  17.982   9.424  0.00  0.00     0.000 A 
HETATM   16  C   UNK N   1      28.650  17.043   8.417  0.00  0.00     0.002 A 
HETATM   17  C   UNK N   1      29.615  16.837   7.427  0.00  0.00     0.030 A 
ENDBRANCH   7  12
ENDBRANCH   6   7
BRANCH   1  18
HETATM   18  C   UNK N   1      34.898  15.171  10.046  0.00  0.00     0.309 C 
BRANCH  18  19
HETATM   19  C   UNK N   1      35.674  15.668  11.272  0.00  0.00     0.186 C 
BRANCH  19  20
HETATM   20  O   UNK N   1      36.946  16.105  10.890  0.00  0.00    -0.389 OA
HETATM   21  H   UNK N   1      37.461  15.834  10.114  0.00  0.00     0.210 HD
ENDBRANCH  19  20
BRANCH  19  22
HETATM   22  C   UNK N   1      35.759  14.601  12.311  0.00  0.00     0.013 A 
HETATM   23  S   UNK N   1      35.116  13.085  12.181  0.00  0.00    -0.104 SA
HETATM   24  C   UNK N   1      35.545  12.463  13.657  0.00  0.00     0.050 A 
HETATM   25  C   UNK N   1      36.235  13.489  14.321  0.00  0.00     0.008 A 
HETATM   26  C   UNK N   1      36.354  14.692  13.568  0.00  0.00     0.018 A 
ENDBRANCH  19  22
ENDBRANCH  18  19
ENDBRANCH   1  18
TORSDOF 7
ENDMDL
MODEL 5
REMARK VINA RESULT:      -6.2     11.835     13.982
REMARK  7 active torsions:
REMARK  status: ('A' for Active; 'I' for Inactive)
REMARK    1  A    between atoms: C_1  and  C_2 
REMARK       I    between atoms: C_1  and  N_5 
REMARK    2  A    between atoms: N_5  and  C_10 
REMARK    3  A    between atoms: N_5  and  C_17 
REMARK    4  A    between atoms: N_12  and  C_18 
REMARK    5  A    between atoms: C_18  and  C_19 
REMARK    6  A    between atoms: C_19  and  O_20 
REMARK    7  A    between atoms: C_19  and  C_23 
ROOT
HETATM    1  N   UNK N   1      30.529  24.099  -4.369  0.00  0.00     0.091 N 
HETATM    2  C   UNK N   1      29.438  23.118  -4.479  0.00  0.00     0.274 C 
HETATM    3  C   UNK N   1      30.680  24.996  -5.536  0.00  0.00     0.274 C 
HETATM    4  C   UNK N   1      29.148  22.793  -5.931  0.00  0.00     0.056 C 
HETATM    5  C   UNK N   1      29.351  25.292  -6.247  0.00  0.00     0.056 C 
HETATM    6  C   UNK N   1      28.544  24.026  -6.620  0.00  0.00     0.096 C 
ENDROOT
BRANCH   6   7
HETATM    7  N   UNK N   1      27.071  24.050  -6.427  0.00  0.00    -0.313 N 
HETATM    8  C   UNK N   1      26.212  23.061  -6.917  0.00  0.00     0.224 C 
HETATM    9  O   UNK N   1      25.008  23.140  -6.731  0.00  0.00    -0.273 OA
BRANCH   8  10
HETATM   10  C   UNK N   1      26.685  21.835  -7.643  0.00  0.00     0.099 C 
HETATM   11  C   UNK N   1      25.517  20.994  -8.121  0.00  0.00     0.014 C 
ENDBRANCH   8  10
BRANCH   7  12
HETATM   12  C   UNK N   1      26.536  25.188  -5.686  0.00  0.00     0.037 A 
HETATM   13  C   UNK N   1      26.680  25.255  -4.282  0.00  0.00     0.030 A 
HETATM   14  C   UNK N   1      26.223  26.355  -3.556  0.00  0.00     0.002 A 
HETATM   15  C   UNK N   1      25.611  27.419  -4.215  0.00  0.00     0.000 A 
HETATM   16  C   UNK N   1      25.447  27.377  -5.599  0.00  0.00     0.002 A 
HETATM   17  C   UNK N   1      25.905  26.273  -6.325  0.00  0.00     0.030 A 
ENDBRANCH   7  12
ENDBRANCH   6   7
BRANCH   1  18
HETATM   18  C   UNK N   1      31.796  23.402  -4.136  0.00  0.00     0.309 C 
BRANCH  18  19
HETATM   19  C   UNK N   1      31.604  22.038  -3.461  0.00  0.00     0.186 C 
BRANCH  19  20
HETATM   20  O   UNK N   1      31.716  22.169  -2.074  0.00  0.00    -0.389 OA
HETATM   21  H   UNK N   1      31.326  22.853  -1.507  0.00  0.00     0.210 HD
ENDBRANCH  19  20
BRANCH  19  22
HETATM   22  C   UNK N   1      32.582  21.044  -3.990  0.00  0.00     0.013 A 
HETATM   23  S   UNK N   1      32.445  20.239  -5.426  0.00  0.00    -0.104 SA
HETATM   24  C   UNK N   1      33.817  19.308  -5.366  0.00  0.00     0.050 A 
HETATM   25  C   UNK N   1      34.442  19.624  -4.149  0.00  0.00     0.008 A 
HETATM   26  C   UNK N   1      33.750  20.597  -3.374  0.00  0.00     0.018 A 
ENDBRANCH  19  22
ENDBRANCH  18  19
ENDBRANCH   1  18
TORSDOF 7
ENDMDL
MODEL 6
REMARK VINA RESULT:      -6.1      9.926     11.611
REMARK  7 active torsions:
REMARK  status: ('A' for Active; 'I' for Inactive)
REMARK    1  A    between atoms: C_1  and  C_2 
REMARK       I    between atoms: C_1  and  N_5 
REMARK    2  A    between atoms: N_5  and  C_10 
REMARK    3  A    between atoms: N_5  and  C_17 
REMARK    4  A    between atoms: N_12  and  C_18 
REMARK    5  A    between atoms: C_18  and  C_19 
REMARK    6  A    between atoms: C_19  and  O_20 
REMARK    7  A    between atoms: C_19  and  C_23 
ROOT
HETATM    1  N   UNK N   1      21.348  14.639   6.035  0.00  0.00     0.091 N 
HETATM    2  C   UNK N   1      21.797  15.820   5.279  0.00  0.00     0.274 C 
HETATM    3  C   UNK N   1      19.924  14.285   5.850  0.00  0.00     0.274 C 
HETATM    4  C   UNK N   1      20.641  16.766   5.019  0.00  0.00     0.056 C 
HETATM    5  C   UNK N   1      19.388  14.645   4.456  0.00  0.00     0.056 C 
HETATM    6  C   UNK N   1      19.654  16.111   4.040  0.00  0.00     0.096 C 
ENDROOT
BRANCH   6   7
HETATM    7  N   UNK N   1      20.069  16.380   2.639  0.00  0.00    -0.313 N 
HETATM    8  C   UNK N   1      19.961  17.633   2.029  0.00  0.00     0.224 C 
HETATM    9  O   UNK N   1      20.313  17.790   0.871  0.00  0.00    -0.273 OA
BRANCH   8  10
HETATM   10  C   UNK N   1      19.467  18.862   2.737  0.00  0.00     0.099 C 
HETATM   11  C   UNK N   1      20.490  19.980   2.675  0.00  0.00     0.014 C 
ENDBRANCH   8  10
BRANCH   7  12
HETATM   12  C   UNK N   1      20.607  15.244   1.897  0.00  0.00     0.037 A 
HETATM   13  C   UNK N   1      22.001  15.014   1.860  0.00  0.00     0.030 A 
HETATM   14  C   UNK N   1      22.537  13.907   1.200  0.00  0.00     0.002 A 
HETATM   15  C   UNK N   1      21.693  13.001   0.561  0.00  0.00     0.000 A 
HETATM   16  C   UNK N   1      20.314  13.208   0.574  0.00  0.00     0.002 A 
HETATM   17  C   UNK N   1      19.779  14.317   1.235  0.00  0.00     0.030 A 
ENDBRANCH   7  12
ENDBRANCH   6   7
BRANCH   1  18
HETATM   18  C   UNK N   1      21.608  14.842   7.463  0.00  0.00     0.309 C 
BRANCH  18  19
HETATM   19  C   UNK N   1      20.962  13.762   8.339  0.00  0.00     0.186 C 
BRANCH  19  20
HETATM   20  O   UNK N   1      19.867  14.292   9.027  0.00  0.00    -0.389 OA
HETATM   21  H   UNK N   1      19.309  15.043   8.771  0.00  0.00     0.210 HD
ENDBRANCH  19  20
BRANCH  19  22
HETATM   22  C   UNK N   1      21.961  13.179   9.281  0.00  0.00     0.013 A 
HETATM   23  S   UNK N   1      23.589  13.086   9.012  0.00  0.00    -0.104 SA
HETATM   24  C   UNK N   1      24.068  12.327  10.407  0.00  0.00     0.050 A 
HETATM   25  C   UNK N   1      22.897  12.115  11.151  0.00  0.00     0.008 A 
HETATM   26  C   UNK N   1      21.712  12.591  10.519  0.00  0.00     0.018 A 
ENDBRANCH  19  22
ENDBRANCH  18  19
ENDBRANCH   1  18
TORSDOF 7
ENDMDL
MODEL 7
REMARK VINA RESULT:      -6.1     11.916     14.545
REMARK  7 active torsions:
REMARK  status: ('A' for Active; 'I' for Inactive)
REMARK    1  A    between atoms: C_1  and  C_2 
REMARK       I    between atoms: C_1  and  N_5 
REMARK    2  A    between atoms: N_5  and  C_10 
REMARK    3  A    between atoms: N_5  and  C_17 
REMARK    4  A    between atoms: N_12  and  C_18 
REMARK    5  A    between atoms: C_18  and  C_19 
REMARK    6  A    between atoms: C_19  and  O_20 
REMARK    7  A    between atoms: C_19  and  C_23 
ROOT
HETATM    1  N   UNK N   1      29.405  23.470  -4.321  0.00  0.00     0.091 N 
HETATM    2  C   UNK N   1      29.162  24.543  -5.299  0.00  0.00     0.274 C 
HETATM    3  C   UNK N   1      28.627  23.581  -3.069  0.00  0.00     0.274 C 
HETATM    4  C   UNK N   1      28.712  25.814  -4.606  0.00  0.00     0.056 C 
HETATM    5  C   UNK N   1      27.255  24.243  -3.266  0.00  0.00     0.056 C 
HETATM    6  C   UNK N   1      27.315  25.602  -4.005  0.00  0.00     0.096 C 
ENDROOT
BRANCH   6   7
HETATM    7  N   UNK N   1      26.272  25.896  -5.020  0.00  0.00    -0.313 N 
HETATM    8  C   UNK N   1      25.460  27.034  -4.987  0.00  0.00     0.224 C 
HETATM    9  O   UNK N   1      24.614  27.217  -5.848  0.00  0.00    -0.273 OA
BRANCH   8  10
HETATM   10  C   UNK N   1      25.591  28.117  -3.954  0.00  0.00     0.099 C 
HETATM   11  C   UNK N   1      26.544  29.203  -4.413  0.00  0.00     0.014 C 
ENDBRANCH   8  10
BRANCH   7  12
HETATM   12  C   UNK N   1      26.116  24.913  -6.088  0.00  0.00     0.037 A 
HETATM   13  C   UNK N   1      25.755  23.581  -5.783  0.00  0.00     0.030 A 
HETATM   14  C   UNK N   1      25.549  22.635  -6.788  0.00  0.00     0.002 A 
HETATM   15  C   UNK N   1      25.698  22.997  -8.126  0.00  0.00     0.000 A 
HETATM   16  C   UNK N   1      26.062  24.302  -8.456  0.00  0.00     0.002 A 
HETATM   17  C   UNK N   1      26.268  25.247  -7.448  0.00  0.00     0.030 A 
ENDBRANCH   7  12
ENDBRANCH   6   7
BRANCH   1  18
HETATM   18  C   UNK N   1      30.833  23.418  -3.993  0.00  0.00     0.309 C 
BRANCH  18  19
HETATM   19  C   UNK N   1      31.223  22.127  -3.263  0.00  0.00     0.186 C 
BRANCH  19  20
HETATM   20  O   UNK N   1      31.326  22.364  -1.889  0.00  0.00    -0.389 OA
HETATM   21  H   UNK N   1      31.606  21.745  -1.197  0.00  0.00     0.210 HD
ENDBRANCH  19  20
BRANCH  19  22
HETATM   22  C   UNK N   1      32.496  21.575  -3.812  0.00  0.00     0.013 A 
HETATM   23  S   UNK N   1      32.913  21.542  -5.410  0.00  0.00    -0.104 SA
HETATM   24  C   UNK N   1      34.389  20.792  -5.306  0.00  0.00     0.050 A 
HETATM   25  C   UNK N   1      34.594  20.533  -3.942  0.00  0.00     0.008 A 
HETATM   26  C   UNK N   1      33.531  20.970  -3.101  0.00  0.00     0.018 A 
ENDBRANCH  19  22
ENDBRANCH  18  19
ENDBRANCH   1  18
TORSDOF 7
ENDMDL
MODEL 8
REMARK VINA RESULT:      -6.1      2.488      4.183
REMARK  7 active torsions:
REMARK  status: ('A' for Active; 'I' for Inactive)
REMARK    1  A    between atoms: C_1  and  C_2 
REMARK       I    between atoms: C_1  and  N_5 
REMARK    2  A    between atoms: N_5  and  C_10 
REMARK    3  A    between atoms: N_5  and  C_17 
REMARK    4  A    between atoms: N_12  and  C_18 
REMARK    5  A    between atoms: C_18  and  C_19 
REMARK    6  A    between atoms: C_19  and  O_20 
REMARK    7  A    between atoms: C_19  and  C_23 
ROOT
HETATM    1  N   UNK N   1      34.126  15.639   8.262  0.00  0.00     0.091 N 
HETATM    2  C   UNK N   1      33.283  16.842   8.355  0.00  0.00     0.274 C 
HETATM    3  C   UNK N   1      33.392  14.383   7.996  0.00  0.00     0.274 C 
HETATM    4  C   UNK N   1      31.880  16.484   8.804  0.00  0.00     0.056 C 
HETATM    5  C   UNK N   1      32.126  14.589   7.150  0.00  0.00     0.056 C 
HETATM    6  C   UNK N   1      31.178  15.682   7.698  0.00  0.00     0.096 C 
ENDROOT
BRANCH   6   7
HETATM    7  N   UNK N   1      30.534  16.604   6.728  0.00  0.00    -0.313 N 
HETATM    8  C   UNK N   1      29.392  17.357   7.018  0.00  0.00     0.224 C 
HETATM    9  O   UNK N   1      28.904  18.093   6.176  0.00  0.00    -0.273 OA
BRANCH   8  10
HETATM   10  C   UNK N   1      28.720  17.362   8.362  0.00  0.00     0.099 C 
HETATM   11  C   UNK N   1      28.990  18.656   9.106  0.00  0.00     0.014 C 
ENDBRANCH   8  10
BRANCH   7  12
HETATM   12  C   UNK N   1      31.157  16.693   5.410  0.00  0.00     0.037 A 
HETATM   13  C   UNK N   1      30.617  15.978   4.318  0.00  0.00     0.030 A 
HETATM   14  C   UNK N   1      31.163  16.085   3.038  0.00  0.00     0.002 A 
HETATM   15  C   UNK N   1      32.262  16.912   2.817  0.00  0.00     0.000 A 
HETATM   16  C   UNK N   1      32.821  17.623   3.878  0.00  0.00     0.002 A 
HETATM   17  C   UNK N   1      32.274  17.513   5.159  0.00  0.00     0.030 A 
ENDBRANCH   7  12
ENDBRANCH   6   7
BRANCH   1  18
HETATM   18  C   UNK N   1      34.901  15.485   9.497  0.00  0.00     0.309 C 
BRANCH  18  19
HETATM   19  C   UNK N   1      34.362  14.367  10.397  0.00  0.00     0.186 C 
BRANCH  19  20
HETATM   20  O   UNK N   1      33.484  14.896  11.347  0.00  0.00    -0.389 OA
HETATM   21  H   UNK N   1      32.877  14.415  11.931  0.00  0.00     0.210 HD
ENDBRANCH  19  20
BRANCH  19  22
HETATM   22  C   UNK N   1      35.482  13.628  11.049  0.00  0.00     0.013 A 
HETATM   23  S   UNK N   1      35.619  13.334  12.669  0.00  0.00    -0.104 SA
HETATM   24  C   UNK N   1      37.065  12.521  12.691  0.00  0.00     0.050 A 
HETATM   25  C   UNK N   1      37.496  12.464  11.357  0.00  0.00     0.008 A 
HETATM   26  C   UNK N   1      36.610  13.088  10.433  0.00  0.00     0.018 A 
ENDBRANCH  19  22
ENDBRANCH  18  19
ENDBRANCH   1  18
TORSDOF 7
ENDMDL
MODEL 9
REMARK VINA RESULT:      -6.1      4.485      7.021
REMARK  7 active torsions:
REMARK  status: ('A' for Active; 'I' for Inactive)
REMARK    1  A    between atoms: C_1  and  C_2 
REMARK       I    between atoms: C_1  and  N_5 
REMARK    2  A    between atoms: N_5  and  C_10 
REMARK    3  A    between atoms: N_5  and  C_17 
REMARK    4  A    between atoms: N_12  and  C_18 
REMARK    5  A    between atoms: C_18  and  C_19 
REMARK    6  A    between atoms: C_19  and  O_20 
REMARK    7  A    between atoms: C_19  and  C_23 
ROOT
HETATM    1  N   UNK N   1      34.896  14.031  12.002  0.00  0.00     0.091 N 
HETATM    2  C   UNK N   1      34.713  13.320  10.726  0.00  0.00     0.274 C 
HETATM    3  C   UNK N   1      35.865  15.147  11.959  0.00  0.00     0.274 C 
HETATM    4  C   UNK N   1      35.958  13.425   9.866  0.00  0.00     0.056 C 
HETATM    5  C   UNK N   1      35.924  15.845  10.592  0.00  0.00     0.056 C 
HETATM    6  C   UNK N   1      36.138  14.878   9.403  0.00  0.00     0.096 C 
ENDROOT
BRANCH   6   7
HETATM    7  N   UNK N   1      35.368  15.117   8.156  0.00  0.00    -0.313 N 
HETATM    8  C   UNK N   1      35.696  14.544   6.924  0.00  0.00     0.224 C 
HETATM    9  O   UNK N   1      35.027  14.784   5.931  0.00  0.00    -0.273 OA
BRANCH   8  10
HETATM   10  C   UNK N   1      36.830  13.577   6.733  0.00  0.00     0.099 C 
HETATM   11  C   UNK N   1      37.919  14.173   5.862  0.00  0.00     0.014 C 
ENDBRANCH   8  10
BRANCH   7  12
HETATM   12  C   UNK N   1      34.218  16.009   8.269  0.00  0.00     0.037 A 
HETATM   13  C   UNK N   1      34.365  17.394   8.028  0.00  0.00     0.030 A 
HETATM   14  C   UNK N   1      33.272  18.261   8.079  0.00  0.00     0.002 A 
HETATM   15  C   UNK N   1      32.003  17.765   8.371  0.00  0.00     0.000 A 
HETATM   16  C   UNK N   1      31.830  16.404   8.622  0.00  0.00     0.002 A 
HETATM   17  C   UNK N   1      32.925  15.538   8.571  0.00  0.00     0.030 A 
ENDBRANCH   7  12
ENDBRANCH   6   7
BRANCH   1  18
HETATM   18  C   UNK N   1      35.308  13.081  13.040  0.00  0.00     0.309 C 
BRANCH  18  19
HETATM   19  C   UNK N   1      36.636  13.470  13.701  0.00  0.00     0.186 C 
BRANCH  19  20
HETATM   20  O   UNK N   1      37.557  12.426  13.581  0.00  0.00    -0.389 OA
HETATM   21  H   UNK N   1      37.712  11.693  14.197  0.00  0.00     0.210 HD
ENDBRANCH  19  20
BRANCH  19  22
HETATM   22  C   UNK N   1      36.424  13.841  15.131  0.00  0.00     0.013 A 
HETATM   23  S   UNK N   1      35.352  13.117  16.158  0.00  0.00    -0.104 SA
HETATM   24  C   UNK N   1      35.614  14.016  17.527  0.00  0.00     0.050 A 
HETATM   25  C   UNK N   1      36.598  14.958  17.187  0.00  0.00     0.008 A 
HETATM   26  C   UNK N   1      37.053  14.863  15.841  0.00  0.00     0.018 A 
ENDBRANCH  19  22
ENDBRANCH  18  19
ENDBRANCH   1  18
TORSDOF 7
ENDMDL
