REMARK  7 active torsions:
REMARK  status: ('A' for Active; 'I' for Inactive)
REMARK    1  A    between atoms: C_19  and  C_4 
REMARK    2  A    between atoms: C_16  and  C_15 
REMARK    3  A    between atoms: C_20  and  C_15 
REMARK    4  A    between atoms: N_21  and  C_16 
REMARK    5  A    between atoms: C_20  and  C_17 
REMARK    6  A    between atoms: C_20  and  C_18 
REMARK    7  A    between atoms: C_20  and  C_19 
ROOT
HETATM    1  C   UNK N   1       3.343   3.759  -0.527  0.00  0.00     0.076 C 
ENDROOT
BRANCH   1   2
HETATM    2  C   UNK N   1       4.136   3.797  -1.862  0.00  0.00     0.057 C 
BRANCH   2   3
HETATM    3  C   UNK N   1       5.644   3.504  -1.741  0.00  0.00     0.273 C 
BRANCH   3   4
HETATM    4  N   UNK N   1       6.279   4.277  -0.683  0.00  0.00     0.080 N 
HETATM    5  C   UNK N   1       6.817   5.491  -1.268  0.00  0.00     0.309 C 
HETATM    6  C   UNK N   1       7.403   3.499  -0.196  0.00  0.00     0.309 C 
ENDBRANCH   3   4
ENDBRANCH   2   3
ENDBRANCH   1   2
BRANCH   1   7
HETATM    7  C   UNK N   1       3.704   2.438   0.179  0.00  0.00    -0.037 A 
HETATM    8  C   UNK N   1       4.357   2.385   1.422  0.00  0.00     0.009 A 
HETATM    9  C   UNK N   1       4.702   1.159   1.998  0.00  0.00     0.001 A 
HETATM   10  C   UNK N   1       4.395  -0.034   1.342  0.00  0.00     0.000 A 
HETATM   11  C   UNK N   1       3.743  -0.003   0.109  0.00  0.00     0.001 A 
HETATM   12  C   UNK N   1       3.406   1.223  -0.470  0.00  0.00     0.009 A 
ENDBRANCH   1   7
BRANCH   1  13
HETATM   13  C   UNK N   1       3.616   5.093   0.191  0.00  0.00    -0.037 A 
HETATM   14  C   UNK N   1       3.291   6.294  -0.476  0.00  0.00     0.009 A 
HETATM   15  C   UNK N   1       3.522   7.534   0.122  0.00  0.00     0.001 A 
HETATM   16  C   UNK N   1       4.081   7.598   1.398  0.00  0.00     0.000 A 
HETATM   17  C   UNK N   1       4.406   6.422   2.076  0.00  0.00     0.001 A 
HETATM   18  C   UNK N   1       4.174   5.180   1.478  0.00  0.00     0.009 A 
ENDBRANCH   1  13
BRANCH   1  19
HETATM   19  C   UNK N   1       1.842   3.724  -0.795  0.00  0.00     0.144 C 
HETATM   20  O   UNK N   1       1.410   3.718  -1.939  0.00  0.00    -0.296 OA
BRANCH  19  21
HETATM   21  C   UNK N   1       0.877   3.716   0.355  0.00  0.00     0.075 C 
HETATM   22  C   UNK N   1       0.053   2.442   0.354  0.00  0.00     0.013 C 
ENDBRANCH  19  21
ENDBRANCH   1  19
TORSDOF 7
