MODEL 1
REMARK VINA RESULT:      -6.2      0.000      0.000
REMARK  7 active torsions:
REMARK  status: ('A' for Active; 'I' for Inactive)
REMARK    1  A    between atoms: C_19  and  C_4 
REMARK    2  A    between atoms: C_16  and  C_15 
REMARK    3  A    between atoms: C_20  and  C_15 
REMARK    4  A    between atoms: N_21  and  C_16 
REMARK    5  A    between atoms: C_20  and  C_17 
REMARK    6  A    between atoms: C_20  and  C_18 
REMARK    7  A    between atoms: C_20  and  C_19 
ROOT
HETATM    1  C   UNK N   1      36.215  12.071  15.135  0.00  0.00     0.076 C 
ENDROOT
BRANCH   1   2
HETATM    2  C   UNK N   1      37.342  12.164  14.070  0.00  0.00     0.057 C 
BRANCH   2   3
HETATM    3  C   UNK N   1      36.900  11.896  12.619  0.00  0.00     0.273 C 
BRANCH   3   4
HETATM    4  N   UNK N   1      37.122  13.042  11.748  0.00  0.00     0.080 N 
HETATM    5  C   UNK N   1      35.988  13.157  10.851  0.00  0.00     0.309 C 
HETATM    6  C   UNK N   1      38.287  12.747  10.935  0.00  0.00     0.309 C 
ENDBRANCH   3   4
ENDBRANCH   2   3
ENDBRANCH   1   2
BRANCH   1   7
HETATM    7  C   UNK N   1      36.347  10.697  15.819  0.00  0.00    -0.037 A 
HETATM    8  C   UNK N   1      35.555  10.303  16.911  0.00  0.00     0.009 A 
HETATM    9  C   UNK N   1      35.747   9.061  17.523  0.00  0.00     0.001 A 
HETATM   10  C   UNK N   1      36.730   8.191  17.050  0.00  0.00     0.000 A 
HETATM   11  C   UNK N   1      37.523   8.561  15.964  0.00  0.00     0.001 A 
HETATM   12  C   UNK N   1      37.337   9.806  15.358  0.00  0.00     0.009 A 
ENDBRANCH   1   7
BRANCH   1  13
HETATM   13  C   UNK N   1      36.305  13.347  15.991  0.00  0.00    -0.037 A 
HETATM   14  C   UNK N   1      35.494  13.444  17.142  0.00  0.00     0.009 A 
HETATM   15  C   UNK N   1      35.527  14.579  17.953  0.00  0.00     0.001 A 
HETATM   16  C   UNK N   1      36.374  15.640  17.631  0.00  0.00     0.000 A 
HETATM   17  C   UNK N   1      37.187  15.563  16.499  0.00  0.00     0.001 A 
HETATM   18  C   UNK N   1      37.154  14.426  15.687  0.00  0.00     0.009 A 
ENDBRANCH   1  13
BRANCH   1  19
HETATM   19  C   UNK N   1      34.843  12.107  14.469  0.00  0.00     0.144 C 
HETATM   20  O   UNK N   1      34.439  13.123  13.922  0.00  0.00    -0.296 OA
BRANCH  19  21
HETATM   21  C   UNK N   1      33.966  10.889  14.499  0.00  0.00     0.075 C 
HETATM   22  C   UNK N   1      33.802  10.312  13.105  0.00  0.00     0.013 C 
ENDBRANCH  19  21
ENDBRANCH   1  19
TORSDOF 7
ENDMDL
MODEL 2
REMARK VINA RESULT:      -6.0      1.410      2.072
REMARK  7 active torsions:
REMARK  status: ('A' for Active; 'I' for Inactive)
REMARK    1  A    between atoms: C_19  and  C_4 
REMARK    2  A    between atoms: C_16  and  C_15 
REMARK    3  A    between atoms: C_20  and  C_15 
REMARK    4  A    between atoms: N_21  and  C_16 
REMARK    5  A    between atoms: C_20  and  C_17 
REMARK    6  A    between atoms: C_20  and  C_18 
REMARK    7  A    between atoms: C_20  and  C_19 
ROOT
HETATM    1  C   UNK N   1      36.067  11.664  15.530  0.00  0.00     0.076 C 
ENDROOT
BRANCH   1   2
HETATM    2  C   UNK N   1      36.700  12.859  14.765  0.00  0.00     0.057 C 
BRANCH   2   3
HETATM    3  C   UNK N   1      35.888  13.375  13.562  0.00  0.00     0.273 C 
BRANCH   3   4
HETATM    4  N   UNK N   1      36.722  13.640  12.399  0.00  0.00     0.080 N 
HETATM    5  C   UNK N   1      36.093  14.688  11.618  0.00  0.00     0.309 C 
HETATM    6  C   UNK N   1      36.722  12.438  11.585  0.00  0.00     0.309 C 
ENDBRANCH   3   4
ENDBRANCH   2   3
ENDBRANCH   1   2
BRANCH   1   7
HETATM    7  C   UNK N   1      37.037  10.474  15.396  0.00  0.00    -0.037 A 
HETATM    8  C   UNK N   1      36.886   9.276  16.115  0.00  0.00     0.009 A 
HETATM    9  C   UNK N   1      37.821   8.244  15.990  0.00  0.00     0.001 A 
HETATM   10  C   UNK N   1      38.918   8.391  15.141  0.00  0.00     0.000 A 
HETATM   11  C   UNK N   1      39.084   9.571  14.415  0.00  0.00     0.001 A 
HETATM   12  C   UNK N   1      38.154  10.606  14.547  0.00  0.00     0.009 A 
ENDBRANCH   1   7
BRANCH   1  13
HETATM   13  C   UNK N   1      35.699  12.178  16.933  0.00  0.00    -0.037 A 
HETATM   14  C   UNK N   1      35.578  11.241  17.982  0.00  0.00     0.009 A 
HETATM   15  C   UNK N   1      35.240  11.647  19.274  0.00  0.00     0.001 A 
HETATM   16  C   UNK N   1      35.016  12.997  19.543  0.00  0.00     0.000 A 
HETATM   17  C   UNK N   1      35.134  13.940  18.521  0.00  0.00     0.001 A 
HETATM   18  C   UNK N   1      35.474  13.534  17.227  0.00  0.00     0.009 A 
ENDBRANCH   1  13
BRANCH   1  19
HETATM   19  C   UNK N   1      34.755  11.243  14.877  0.00  0.00     0.144 C 
HETATM   20  O   UNK N   1      33.728  11.879  15.067  0.00  0.00    -0.296 OA
BRANCH  19  21
HETATM   21  C   UNK N   1      34.712  10.022  14.004  0.00  0.00     0.075 C 
HETATM   22  C   UNK N   1      33.901  10.289  12.749  0.00  0.00     0.013 C 
ENDBRANCH  19  21
ENDBRANCH   1  19
TORSDOF 7
ENDMDL
MODEL 3
REMARK VINA RESULT:      -5.9     22.132     26.193
REMARK  7 active torsions:
REMARK  status: ('A' for Active; 'I' for Inactive)
REMARK    1  A    between atoms: C_19  and  C_4 
REMARK    2  A    between atoms: C_16  and  C_15 
REMARK    3  A    between atoms: C_20  and  C_15 
REMARK    4  A    between atoms: N_21  and  C_16 
REMARK    5  A    between atoms: C_20  and  C_17 
REMARK    6  A    between atoms: C_20  and  C_18 
REMARK    7  A    between atoms: C_20  and  C_19 
ROOT
HETATM    1  C   UNK N   1      27.648  24.658  -5.034  0.00  0.00     0.076 C 
ENDROOT
BRANCH   1   2
HETATM    2  C   UNK N   1      29.015  25.169  -5.565  0.00  0.00     0.057 C 
BRANCH   2   3
HETATM    3  C   UNK N   1      28.945  26.045  -6.830  0.00  0.00     0.273 C 
BRANCH   3   4
HETATM    4  N   UNK N   1      29.704  27.281  -6.696  0.00  0.00     0.080 N 
HETATM    5  C   UNK N   1      30.350  27.277  -5.397  0.00  0.00     0.309 C 
HETATM    6  C   UNK N   1      28.751  28.375  -6.700  0.00  0.00     0.309 C 
ENDBRANCH   3   4
ENDBRANCH   2   3
ENDBRANCH   1   2
BRANCH   1   7
HETATM    7  C   UNK N   1      26.748  25.893  -4.834  0.00  0.00    -0.037 A 
HETATM    8  C   UNK N   1      25.661  26.194  -5.672  0.00  0.00     0.009 A 
HETATM    9  C   UNK N   1      24.903  27.352  -5.473  0.00  0.00     0.001 A 
HETATM   10  C   UNK N   1      25.218  28.225  -4.431  0.00  0.00     0.000 A 
HETATM   11  C   UNK N   1      26.291  27.941  -3.586  0.00  0.00     0.001 A 
HETATM   12  C   UNK N   1      27.053  26.788  -3.790  0.00  0.00     0.009 A 
ENDBRANCH   1   7
BRANCH   1  13
HETATM   13  C   UNK N   1      27.189  23.541  -5.988  0.00  0.00    -0.037 A 
HETATM   14  C   UNK N   1      28.174  22.785  -6.660  0.00  0.00     0.009 A 
HETATM   15  C   UNK N   1      27.818  21.763  -7.543  0.00  0.00     0.001 A 
HETATM   16  C   UNK N   1      26.472  21.477  -7.770  0.00  0.00     0.000 A 
HETATM   17  C   UNK N   1      25.483  22.210  -7.112  0.00  0.00     0.001 A 
HETATM   18  C   UNK N   1      25.839  23.233  -6.228  0.00  0.00     0.009 A 
ENDBRANCH   1  13
BRANCH   1  19
HETATM   19  C   UNK N   1      27.814  24.003  -3.667  0.00  0.00     0.144 C 
HETATM   20  O   UNK N   1      26.842  23.776  -2.959  0.00  0.00    -0.296 OA
BRANCH  19  21
HETATM   21  C   UNK N   1      29.185  23.648  -3.169  0.00  0.00     0.075 C 
HETATM   22  C   UNK N   1      29.102  22.954  -1.822  0.00  0.00     0.013 C 
ENDBRANCH  19  21
ENDBRANCH   1  19
TORSDOF 7
ENDMDL
MODEL 4
REMARK VINA RESULT:      -5.8      1.553      4.889
REMARK  7 active torsions:
REMARK  status: ('A' for Active; 'I' for Inactive)
REMARK    1  A    between atoms: C_19  and  C_4 
REMARK    2  A    between atoms: C_16  and  C_15 
REMARK    3  A    between atoms: C_20  and  C_15 
REMARK    4  A    between atoms: N_21  and  C_16 
REMARK    5  A    between atoms: C_20  and  C_17 
REMARK    6  A    between atoms: C_20  and  C_18 
REMARK    7  A    between atoms: C_20  and  C_19 
ROOT
HETATM    1  C   UNK N   1      36.103  12.278  14.779  0.00  0.00     0.076 C 
ENDROOT
BRANCH   1   2
HETATM    2  C   UNK N   1      37.045  11.119  15.204  0.00  0.00     0.057 C 
BRANCH   2   3
HETATM    3  C   UNK N   1      36.673  10.420  16.526  0.00  0.00     0.273 C 
BRANCH   3   4
HETATM    4  N   UNK N   1      36.869   8.978  16.469  0.00  0.00     0.080 N 
HETATM    5  C   UNK N   1      37.172   8.507  17.808  0.00  0.00     0.309 C 
HETATM    6  C   UNK N   1      38.043   8.735  15.651  0.00  0.00     0.309 C 
ENDBRANCH   3   4
ENDBRANCH   2   3
ENDBRANCH   1   2
BRANCH   1   7
HETATM    7  C   UNK N   1      36.197  13.363  15.869  0.00  0.00    -0.037 A 
HETATM    8  C   UNK N   1      35.415  13.348  17.036  0.00  0.00     0.009 A 
HETATM    9  C   UNK N   1      35.507  14.382  17.973  0.00  0.00     0.001 A 
HETATM   10  C   UNK N   1      36.386  15.445  17.759  0.00  0.00     0.000 A 
HETATM   11  C   UNK N   1      37.173  15.476  16.608  0.00  0.00     0.001 A 
HETATM   12  C   UNK N   1      37.075  14.447  15.668  0.00  0.00     0.009 A 
ENDBRANCH   1   7
BRANCH   1  13
HETATM   13  C   UNK N   1      36.468  12.639  13.328  0.00  0.00    -0.037 A 
HETATM   14  C   UNK N   1      37.492  11.905  12.690  0.00  0.00     0.009 A 
HETATM   15  C   UNK N   1      37.871  12.191  11.378  0.00  0.00     0.001 A 
HETATM   16  C   UNK N   1      37.235  13.214  10.676  0.00  0.00     0.000 A 
HETATM   17  C   UNK N   1      36.217  13.949  11.287  0.00  0.00     0.001 A 
HETATM   18  C   UNK N   1      35.836  13.662  12.601  0.00  0.00     0.009 A 
ENDBRANCH   1  13
BRANCH   1  19
HETATM   19  C   UNK N   1      34.653  11.807  14.744  0.00  0.00     0.144 C 
HETATM   20  O   UNK N   1      33.744  12.551  15.086  0.00  0.00    -0.296 OA
BRANCH  19  21
HETATM   21  C   UNK N   1      34.332  10.408  14.304  0.00  0.00     0.075 C 
HETATM   22  C   UNK N   1      33.875  10.394  12.857  0.00  0.00     0.013 C 
ENDBRANCH  19  21
ENDBRANCH   1  19
TORSDOF 7
ENDMDL
MODEL 5
REMARK VINA RESULT:      -5.7     11.150     13.861
REMARK  7 active torsions:
REMARK  status: ('A' for Active; 'I' for Inactive)
REMARK    1  A    between atoms: C_19  and  C_4 
REMARK    2  A    between atoms: C_16  and  C_15 
REMARK    3  A    between atoms: C_20  and  C_15 
REMARK    4  A    between atoms: N_21  and  C_16 
REMARK    5  A    between atoms: C_20  and  C_17 
REMARK    6  A    between atoms: C_20  and  C_18 
REMARK    7  A    between atoms: C_20  and  C_19 
ROOT
HETATM    1  C   UNK N   1      29.051  17.327   4.953  0.00  0.00     0.076 C 
ENDROOT
BRANCH   1   2
HETATM    2  C   UNK N   1      28.923  16.992   3.441  0.00  0.00     0.057 C 
BRANCH   2   3
HETATM    3  C   UNK N   1      27.872  15.922   3.090  0.00  0.00     0.273 C 
BRANCH   3   4
HETATM    4  N   UNK N   1      28.372  14.942   2.136  0.00  0.00     0.080 N 
HETATM    5  C   UNK N   1      27.528  13.764   2.210  0.00  0.00     0.309 C 
HETATM    6  C   UNK N   1      29.698  14.550   2.575  0.00  0.00     0.309 C 
ENDBRANCH   3   4
ENDBRANCH   2   3
ENDBRANCH   1   2
BRANCH   1   7
HETATM    7  C   UNK N   1      30.553  17.319   5.296  0.00  0.00    -0.037 A 
HETATM    8  C   UNK N   1      31.040  17.197   6.608  0.00  0.00     0.009 A 
HETATM    9  C   UNK N   1      32.413  17.240   6.869  0.00  0.00     0.001 A 
HETATM   10  C   UNK N   1      33.320  17.401   5.820  0.00  0.00     0.000 A 
HETATM   11  C   UNK N   1      32.856  17.519   4.510  0.00  0.00     0.001 A 
HETATM   12  C   UNK N   1      31.484  17.484   4.251  0.00  0.00     0.009 A 
ENDBRANCH   1   7
BRANCH   1  13
HETATM   13  C   UNK N   1      28.233  18.608   5.195  0.00  0.00    -0.037 A 
HETATM   14  C   UNK N   1      27.488  19.144   4.122  0.00  0.00     0.009 A 
HETATM   15  C   UNK N   1      26.733  20.307   4.280  0.00  0.00     0.001 A 
HETATM   16  C   UNK N   1      26.706  20.957   5.513  0.00  0.00     0.000 A 
HETATM   17  C   UNK N   1      27.432  20.442   6.588  0.00  0.00     0.001 A 
HETATM   18  C   UNK N   1      28.188  19.277   6.431  0.00  0.00     0.009 A 
ENDBRANCH   1  13
BRANCH   1  19
HETATM   19  C   UNK N   1      28.395  16.242   5.800  0.00  0.00     0.144 C 
HETATM   20  O   UNK N   1      28.839  15.102   5.811  0.00  0.00    -0.296 OA
BRANCH  19  21
HETATM   21  C   UNK N   1      27.178  16.565   6.618  0.00  0.00     0.075 C 
HETATM   22  C   UNK N   1      26.064  15.574   6.335  0.00  0.00     0.013 C 
ENDBRANCH  19  21
ENDBRANCH   1  19
TORSDOF 7
ENDMDL
MODEL 6
REMARK VINA RESULT:      -5.7     14.026     16.677
REMARK  7 active torsions:
REMARK  status: ('A' for Active; 'I' for Inactive)
REMARK    1  A    between atoms: C_19  and  C_4 
REMARK    2  A    between atoms: C_16  and  C_15 
REMARK    3  A    between atoms: C_20  and  C_15 
REMARK    4  A    between atoms: N_21  and  C_16 
REMARK    5  A    between atoms: C_20  and  C_17 
REMARK    6  A    between atoms: C_20  and  C_18 
REMARK    7  A    between atoms: C_20  and  C_19 
ROOT
HETATM    1  C   UNK N   1      21.711  13.913   8.141  0.00  0.00     0.076 C 
ENDROOT
BRANCH   1   2
HETATM    2  C   UNK N   1      22.786  14.816   7.477  0.00  0.00     0.057 C 
BRANCH   2   3
HETATM    3  C   UNK N   1      23.366  14.284   6.152  0.00  0.00     0.273 C 
BRANCH   3   4
HETATM    4  N   UNK N   1      23.585  15.342   5.176  0.00  0.00     0.080 N 
HETATM    5  C   UNK N   1      22.851  16.517   5.607  0.00  0.00     0.309 C 
HETATM    6  C   UNK N   1      22.996  14.902   3.924  0.00  0.00     0.309 C 
ENDBRANCH   3   4
ENDBRANCH   2   3
ENDBRANCH   1   2
BRANCH   1   7
HETATM    7  C   UNK N   1      21.086  13.054   7.025  0.00  0.00    -0.037 A 
HETATM    8  C   UNK N   1      21.345  11.681   6.876  0.00  0.00     0.009 A 
HETATM    9  C   UNK N   1      20.787  10.958   5.818  0.00  0.00     0.001 A 
HETATM   10  C   UNK N   1      19.958  11.595   4.894  0.00  0.00     0.000 A 
HETATM   11  C   UNK N   1      19.685  12.957   5.026  0.00  0.00     0.001 A 
HETATM   12  C   UNK N   1      20.250  13.681   6.079  0.00  0.00     0.009 A 
ENDBRANCH   1   7
BRANCH   1  13
HETATM   13  C   UNK N   1      22.389  13.216   9.334  0.00  0.00    -0.037 A 
HETATM   14  C   UNK N   1      23.794  13.076   9.321  0.00  0.00     0.009 A 
HETATM   15  C   UNK N   1      24.464  12.447  10.371  0.00  0.00     0.001 A 
HETATM   16  C   UNK N   1      23.744  11.946  11.456  0.00  0.00     0.000 A 
HETATM   17  C   UNK N   1      22.355  12.078  11.490  0.00  0.00     0.001 A 
HETATM   18  C   UNK N   1      21.683  12.709  10.439  0.00  0.00     0.009 A 
ENDBRANCH   1  13
BRANCH   1  19
HETATM   19  C   UNK N   1      20.588  14.761   8.731  0.00  0.00     0.144 C 
HETATM   20  O   UNK N   1      19.621  14.236   9.264  0.00  0.00    -0.296 OA
BRANCH  19  21
HETATM   21  C   UNK N   1      20.656  16.258   8.642  0.00  0.00     0.075 C 
HETATM   22  C   UNK N   1      19.284  16.870   8.857  0.00  0.00     0.013 C 
ENDBRANCH  19  21
ENDBRANCH   1  19
TORSDOF 7
ENDMDL
MODEL 7
REMARK VINA RESULT:      -5.7      7.018     10.641
REMARK  7 active torsions:
REMARK  status: ('A' for Active; 'I' for Inactive)
REMARK    1  A    between atoms: C_19  and  C_4 
REMARK    2  A    between atoms: C_16  and  C_15 
REMARK    3  A    between atoms: C_20  and  C_15 
REMARK    4  A    between atoms: N_21  and  C_16 
REMARK    5  A    between atoms: C_20  and  C_17 
REMARK    6  A    between atoms: C_20  and  C_18 
REMARK    7  A    between atoms: C_20  and  C_19 
ROOT
HETATM    1  C   UNK N   1      32.401  16.300   6.773  0.00  0.00     0.076 C 
ENDROOT
BRANCH   1   2
HETATM    2  C   UNK N   1      33.383  15.945   7.923  0.00  0.00     0.057 C 
BRANCH   2   3
HETATM    3  C   UNK N   1      32.870  14.894   8.927  0.00  0.00     0.273 C 
BRANCH   3   4
HETATM    4  N   UNK N   1      33.953  14.213   9.622  0.00  0.00     0.080 N 
HETATM    5  C   UNK N   1      34.192  14.903  10.876  0.00  0.00     0.309 C 
HETATM    6  C   UNK N   1      35.148  14.364   8.813  0.00  0.00     0.309 C 
ENDBRANCH   3   4
ENDBRANCH   2   3
ENDBRANCH   1   2
BRANCH   1   7
HETATM    7  C   UNK N   1      32.133  15.002   5.988  0.00  0.00    -0.037 A 
HETATM    8  C   UNK N   1      30.842  14.556   5.658  0.00  0.00     0.009 A 
HETATM    9  C   UNK N   1      30.652  13.347   4.983  0.00  0.00     0.001 A 
HETATM   10  C   UNK N   1      31.752  12.566   4.621  0.00  0.00     0.000 A 
HETATM   11  C   UNK N   1      33.042  12.994   4.935  0.00  0.00     0.001 A 
HETATM   12  C   UNK N   1      33.230  14.198   5.618  0.00  0.00     0.009 A 
ENDBRANCH   1   7
BRANCH   1  13
HETATM   13  C   UNK N   1      31.217  17.048   7.413  0.00  0.00    -0.037 A 
HETATM   14  C   UNK N   1      31.483  17.948   8.467  0.00  0.00     0.009 A 
HETATM   15  C   UNK N   1      30.449  18.650   9.090  0.00  0.00     0.001 A 
HETATM   16  C   UNK N   1      29.132  18.467   8.672  0.00  0.00     0.000 A 
HETATM   17  C   UNK N   1      28.849  17.584   7.628  0.00  0.00     0.001 A 
HETATM   18  C   UNK N   1      29.883  16.881   7.003  0.00  0.00     0.009 A 
ENDBRANCH   1  13
BRANCH   1  19
HETATM   19  C   UNK N   1      33.045  17.282   5.801  0.00  0.00     0.144 C 
HETATM   20  O   UNK N   1      34.153  17.750   6.025  0.00  0.00    -0.296 OA
BRANCH  19  21
HETATM   21  C   UNK N   1      32.308  17.700   4.562  0.00  0.00     0.075 C 
HETATM   22  C   UNK N   1      32.878  17.006   3.339  0.00  0.00     0.013 C 
ENDBRANCH  19  21
ENDBRANCH   1  19
TORSDOF 7
ENDMDL
MODEL 8
REMARK VINA RESULT:      -5.7     22.467     25.966
REMARK  7 active torsions:
REMARK  status: ('A' for Active; 'I' for Inactive)
REMARK    1  A    between atoms: C_19  and  C_4 
REMARK    2  A    between atoms: C_16  and  C_15 
REMARK    3  A    between atoms: C_20  and  C_15 
REMARK    4  A    between atoms: N_21  and  C_16 
REMARK    5  A    between atoms: C_20  and  C_17 
REMARK    6  A    between atoms: C_20  and  C_18 
REMARK    7  A    between atoms: C_20  and  C_19 
ROOT
HETATM    1  C   UNK N   1      27.435  24.544  -5.822  0.00  0.00     0.076 C 
ENDROOT
BRANCH   1   2
HETATM    2  C   UNK N   1      28.361  25.070  -6.952  0.00  0.00     0.057 C 
BRANCH   2   3
HETATM    3  C   UNK N   1      29.101  26.385  -6.639  0.00  0.00     0.273 C 
BRANCH   3   4
HETATM    4  N   UNK N   1      28.947  27.376  -7.695  0.00  0.00     0.080 N 
HETATM    5  C   UNK N   1      28.239  28.517  -7.146  0.00  0.00     0.309 C 
HETATM    6  C   UNK N   1      28.096  26.791  -8.714  0.00  0.00     0.309 C 
ENDBRANCH   3   4
ENDBRANCH   2   3
ENDBRANCH   1   2
BRANCH   1   7
HETATM    7  C   UNK N   1      28.316  23.738  -4.849  0.00  0.00    -0.037 A 
HETATM    8  C   UNK N   1      28.236  23.867  -3.452  0.00  0.00     0.009 A 
HETATM    9  C   UNK N   1      29.091  23.144  -2.616  0.00  0.00     0.001 A 
HETATM   10  C   UNK N   1      30.037  22.276  -3.163  0.00  0.00     0.000 A 
HETATM   11  C   UNK N   1      30.130  22.130  -4.548  0.00  0.00     0.001 A 
HETATM   12  C   UNK N   1      29.281  22.859  -5.383  0.00  0.00     0.009 A 
ENDBRANCH   1   7
BRANCH   1  13
HETATM   13  C   UNK N   1      26.647  25.756  -5.292  0.00  0.00    -0.037 A 
HETATM   14  C   UNK N   1      25.547  26.223  -6.043  0.00  0.00     0.009 A 
HETATM   15  C   UNK N   1      24.799  27.322  -5.616  0.00  0.00     0.001 A 
HETATM   16  C   UNK N   1      25.136  27.975  -4.431  0.00  0.00     0.000 A 
HETATM   17  C   UNK N   1      26.218  27.527  -3.672  0.00  0.00     0.001 A 
HETATM   18  C   UNK N   1      26.966  26.426  -4.098  0.00  0.00     0.009 A 
ENDBRANCH   1  13
BRANCH   1  19
HETATM   19  C   UNK N   1      26.395  23.580  -6.384  0.00  0.00     0.144 C 
HETATM   20  O   UNK N   1      25.503  23.137  -5.674  0.00  0.00    -0.296 OA
BRANCH  19  21
HETATM   21  C   UNK N   1      26.474  23.150  -7.820  0.00  0.00     0.075 C 
HETATM   22  C   UNK N   1      26.819  21.676  -7.920  0.00  0.00     0.013 C 
ENDBRANCH  19  21
ENDBRANCH   1  19
TORSDOF 7
ENDMDL
MODEL 9
REMARK VINA RESULT:      -5.7     13.912     16.204
REMARK  7 active torsions:
REMARK  status: ('A' for Active; 'I' for Inactive)
REMARK    1  A    between atoms: C_19  and  C_4 
REMARK    2  A    between atoms: C_16  and  C_15 
REMARK    3  A    between atoms: C_20  and  C_15 
REMARK    4  A    between atoms: N_21  and  C_16 
REMARK    5  A    between atoms: C_20  and  C_17 
REMARK    6  A    between atoms: C_20  and  C_18 
REMARK    7  A    between atoms: C_20  and  C_19 
ROOT
HETATM    1  C   UNK N   1      22.020  13.969   7.903  0.00  0.00     0.076 C 
ENDROOT
BRANCH   1   2
HETATM    2  C   UNK N   1      23.222  14.493   7.071  0.00  0.00     0.057 C 
BRANCH   2   3
HETATM    3  C   UNK N   1      23.348  13.905   5.652  0.00  0.00     0.273 C 
BRANCH   3   4
HETATM    4  N   UNK N   1      23.741  14.904   4.668  0.00  0.00     0.080 N 
HETATM    5  C   UNK N   1      24.383  16.002   5.367  0.00  0.00     0.309 C 
HETATM    6  C   UNK N   1      22.525  15.425   4.073  0.00  0.00     0.309 C 
ENDBRANCH   3   4
ENDBRANCH   2   3
ENDBRANCH   1   2
BRANCH   1   7
HETATM    7  C   UNK N   1      22.600  13.227   9.122  0.00  0.00    -0.037 A 
HETATM    8  C   UNK N   1      21.800  12.689  10.146  0.00  0.00     0.009 A 
HETATM    9  C   UNK N   1      22.380  12.065  11.254  0.00  0.00     0.001 A 
HETATM   10  C   UNK N   1      23.768  11.963  11.354  0.00  0.00     0.000 A 
HETATM   11  C   UNK N   1      24.579  12.486  10.346  0.00  0.00     0.001 A 
HETATM   12  C   UNK N   1      23.999  13.118   9.243  0.00  0.00     0.009 A 
ENDBRANCH   1   7
BRANCH   1  13
HETATM   13  C   UNK N   1      21.079  15.166   8.130  0.00  0.00    -0.037 A 
HETATM   14  C   UNK N   1      21.293  16.341   7.376  0.00  0.00     0.009 A 
HETATM   15  C   UNK N   1      20.477  17.461   7.543  0.00  0.00     0.001 A 
HETATM   16  C   UNK N   1      19.431  17.428   8.465  0.00  0.00     0.000 A 
HETATM   17  C   UNK N   1      19.201  16.275   9.218  0.00  0.00     0.001 A 
HETATM   18  C   UNK N   1      20.017  15.153   9.050  0.00  0.00     0.009 A 
ENDBRANCH   1  13
BRANCH   1  19
HETATM   19  C   UNK N   1      21.218  12.948   7.102  0.00  0.00     0.144 C 
HETATM   20  O   UNK N   1      20.146  13.252   6.596  0.00  0.00    -0.296 OA
BRANCH  19  21
HETATM   21  C   UNK N   1      21.734  11.547   6.945  0.00  0.00     0.075 C 
HETATM   22  C   UNK N   1      21.015  10.835   5.815  0.00  0.00     0.013 C 
ENDBRANCH  19  21
ENDBRANCH   1  19
TORSDOF 7
ENDMDL
