MODEL 1
REMARK VINA RESULT:      -5.3      0.000      0.000
REMARK  8 active torsions:
REMARK  status: ('A' for Active; 'I' for Inactive)
REMARK    1  A    between atoms: N_2  and  C_9 
REMARK    2  A    between atoms: N_2  and  C_11 
REMARK    3  A    between atoms: N_2  and  C_12 
REMARK    4  A    between atoms: N_3  and  C_8 
REMARK    5  A    between atoms: N_3  and  C_13 
REMARK    6  A    between atoms: C_6  and  C_7 
REMARK    7  A    between atoms: C_6  and  C_8 
REMARK    8  A    between atoms: C_7  and  C_9 
ROOT
HETATM    1 Cl   UNK N   1      35.059  13.289  18.313  0.00  0.00    -0.084 Cl
HETATM    2  N   UNK N   1      34.199  11.435  13.626  0.00  0.00    -0.365 N 
ATOM      3  HN  UNK N   1      33.459  10.869  14.044  1.00  0.00     0.165 HD
HETATM    4  C   UNK N   1      36.206  12.965  12.486  0.00  0.00     0.042 A 
HETATM    5  C   UNK N   1      35.964  13.047  13.863  0.00  0.00     0.017 A 
HETATM    6  C   UNK N   1      35.427  12.117  11.695  0.00  0.00     0.047 A 
HETATM    7  C   UNK N   1      34.932  12.259  14.419  0.00  0.00     0.046 A 
HETATM    8  C   UNK N   1      36.698  13.913  14.684  0.00  0.00     0.018 A 
HETATM    9  C   UNK N   1      34.428  11.346  12.287  0.00  0.00     0.090 A 
HETATM   10  C   UNK N   1      34.657  12.342  15.787  0.00  0.00     0.054 A 
HETATM   11  C   UNK N   1      36.417  13.987  16.050  0.00  0.00     0.025 A 
HETATM   12  C   UNK N   1      35.399  13.202  16.600  0.00  0.00     0.036 A 
ENDROOT
BRANCH   4  13
HETATM   13  N   UNK N   1      37.155  13.808  11.875  0.00  0.00    -0.385 N 
HETATM   14  H   UNK N   1      38.051  13.937  12.261  0.00  0.00     0.160 HD
BRANCH  13  15
HETATM   15  C   UNK N   1      36.759  14.469  10.666  0.00  0.00     0.077 C 
HETATM   16  C   UNK N   1      37.688  14.224   9.489  0.00  0.00     0.032 C 
BRANCH  15  17
HETATM   17  C   UNK N   1      36.150  15.848  10.909  0.00  0.00     0.026 C 
BRANCH  17  18
HETATM   18  C   UNK N   1      35.088  16.260   9.909  0.00  0.00     0.032 C 
BRANCH  18  19
HETATM   19  C   UNK N   1      33.884  15.310   9.870  0.00  0.00     0.272 C 
BRANCH  19  20
HETATM   20  N   UNK N   1      33.179  15.368   8.582  0.00  0.00     0.087 N 
BRANCH  20  21
HETATM   21  C   UNK N   1      31.936  16.136   8.740  0.00  0.00     0.268 C 
HETATM   22  C   UNK N   1      32.110  17.552   8.228  0.00  0.00     0.037 C 
ENDBRANCH  20  21
BRANCH  20  23
HETATM   23  C   UNK N   1      32.973  13.978   8.149  0.00  0.00     0.268 C 
HETATM   24  C   UNK N   1      34.183  13.060   8.281  0.00  0.00     0.037 C 
ENDBRANCH  20  23
ENDBRANCH  19  20
ENDBRANCH  18  19
ENDBRANCH  17  18
ENDBRANCH  15  17
ENDBRANCH  13  15
ENDBRANCH   4  13
TORSDOF 8
ENDMDL
MODEL 2
REMARK VINA RESULT:      -5.3     19.160     23.695
REMARK  8 active torsions:
REMARK  status: ('A' for Active; 'I' for Inactive)
REMARK    1  A    between atoms: N_2  and  C_9 
REMARK    2  A    between atoms: N_2  and  C_11 
REMARK    3  A    between atoms: N_2  and  C_12 
REMARK    4  A    between atoms: N_3  and  C_8 
REMARK    5  A    between atoms: N_3  and  C_13 
REMARK    6  A    between atoms: C_6  and  C_7 
REMARK    7  A    between atoms: C_6  and  C_8 
REMARK    8  A    between atoms: C_7  and  C_9 
ROOT
HETATM    1 Cl   UNK N   1      30.191  29.816  -8.758  0.00  0.00    -0.084 Cl
HETATM    2  N   UNK N   1      27.052  29.553  -4.729  0.00  0.00    -0.365 N 
ATOM      3  HN  UNK N   1      27.467  30.431  -4.417  1.00  0.00     0.165 HD
HETATM    4  C   UNK N   1      25.923  27.167  -5.571  0.00  0.00     0.042 A 
HETATM    5  C   UNK N   1      26.937  27.765  -6.330  0.00  0.00     0.017 A 
HETATM    6  C   UNK N   1      25.482  27.784  -4.398  0.00  0.00     0.047 A 
HETATM    7  C   UNK N   1      27.494  28.984  -5.882  0.00  0.00     0.046 A 
HETATM    8  C   UNK N   1      27.381  27.199  -7.532  0.00  0.00     0.018 A 
HETATM    9  C   UNK N   1      26.069  28.979  -3.983  0.00  0.00     0.090 A 
HETATM   10  C   UNK N   1      28.490  29.610  -6.635  0.00  0.00     0.054 A 
HETATM   11  C   UNK N   1      28.379  27.832  -8.277  0.00  0.00     0.025 A 
HETATM   12  C   UNK N   1      28.933  29.034  -7.828  0.00  0.00     0.036 A 
ENDROOT
BRANCH   4  13
HETATM   13  N   UNK N   1      25.271  26.009  -6.035  0.00  0.00    -0.385 N 
HETATM   14  H   UNK N   1      24.378  26.052  -6.445  0.00  0.00     0.160 HD
BRANCH  13  15
HETATM   15  C   UNK N   1      25.966  24.764  -5.883  0.00  0.00     0.077 C 
HETATM   16  C   UNK N   1      25.840  23.831  -7.076  0.00  0.00     0.032 C 
BRANCH  15  17
HETATM   17  C   UNK N   1      25.920  24.221  -4.457  0.00  0.00     0.026 C 
BRANCH  17  18
HETATM   18  C   UNK N   1      27.233  24.298  -3.704  0.00  0.00     0.032 C 
BRANCH  18  19
HETATM   19  C   UNK N   1      28.448  24.510  -4.616  0.00  0.00     0.272 C 
BRANCH  19  20
HETATM   20  N   UNK N   1      29.587  25.088  -3.889  0.00  0.00     0.087 N 
BRANCH  20  21
HETATM   21  C   UNK N   1      29.986  26.348  -4.531  0.00  0.00     0.268 C 
HETATM   22  C   UNK N   1      29.824  27.514  -3.574  0.00  0.00     0.037 C 
ENDBRANCH  20  21
BRANCH  20  23
HETATM   23  C   UNK N   1      30.643  24.064  -3.873  0.00  0.00     0.268 C 
HETATM   24  C   UNK N   1      30.660  23.155  -2.650  0.00  0.00     0.037 C 
ENDBRANCH  20  23
ENDBRANCH  19  20
ENDBRANCH  18  19
ENDBRANCH  17  18
ENDBRANCH  15  17
ENDBRANCH  13  15
ENDBRANCH   4  13
TORSDOF 8
ENDMDL
MODEL 3
REMARK VINA RESULT:      -5.3     11.736     14.435
REMARK  8 active torsions:
REMARK  status: ('A' for Active; 'I' for Inactive)
REMARK    1  A    between atoms: N_2  and  C_9 
REMARK    2  A    between atoms: N_2  and  C_11 
REMARK    3  A    between atoms: N_2  and  C_12 
REMARK    4  A    between atoms: N_3  and  C_8 
REMARK    5  A    between atoms: N_3  and  C_13 
REMARK    6  A    between atoms: C_6  and  C_7 
REMARK    7  A    between atoms: C_6  and  C_8 
REMARK    8  A    between atoms: C_7  and  C_9 
ROOT
HETATM    1 Cl   UNK N   1      23.018  11.568  13.000  0.00  0.00    -0.084 Cl
HETATM    2  N   UNK N   1      24.514  13.257   8.410  0.00  0.00    -0.365 N 
ATOM      3  HN  UNK N   1      25.463  13.004   8.686  1.00  0.00     0.165 HD
HETATM    4  C   UNK N   1      21.939  13.948   7.656  0.00  0.00     0.042 A 
HETATM    5  C   UNK N   1      22.171  13.402   8.925  0.00  0.00     0.017 A 
HETATM    6  C   UNK N   1      23.008  14.132   6.775  0.00  0.00     0.047 A 
HETATM    7  C   UNK N   1      23.493  13.055   9.284  0.00  0.00     0.046 A 
HETATM    8  C   UNK N   1      21.122  13.168   9.822  0.00  0.00     0.018 A 
HETATM    9  C   UNK N   1      24.299  13.789   7.175  0.00  0.00     0.090 A 
HETATM   10  C   UNK N   1      23.745  12.488  10.536  0.00  0.00     0.054 A 
HETATM   11  C   UNK N   1      21.384  12.602  11.073  0.00  0.00     0.025 A 
HETATM   12  C   UNK N   1      22.693  12.264  11.429  0.00  0.00     0.036 A 
ENDROOT
BRANCH   4  13
HETATM   13  N   UNK N   1      20.627  14.212   7.220  0.00  0.00    -0.385 N 
HETATM   14  H   UNK N   1      19.973  13.487   7.091  0.00  0.00     0.160 HD
BRANCH  13  15
HETATM   15  C   UNK N   1      20.284  15.582   6.974  0.00  0.00     0.077 C 
HETATM   16  C   UNK N   1      20.206  16.440   8.225  0.00  0.00     0.032 C 
BRANCH  15  17
HETATM   17  C   UNK N   1      19.271  15.752   5.844  0.00  0.00     0.026 C 
BRANCH  17  18
HETATM   18  C   UNK N   1      19.837  15.579   4.449  0.00  0.00     0.032 C 
BRANCH  18  19
HETATM   19  C   UNK N   1      21.072  16.449   4.180  0.00  0.00     0.272 C 
BRANCH  19  20
HETATM   20  N   UNK N   1      20.777  17.882   4.323  0.00  0.00     0.087 N 
BRANCH  20  21
HETATM   21  C   UNK N   1      20.730  18.505   2.993  0.00  0.00     0.268 C 
HETATM   22  C   UNK N   1      19.296  18.731   2.556  0.00  0.00     0.037 C 
ENDBRANCH  20  21
BRANCH  20  23
HETATM   23  C   UNK N   1      21.810  18.441   5.209  0.00  0.00     0.268 C 
HETATM   24  C   UNK N   1      23.085  17.614   5.338  0.00  0.00     0.037 C 
ENDBRANCH  20  23
ENDBRANCH  19  20
ENDBRANCH  18  19
ENDBRANCH  17  18
ENDBRANCH  15  17
ENDBRANCH  13  15
ENDBRANCH   4  13
TORSDOF 8
ENDMDL
MODEL 4
REMARK VINA RESULT:      -5.2      6.946     10.817
REMARK  8 active torsions:
REMARK  status: ('A' for Active; 'I' for Inactive)
REMARK    1  A    between atoms: N_2  and  C_9 
REMARK    2  A    between atoms: N_2  and  C_11 
REMARK    3  A    between atoms: N_2  and  C_12 
REMARK    4  A    between atoms: N_3  and  C_8 
REMARK    5  A    between atoms: N_3  and  C_13 
REMARK    6  A    between atoms: C_6  and  C_7 
REMARK    7  A    between atoms: C_6  and  C_8 
REMARK    8  A    between atoms: C_7  and  C_9 
ROOT
HETATM    1 Cl   UNK N   1      33.027  14.287   6.512  0.00  0.00    -0.084 Cl
HETATM    2  N   UNK N   1      30.610  17.736   9.413  0.00  0.00    -0.365 N 
ATOM      3  HN  UNK N   1      31.397  17.666  10.058  1.00  0.00     0.165 HD
HETATM    4  C   UNK N   1      28.467  17.928   7.668  0.00  0.00     0.042 A 
HETATM    5  C   UNK N   1      29.523  17.053   7.382  0.00  0.00     0.017 A 
HETATM    6  C   UNK N   1      28.507  18.705   8.828  0.00  0.00     0.047 A 
HETATM    7  C   UNK N   1      30.606  16.976   8.286  0.00  0.00     0.046 A 
HETATM    8  C   UNK N   1      29.539  16.285   6.211  0.00  0.00     0.018 A 
HETATM    9  C   UNK N   1      29.588  18.588   9.701  0.00  0.00     0.090 A 
HETATM   10  C   UNK N   1      31.681  16.128   8.010  0.00  0.00     0.054 A 
HETATM   11  C   UNK N   1      30.618  15.438   5.944  0.00  0.00     0.025 A 
HETATM   12  C   UNK N   1      31.685  15.359   6.844  0.00  0.00     0.036 A 
ENDROOT
BRANCH   4  13
HETATM   13  N   UNK N   1      27.420  18.111   6.745  0.00  0.00    -0.385 N 
HETATM   14  H   UNK N   1      26.576  17.609   6.819  0.00  0.00     0.160 HD
BRANCH  13  15
HETATM   15  C   UNK N   1      27.636  19.060   5.692  0.00  0.00     0.077 C 
HETATM   16  C   UNK N   1      27.355  20.501   6.085  0.00  0.00     0.032 C 
BRANCH  15  17
HETATM   17  C   UNK N   1      27.236  18.531   4.317  0.00  0.00     0.026 C 
BRANCH  17  18
HETATM   18  C   UNK N   1      26.314  17.328   4.341  0.00  0.00     0.032 C 
BRANCH  18  19
HETATM   19  C   UNK N   1      24.938  17.602   3.719  0.00  0.00     0.272 C 
BRANCH  19  20
HETATM   20  N   UNK N   1      24.206  18.650   4.444  0.00  0.00     0.087 N 
BRANCH  20  21
HETATM   21  C   UNK N   1      23.200  18.029   5.316  0.00  0.00     0.268 C 
HETATM   22  C   UNK N   1      21.799  18.332   4.822  0.00  0.00     0.037 C 
ENDBRANCH  20  21
BRANCH  20  23
HETATM   23  C   UNK N   1      23.641  19.551   3.427  0.00  0.00     0.268 C 
HETATM   24  C   UNK N   1      24.506  20.750   3.056  0.00  0.00     0.037 C 
ENDBRANCH  20  23
ENDBRANCH  19  20
ENDBRANCH  18  19
ENDBRANCH  17  18
ENDBRANCH  15  17
ENDBRANCH  13  15
ENDBRANCH   4  13
TORSDOF 8
ENDMDL
MODEL 5
REMARK VINA RESULT:      -5.2      2.707      4.776
REMARK  8 active torsions:
REMARK  status: ('A' for Active; 'I' for Inactive)
REMARK    1  A    between atoms: N_2  and  C_9 
REMARK    2  A    between atoms: N_2  and  C_11 
REMARK    3  A    between atoms: N_2  and  C_12 
REMARK    4  A    between atoms: N_3  and  C_8 
REMARK    5  A    between atoms: N_3  and  C_13 
REMARK    6  A    between atoms: C_6  and  C_7 
REMARK    7  A    between atoms: C_6  and  C_8 
REMARK    8  A    between atoms: C_7  and  C_9 
ROOT
HETATM    1 Cl   UNK N   1      35.578   6.874  16.787  0.00  0.00    -0.084 Cl
HETATM    2  N   UNK N   1      35.318  11.342  19.262  0.00  0.00    -0.365 N 
ATOM      3  HN  UNK N   1      35.365  10.804  20.127  1.00  0.00     0.165 HD
HETATM    4  C   UNK N   1      35.187  12.808  16.916  0.00  0.00     0.042 A 
HETATM    5  C   UNK N   1      35.264  11.411  16.861  0.00  0.00     0.017 A 
HETATM    6  C   UNK N   1      35.185  13.454  18.154  0.00  0.00     0.047 A 
HETATM    7  C   UNK N   1      35.334  10.686  18.071  0.00  0.00     0.046 A 
HETATM    8  C   UNK N   1      35.305  10.728  15.638  0.00  0.00     0.018 A 
HETATM    9  C   UNK N   1      35.241  12.700  19.326  0.00  0.00     0.090 A 
HETATM   10  C   UNK N   1      35.435   9.293  18.041  0.00  0.00     0.054 A 
HETATM   11  C   UNK N   1      35.404   9.335  15.618  0.00  0.00     0.025 A 
HETATM   12  C   UNK N   1      35.467   8.619  16.818  0.00  0.00     0.036 A 
ENDROOT
BRANCH   4  13
HETATM   13  N   UNK N   1      35.219  13.573  15.734  0.00  0.00    -0.385 N 
HETATM   14  H   UNK N   1      34.395  13.926  15.327  0.00  0.00     0.160 HD
BRANCH  13  15
HETATM   15  C   UNK N   1      36.505  13.815  15.148  0.00  0.00     0.077 C 
HETATM   16  C   UNK N   1      37.204  15.059  15.670  0.00  0.00     0.032 C 
BRANCH  15  17
HETATM   17  C   UNK N   1      36.568  13.445  13.668  0.00  0.00     0.026 C 
BRANCH  17  18
HETATM   18  C   UNK N   1      35.222  13.217  13.011  0.00  0.00     0.032 C 
BRANCH  18  19
HETATM   19  C   UNK N   1      35.089  13.894  11.640  0.00  0.00     0.272 C 
BRANCH  19  20
HETATM   20  N   UNK N   1      36.326  14.583  11.246  0.00  0.00     0.087 N 
BRANCH  20  21
HETATM   21  C   UNK N   1      36.057  16.019  11.090  0.00  0.00     0.268 C 
HETATM   22  C   UNK N   1      34.882  16.248  10.159  0.00  0.00     0.037 C 
ENDBRANCH  20  21
BRANCH  20  23
HETATM   23  C   UNK N   1      36.802  13.928  10.017  0.00  0.00     0.268 C 
HETATM   24  C   UNK N   1      38.281  14.119   9.699  0.00  0.00     0.037 C 
ENDBRANCH  20  23
ENDBRANCH  19  20
ENDBRANCH  18  19
ENDBRANCH  17  18
ENDBRANCH  15  17
ENDBRANCH  13  15
ENDBRANCH   4  13
TORSDOF 8
ENDMDL
MODEL 6
REMARK VINA RESULT:      -5.1     18.648     22.325
REMARK  8 active torsions:
REMARK  status: ('A' for Active; 'I' for Inactive)
REMARK    1  A    between atoms: N_2  and  C_9 
REMARK    2  A    between atoms: N_2  and  C_11 
REMARK    3  A    between atoms: N_2  and  C_12 
REMARK    4  A    between atoms: N_3  and  C_8 
REMARK    5  A    between atoms: N_3  and  C_13 
REMARK    6  A    between atoms: C_6  and  C_7 
REMARK    7  A    between atoms: C_6  and  C_8 
REMARK    8  A    between atoms: C_7  and  C_9 
ROOT
HETATM    1 Cl   UNK N   1      24.404  27.218  -5.737  0.00  0.00    -0.084 Cl
HETATM    2  N   UNK N   1      27.293  29.261  -2.045  0.00  0.00    -0.365 N 
ATOM      3  HN  UNK N   1      26.472  29.201  -1.443  1.00  0.00     0.165 HD
HETATM    4  C   UNK N   1      29.527  29.427  -3.674  0.00  0.00     0.042 A 
HETATM    5  C   UNK N   1      28.327  28.916  -4.186  0.00  0.00     0.017 A 
HETATM    6  C   UNK N   1      29.591  29.841  -2.342  0.00  0.00     0.047 A 
HETATM    7  C   UNK N   1      27.204  28.839  -3.334  0.00  0.00     0.046 A 
HETATM    8  C   UNK N   1      28.233  28.456  -5.506  0.00  0.00     0.018 A 
HETATM    9  C   UNK N   1      28.454  29.760  -1.539  0.00  0.00     0.090 A 
HETATM   10  C   UNK N   1      26.003  28.312  -3.816  0.00  0.00     0.054 A 
HETATM   11  C   UNK N   1      27.027  27.933  -5.979  0.00  0.00     0.025 A 
HETATM   12  C   UNK N   1      25.914  27.862  -5.136  0.00  0.00     0.036 A 
ENDROOT
BRANCH   4  13
HETATM   13  N   UNK N   1      30.697  29.426  -4.459  0.00  0.00    -0.385 N 
HETATM   14  H   UNK N   1      30.765  29.965  -5.279  0.00  0.00     0.160 HD
BRANCH  13  15
HETATM   15  C   UNK N   1      31.784  28.606  -4.009  0.00  0.00     0.077 C 
HETATM   16  C   UNK N   1      33.125  29.318  -3.968  0.00  0.00     0.032 C 
BRANCH  15  17
HETATM   17  C   UNK N   1      31.679  27.159  -4.487  0.00  0.00     0.026 C 
BRANCH  17  18
HETATM   18  C   UNK N   1      30.971  26.222  -3.529  0.00  0.00     0.032 C 
BRANCH  18  19
HETATM   19  C   UNK N   1      31.015  24.753  -3.969  0.00  0.00     0.272 C 
BRANCH  19  20
HETATM   20  N   UNK N   1      29.682  24.134  -3.951  0.00  0.00     0.087 N 
BRANCH  20  21
HETATM   21  C   UNK N   1      28.657  25.185  -3.887  0.00  0.00     0.268 C 
HETATM   22  C   UNK N   1      27.267  24.579  -3.867  0.00  0.00     0.037 C 
ENDBRANCH  20  21
BRANCH  20  23
HETATM   23  C   UNK N   1      29.661  23.207  -2.809  0.00  0.00     0.268 C 
HETATM   24  C   UNK N   1      30.655  22.054  -2.878  0.00  0.00     0.037 C 
ENDBRANCH  20  23
ENDBRANCH  19  20
ENDBRANCH  18  19
ENDBRANCH  17  18
ENDBRANCH  15  17
ENDBRANCH  13  15
ENDBRANCH   4  13
TORSDOF 8
ENDMDL
MODEL 7
REMARK VINA RESULT:      -5.1     12.022     16.014
REMARK  8 active torsions:
REMARK  status: ('A' for Active; 'I' for Inactive)
REMARK    1  A    between atoms: N_2  and  C_9 
REMARK    2  A    between atoms: N_2  and  C_11 
REMARK    3  A    between atoms: N_2  and  C_12 
REMARK    4  A    between atoms: N_3  and  C_8 
REMARK    5  A    between atoms: N_3  and  C_13 
REMARK    6  A    between atoms: C_6  and  C_7 
REMARK    7  A    between atoms: C_6  and  C_8 
REMARK    8  A    between atoms: C_7  and  C_9 
ROOT
HETATM    1 Cl   UNK N   1      20.696  20.904   0.917  0.00  0.00    -0.084 Cl
HETATM    2  N   UNK N   1      19.605  16.275   2.795  0.00  0.00    -0.365 N 
ATOM      3  HN  UNK N   1      18.967  16.164   2.007  1.00  0.00     0.165 HD
HETATM    4  C   UNK N   1      21.333  16.569   4.940  0.00  0.00     0.042 A 
HETATM    5  C   UNK N   1      21.188  17.609   4.013  0.00  0.00     0.017 A 
HETATM    6  C   UNK N   1      20.610  15.386   4.771  0.00  0.00     0.047 A 
HETATM    7  C   UNK N   1      20.304  17.433   2.926  0.00  0.00     0.046 A 
HETATM    8  C   UNK N   1      21.923  18.797   4.127  0.00  0.00     0.018 A 
HETATM    9  C   UNK N   1      19.737  15.259   3.692  0.00  0.00     0.090 A 
HETATM   10  C   UNK N   1      20.161  18.448   1.977  0.00  0.00     0.054 A 
HETATM   11  C   UNK N   1      21.772  19.807   3.173  0.00  0.00     0.025 A 
HETATM   12  C   UNK N   1      20.891  19.632   2.101  0.00  0.00     0.036 A 
ENDROOT
BRANCH   4  13
HETATM   13  N   UNK N   1      22.279  16.664   5.979  0.00  0.00    -0.385 N 
HETATM   14  H   UNK N   1      22.129  17.244   6.760  0.00  0.00     0.160 HD
BRANCH  13  15
HETATM   15  C   UNK N   1      23.471  15.876   5.850  0.00  0.00     0.077 C 
HETATM   16  C   UNK N   1      23.578  14.740   6.853  0.00  0.00     0.032 C 
BRANCH  15  17
HETATM   17  C   UNK N   1      24.696  16.703   5.470  0.00  0.00     0.026 C 
BRANCH  17  18
HETATM   18  C   UNK N   1      25.137  16.562   4.027  0.00  0.00     0.032 C 
BRANCH  18  19
HETATM   19  C   UNK N   1      25.490  17.899   3.363  0.00  0.00     0.272 C 
BRANCH  19  20
HETATM   20  N   UNK N   1      26.113  18.835   4.309  0.00  0.00     0.087 N 
BRANCH  20  21
HETATM   21  C   UNK N   1      25.539  20.174   4.121  0.00  0.00     0.268 C 
HETATM   22  C   UNK N   1      25.300  20.454   2.650  0.00  0.00     0.037 C 
ENDBRANCH  20  21
BRANCH  20  23
HETATM   23  C   UNK N   1      27.565  18.769   4.077  0.00  0.00     0.268 C 
HETATM   24  C   UNK N   1      28.392  18.216   5.233  0.00  0.00     0.037 C 
ENDBRANCH  20  23
ENDBRANCH  19  20
ENDBRANCH  18  19
ENDBRANCH  17  18
ENDBRANCH  15  17
ENDBRANCH  13  15
ENDBRANCH   4  13
TORSDOF 8
ENDMDL
MODEL 8
REMARK VINA RESULT:      -5.0     18.698     21.389
REMARK  8 active torsions:
REMARK  status: ('A' for Active; 'I' for Inactive)
REMARK    1  A    between atoms: N_2  and  C_9 
REMARK    2  A    between atoms: N_2  and  C_11 
REMARK    3  A    between atoms: N_2  and  C_12 
REMARK    4  A    between atoms: N_3  and  C_8 
REMARK    5  A    between atoms: N_3  and  C_13 
REMARK    6  A    between atoms: C_6  and  C_7 
REMARK    7  A    between atoms: C_6  and  C_8 
REMARK    8  A    between atoms: C_7  and  C_9 
ROOT
HETATM    1 Cl   UNK N   1      32.382  21.385  -2.886  0.00  0.00    -0.084 Cl
HETATM    2  N   UNK N   1      31.272  25.917  -4.980  0.00  0.00    -0.365 N 
ATOM      3  HN  UNK N   1      32.240  25.944  -5.302  1.00  0.00     0.165 HD
HETATM    4  C   UNK N   1      28.645  25.849  -4.106  0.00  0.00     0.042 A 
HETATM    5  C   UNK N   1      29.510  24.793  -3.794  0.00  0.00     0.017 A 
HETATM    6  C   UNK N   1      29.111  26.926  -4.864  0.00  0.00     0.047 A 
HETATM    7  C   UNK N   1      30.845  24.850  -4.255  0.00  0.00     0.046 A 
HETATM    8  C   UNK N   1      29.071  23.678  -3.069  0.00  0.00     0.018 A 
HETATM    9  C   UNK N   1      30.439  26.949  -5.286  0.00  0.00     0.090 A 
HETATM   10  C   UNK N   1      31.720  23.797  -3.976  0.00  0.00     0.054 A 
HETATM   11  C   UNK N   1      29.955  22.631  -2.793  0.00  0.00     0.025 A 
HETATM   12  C   UNK N   1      31.277  22.692  -3.245  0.00  0.00     0.036 A 
ENDROOT
BRANCH   4  13
HETATM   13  N   UNK N   1      27.283  25.784  -3.755  0.00  0.00    -0.385 N 
HETATM   14  H   UNK N   1      26.982  25.309  -2.947  0.00  0.00     0.160 HD
BRANCH  13  15
HETATM   15  C   UNK N   1      26.352  26.441  -4.626  0.00  0.00     0.077 C 
HETATM   16  C   UNK N   1      25.608  27.599  -3.982  0.00  0.00     0.032 C 
BRANCH  15  17
HETATM   17  C   UNK N   1      25.637  25.481  -5.573  0.00  0.00     0.026 C 
BRANCH  17  18
HETATM   18  C   UNK N   1      25.999  24.020  -5.391  0.00  0.00     0.032 C 
BRANCH  18  19
HETATM   19  C   UNK N   1      25.839  23.188  -6.670  0.00  0.00     0.272 C 
BRANCH  19  20
HETATM   20  N   UNK N   1      26.986  22.297  -6.893  0.00  0.00     0.087 N 
BRANCH  20  21
HETATM   21  C   UNK N   1      28.233  23.064  -6.764  0.00  0.00     0.268 C 
HETATM   22  C   UNK N   1      29.405  22.141  -6.492  0.00  0.00     0.037 C 
ENDBRANCH  20  21
BRANCH  20  23
HETATM   23  C   UNK N   1      26.796  21.685  -8.217  0.00  0.00     0.268 C 
HETATM   24  C   UNK N   1      25.405  21.123  -8.490  0.00  0.00     0.037 C 
ENDBRANCH  20  23
ENDBRANCH  19  20
ENDBRANCH  18  19
ENDBRANCH  17  18
ENDBRANCH  15  17
ENDBRANCH  13  15
ENDBRANCH   4  13
TORSDOF 8
ENDMDL
MODEL 9
REMARK VINA RESULT:      -5.0      3.124      7.157
REMARK  8 active torsions:
REMARK  status: ('A' for Active; 'I' for Inactive)
REMARK    1  A    between atoms: N_2  and  C_9 
REMARK    2  A    between atoms: N_2  and  C_11 
REMARK    3  A    between atoms: N_2  and  C_12 
REMARK    4  A    between atoms: N_3  and  C_8 
REMARK    5  A    between atoms: N_3  and  C_13 
REMARK    6  A    between atoms: C_6  and  C_7 
REMARK    7  A    between atoms: C_6  and  C_8 
REMARK    8  A    between atoms: C_7  and  C_9 
ROOT
HETATM    1 Cl   UNK N   1      34.357  17.993   8.346  0.00  0.00    -0.084 Cl
HETATM    2  N   UNK N   1      36.127  15.671  12.544  0.00  0.00    -0.365 N 
ATOM      3  HN  UNK N   1      36.520  16.574  12.812  1.00  0.00     0.165 HD
HETATM    4  C   UNK N   1      35.067  13.217  11.820  0.00  0.00     0.042 A 
HETATM    5  C   UNK N   1      34.899  14.324  10.979  0.00  0.00     0.017 A 
HETATM    6  C   UNK N   1      35.761  13.360  13.023  0.00  0.00     0.047 A 
HETATM    7  C   UNK N   1      35.446  15.565  11.372  0.00  0.00     0.046 A 
HETATM    8  C   UNK N   1      34.178  14.230   9.782  0.00  0.00     0.018 A 
HETATM    9  C   UNK N   1      36.297  14.600  13.367  0.00  0.00     0.090 A 
HETATM   10  C   UNK N   1      35.272  16.689  10.561  0.00  0.00     0.054 A 
HETATM   11  C   UNK N   1      34.010  15.359   8.975  0.00  0.00     0.025 A 
HETATM   12  C   UNK N   1      34.558  16.585   9.364  0.00  0.00     0.036 A 
ENDROOT
BRANCH   4  13
HETATM   13  N   UNK N   1      34.450  11.988  11.515  0.00  0.00    -0.385 N 
HETATM   14  H   UNK N   1      33.710  11.931  10.868  0.00  0.00     0.160 HD
BRANCH  13  15
HETATM   15  C   UNK N   1      34.948  10.823  12.188  0.00  0.00     0.077 C 
HETATM   16  C   UNK N   1      35.976  10.036  11.392  0.00  0.00     0.032 C 
BRANCH  15  17
HETATM   17  C   UNK N   1      33.882  10.108  13.014  0.00  0.00     0.026 C 
BRANCH  17  18
HETATM   18  C   UNK N   1      33.568  10.756  14.348  0.00  0.00     0.032 C 
BRANCH  18  19
HETATM   19  C   UNK N   1      34.411  10.208  15.506  0.00  0.00     0.272 C 
BRANCH  19  20
HETATM   20  N   UNK N   1      35.851  10.277  15.219  0.00  0.00     0.087 N 
BRANCH  20  21
HETATM   21  C   UNK N   1      36.429   8.928  15.289  0.00  0.00     0.268 C 
HETATM   22  C   UNK N   1      37.930   8.996  15.491  0.00  0.00     0.037 C 
ENDBRANCH  20  21
BRANCH  20  23
HETATM   23  C   UNK N   1      36.430  11.226  16.182  0.00  0.00     0.268 C 
HETATM   24  C   UNK N   1      35.597  11.486  17.432  0.00  0.00     0.037 C 
ENDBRANCH  20  23
ENDBRANCH  19  20
ENDBRANCH  18  19
ENDBRANCH  17  18
ENDBRANCH  15  17
ENDBRANCH  13  15
ENDBRANCH   4  13
TORSDOF 8
ENDMDL
