REMARK  3 active torsions:
REMARK  status: ('A' for Active; 'I' for Inactive)
REMARK    1  A    between atoms: C_2  and  O_3 
REMARK       I    between atoms: N_5  and  C_2 
REMARK       I    between atoms: N_5  and  C_6 
REMARK    2  A    between atoms: C_15  and  C_16 
REMARK    3  A    between atoms: C_16  and  C_18 
ROOT
HETATM    1  O   UNK N   1      -3.832  -3.046   0.138  0.00  0.00    -0.238 OA
HETATM    2  C   UNK N   1      -4.272  -1.912  -0.003  0.00  0.00     0.378 C 
HETATM    3  N   UNK N   1      -3.437  -0.852  -0.111  0.00  0.00    -0.135 N 
HETATM    4  C   UNK N   1      -2.019  -0.913  -0.077  0.00  0.00     0.687 A 
HETATM    5  N   UNK N   1      -1.256   0.201  -0.153  0.00  0.00    -0.189 N 
HETATM    6  C   UNK N   1      -0.006  -0.265  -0.076  0.00  0.00     0.077 A 
HETATM    7  C   UNK N   1       1.164   0.467  -0.098  0.00  0.00     0.048 A 
HETATM    8  N   UNK N   1      -1.288  -2.057   0.043  0.00  0.00    -0.189 N 
ATOM      9  HN  UNK N   1      -1.625  -3.017   0.118  1.00  0.00     0.184 HD
HETATM   10  C   UNK N   1      -0.018  -1.617   0.039  0.00  0.00     0.076 A 
HETATM   11  C   UNK N   1       1.161  -2.355   0.133  0.00  0.00     0.033 A 
HETATM   12  C   UNK N   1       2.380  -1.638   0.106  0.00  0.00     0.018 A 
HETATM   13  C   UNK N   1       2.388  -0.218  -0.002  0.00  0.00     0.018 A 
HETATM   14  H   UNK N   1      -3.847   0.036  -0.223  0.00  0.00     0.189 HD
HETATM   15  H   UNK N   1      -1.551   1.136  -0.244  0.00  0.00     0.184 HD
ENDROOT
BRANCH  13  16
HETATM   16  C   UNK N   1       3.676   0.533  -0.020  0.00  0.00     0.199 C 
HETATM   17  O   UNK N   1       4.724  -0.096  -0.047  0.00  0.00    -0.286 OA
BRANCH  16  18
HETATM   18  C   UNK N   1       3.744   2.024   0.007  0.00  0.00     0.055 A 
HETATM   19  S   UNK N   1       2.498   3.113   0.157  0.00  0.00    -0.098 SA
HETATM   20  C   UNK N   1       3.341   4.538   0.140  0.00  0.00     0.050 A 
HETATM   21  C   UNK N   1       4.689   4.181   0.012  0.00  0.00     0.009 A 
HETATM   22  C   UNK N   1       4.918   2.775  -0.059  0.00  0.00     0.023 A 
ENDBRANCH  16  18
ENDBRANCH  13  16
BRANCH   2  23
HETATM   23  O   UNK N   1      -5.609  -1.694  -0.048  0.00  0.00    -0.308 OA
HETATM   24  C   UNK N   1      -6.531  -2.707   0.067  0.00  0.00     0.215 C 
ENDBRANCH   2  23
TORSDOF 3
