MODEL 1
REMARK VINA RESULT:      -7.1      0.000      0.000
REMARK  3 active torsions:
REMARK  status: ('A' for Active; 'I' for Inactive)
REMARK    1  A    between atoms: C_2  and  O_3 
REMARK       I    between atoms: N_5  and  C_2 
REMARK       I    between atoms: N_5  and  C_6 
REMARK    2  A    between atoms: C_15  and  C_16 
REMARK    3  A    between atoms: C_16  and  C_18 
ROOT
HETATM    1  O   UNK N   1      35.776  17.275  10.346  0.00  0.00    -0.238 OA
HETATM    2  C   UNK N   1      34.954  16.586   9.756  0.00  0.00     0.378 C 
HETATM    3  N   UNK N   1      34.552  15.397  10.263  0.00  0.00    -0.135 N 
HETATM    4  C   UNK N   1      35.006  14.825  11.481  0.00  0.00     0.687 A 
HETATM    5  N   UNK N   1      34.583  13.610  11.899  0.00  0.00    -0.189 N 
HETATM    6  C   UNK N   1      35.234  13.427  13.051  0.00  0.00     0.077 A 
HETATM    7  C   UNK N   1      35.164  12.331  13.888  0.00  0.00     0.048 A 
HETATM    8  N   UNK N   1      35.898  15.405  12.333  0.00  0.00    -0.189 N 
ATOM      9  HN  UNK N   1      36.360  16.310  12.244  1.00  0.00     0.184 HD
HETATM   10  C   UNK N   1      36.021  14.499  13.319  0.00  0.00     0.076 A 
HETATM   11  C   UNK N   1      36.807  14.563  14.469  0.00  0.00     0.033 A 
HETATM   12  C   UNK N   1      36.754  13.460  15.353  0.00  0.00     0.018 A 
HETATM   13  C   UNK N   1      35.936  12.331  15.063  0.00  0.00     0.018 A 
HETATM   14  H   UNK N   1      33.889  14.886   9.745  0.00  0.00     0.189 HD
HETATM   15  H   UNK N   1      33.944  13.004  11.459  0.00  0.00     0.184 HD
ENDROOT
BRANCH  13  16
HETATM   16  C   UNK N   1      35.893  11.168  15.994  0.00  0.00     0.199 C 
HETATM   17  O   UNK N   1      36.035  10.043  15.537  0.00  0.00    -0.286 OA
BRANCH  16  18
HETATM   18  C   UNK N   1      35.670  11.314  17.463  0.00  0.00     0.055 A 
HETATM   19  S   UNK N   1      35.826  10.164  18.652  0.00  0.00    -0.098 SA
HETATM   20  C   UNK N   1      35.455  11.065  19.991  0.00  0.00     0.050 A 
HETATM   21  C   UNK N   1      35.187  12.356  19.519  0.00  0.00     0.009 A 
HETATM   22  C   UNK N   1      35.310  12.500  18.105  0.00  0.00     0.023 A 
ENDBRANCH  16  18
ENDBRANCH  13  16
BRANCH   2  23
HETATM   23  O   UNK N   1      34.433  16.998   8.575  0.00  0.00    -0.308 OA
HETATM   24  C   UNK N   1      34.479  18.308   8.160  0.00  0.00     0.215 C 
ENDBRANCH   2  23
TORSDOF 3
ENDMDL
MODEL 2
REMARK VINA RESULT:      -7.0      4.258      9.482
REMARK  3 active torsions:
REMARK  status: ('A' for Active; 'I' for Inactive)
REMARK    1  A    between atoms: C_2  and  O_3 
REMARK       I    between atoms: N_5  and  C_2 
REMARK       I    between atoms: N_5  and  C_6 
REMARK    2  A    between atoms: C_15  and  C_16 
REMARK    3  A    between atoms: C_16  and  C_18 
ROOT
HETATM    1  O   UNK N   1      35.763  12.861  13.593  0.00  0.00    -0.238 OA
HETATM    2  C   UNK N   1      36.314  13.888  13.969  0.00  0.00     0.378 C 
HETATM    3  N   UNK N   1      36.264  15.016  13.221  0.00  0.00    -0.135 N 
HETATM    4  C   UNK N   1      35.602  15.148  11.972  0.00  0.00     0.687 A 
HETATM    5  N   UNK N   1      35.633  16.303  11.268  0.00  0.00    -0.189 N 
HETATM    6  C   UNK N   1      34.920  16.025  10.172  0.00  0.00     0.077 A 
HETATM    7  C   UNK N   1      34.649  16.868   9.113  0.00  0.00     0.048 A 
HETATM    8  N   UNK N   1      34.894  14.161  11.354  0.00  0.00    -0.189 N 
ATOM      9  HN  UNK N   1      34.725  13.208  11.676  1.00  0.00     0.184 HD
HETATM   10  C   UNK N   1      34.473  14.745  10.218  0.00  0.00     0.076 A 
HETATM   11  C   UNK N   1      33.698  14.202   9.194  0.00  0.00     0.033 A 
HETATM   12  C   UNK N   1      33.394  15.040   8.096  0.00  0.00     0.018 A 
HETATM   13  C   UNK N   1      33.876  16.379   8.046  0.00  0.00     0.018 A 
HETATM   14  H   UNK N   1      36.725  15.811  13.573  0.00  0.00     0.189 HD
HETATM   15  H   UNK N   1      36.075  17.149  11.507  0.00  0.00     0.184 HD
ENDROOT
BRANCH  13  16
HETATM   16  C   UNK N   1      33.561  17.254   6.880  0.00  0.00     0.199 C 
HETATM   17  O   UNK N   1      34.409  18.043   6.490  0.00  0.00    -0.286 OA
BRANCH  16  18
HETATM   18  C   UNK N   1      32.246  17.220   6.175  0.00  0.00     0.055 A 
HETATM   19  S   UNK N   1      30.726  17.067   6.828  0.00  0.00    -0.098 SA
HETATM   20  C   UNK N   1      29.800  17.145   5.457  0.00  0.00     0.050 A 
HETATM   21  C   UNK N   1      30.703  17.303   4.398  0.00  0.00     0.009 A 
HETATM   22  C   UNK N   1      32.071  17.348   4.796  0.00  0.00     0.023 A 
ENDBRANCH  16  18
ENDBRANCH  13  16
BRANCH   2  23
HETATM   23  O   UNK N   1      36.992  13.915  15.142  0.00  0.00    -0.308 OA
HETATM   24  C   UNK N   1      37.307  15.085  15.791  0.00  0.00     0.215 C 
ENDBRANCH   2  23
TORSDOF 3
ENDMDL
MODEL 3
REMARK VINA RESULT:      -6.9     10.796     14.603
REMARK  3 active torsions:
REMARK  status: ('A' for Active; 'I' for Inactive)
REMARK    1  A    between atoms: C_2  and  O_3 
REMARK       I    between atoms: N_5  and  C_2 
REMARK       I    between atoms: N_5  and  C_6 
REMARK    2  A    between atoms: C_15  and  C_16 
REMARK    3  A    between atoms: C_16  and  C_18 
ROOT
HETATM    1  O   UNK N   1      22.088  21.274   2.513  0.00  0.00    -0.238 OA
HETATM    2  C   UNK N   1      21.469  20.279   2.869  0.00  0.00     0.378 C 
HETATM    3  N   UNK N   1      22.097  19.261   3.503  0.00  0.00    -0.135 N 
HETATM    4  C   UNK N   1      23.480  19.216   3.821  0.00  0.00     0.687 A 
HETATM    5  N   UNK N   1      24.038  18.141   4.423  0.00  0.00    -0.189 N 
HETATM    6  C   UNK N   1      25.327  18.474   4.536  0.00  0.00     0.077 A 
HETATM    7  C   UNK N   1      26.344  17.715   5.079  0.00  0.00     0.048 A 
HETATM    8  N   UNK N   1      24.376  20.208   3.556  0.00  0.00    -0.189 N 
ATOM      9  HN  UNK N   1      24.207  21.110   3.112  1.00  0.00     0.184 HD
HETATM   10  C   UNK N   1      25.536  19.712   4.021  0.00  0.00     0.076 A 
HETATM   11  C   UNK N   1      26.800  20.301   4.018  0.00  0.00     0.033 A 
HETATM   12  C   UNK N   1      27.865  19.555   4.574  0.00  0.00     0.018 A 
HETATM   13  C   UNK N   1      27.644  18.251   5.102  0.00  0.00     0.018 A 
HETATM   14  H   UNK N   1      21.549  18.487   3.767  0.00  0.00     0.189 HD
HETATM   15  H   UNK N   1      23.598  17.308   4.711  0.00  0.00     0.184 HD
ENDROOT
BRANCH  13  16
HETATM   16  C   UNK N   1      28.773  17.465   5.677  0.00  0.00     0.199 C 
HETATM   17  O   UNK N   1      29.219  16.522   5.040  0.00  0.00    -0.286 OA
BRANCH  16  18
HETATM   18  C   UNK N   1      29.377  17.771   7.008  0.00  0.00     0.055 A 
HETATM   19  S   UNK N   1      28.693  18.571   8.294  0.00  0.00    -0.098 SA
HETATM   20  C   UNK N   1      29.930  18.489   9.391  0.00  0.00     0.050 A 
HETATM   21  C   UNK N   1      30.964  17.797   8.747  0.00  0.00     0.009 A 
HETATM   22  C   UNK N   1      30.656  17.390   7.415  0.00  0.00     0.023 A 
ENDBRANCH  16  18
ENDBRANCH  13  16
BRANCH   2  23
HETATM   23  O   UNK N   1      20.139  20.175   2.630  0.00  0.00    -0.308 OA
HETATM   24  C   UNK N   1      19.466  18.978   2.685  0.00  0.00     0.215 C 
ENDBRANCH   2  23
TORSDOF 3
ENDMDL
MODEL 4
REMARK VINA RESULT:      -6.7      5.702     10.665
REMARK  3 active torsions:
REMARK  status: ('A' for Active; 'I' for Inactive)
REMARK    1  A    between atoms: C_2  and  O_3 
REMARK       I    between atoms: N_5  and  C_2 
REMARK       I    between atoms: N_5  and  C_6 
REMARK    2  A    between atoms: C_15  and  C_16 
REMARK    3  A    between atoms: C_16  and  C_18 
ROOT
HETATM    1  O   UNK N   1      36.441  16.411  10.569  0.00  0.00    -0.238 OA
HETATM    2  C   UNK N   1      35.668  15.835  11.324  0.00  0.00     0.378 C 
HETATM    3  N   UNK N   1      34.383  15.611  10.962  0.00  0.00    -0.135 N 
HETATM    4  C   UNK N   1      33.796  15.993   9.727  0.00  0.00     0.687 A 
HETATM    5  N   UNK N   1      32.490  15.765   9.458  0.00  0.00    -0.189 N 
HETATM    6  C   UNK N   1      32.326  16.269   8.232  0.00  0.00     0.077 A 
HETATM    7  C   UNK N   1      31.164  16.302   7.487  0.00  0.00     0.048 A 
HETATM    8  N   UNK N   1      34.451  16.621   8.710  0.00  0.00    -0.189 N 
ATOM      9  HN  UNK N   1      35.431  16.901   8.669  1.00  0.00     0.184 HD
HETATM   10  C   UNK N   1      33.498  16.781   7.777  0.00  0.00     0.076 A 
HETATM   11  C   UNK N   1      33.601  17.367   6.516  0.00  0.00     0.033 A 
HETATM   12  C   UNK N   1      32.431  17.411   5.722  0.00  0.00     0.018 A 
HETATM   13  C   UNK N   1      31.201  16.884   6.208  0.00  0.00     0.018 A 
HETATM   14  H   UNK N   1      33.807  15.143  11.609  0.00  0.00     0.189 HD
HETATM   15  H   UNK N   1      31.818  15.329  10.030  0.00  0.00     0.184 HD
ENDROOT
BRANCH  13  16
HETATM   16  C   UNK N   1      29.968  16.942   5.371  0.00  0.00     0.199 C 
HETATM   17  O   UNK N   1      29.812  16.104   4.495  0.00  0.00    -0.286 OA
BRANCH  16  18
HETATM   18  C   UNK N   1      28.920  17.991   5.545  0.00  0.00     0.055 A 
HETATM   19  S   UNK N   1      27.991  18.727   4.380  0.00  0.00    -0.098 SA
HETATM   20  C   UNK N   1      27.061  19.722   5.323  0.00  0.00     0.050 A 
HETATM   21  C   UNK N   1      27.473  19.491   6.641  0.00  0.00     0.009 A 
HETATM   22  C   UNK N   1      28.511  18.520   6.769  0.00  0.00     0.023 A 
ENDBRANCH  16  18
ENDBRANCH  13  16
BRANCH   2  23
HETATM   23  O   UNK N   1      36.083  15.415  12.544  0.00  0.00    -0.308 OA
HETATM   24  C   UNK N   1      36.072  14.092  12.916  0.00  0.00     0.215 C 
ENDBRANCH   2  23
TORSDOF 3
ENDMDL
MODEL 5
REMARK VINA RESULT:      -6.7     12.136     15.161
REMARK  3 active torsions:
REMARK  status: ('A' for Active; 'I' for Inactive)
REMARK    1  A    between atoms: C_2  and  O_3 
REMARK       I    between atoms: N_5  and  C_2 
REMARK       I    between atoms: N_5  and  C_6 
REMARK    2  A    between atoms: C_15  and  C_16 
REMARK    3  A    between atoms: C_16  and  C_18 
ROOT
HETATM    1  O   UNK N   1      22.050  21.127   2.710  0.00  0.00    -0.238 OA
HETATM    2  C   UNK N   1      21.470  20.135   3.131  0.00  0.00     0.378 C 
HETATM    3  N   UNK N   1      22.152  19.141   3.748  0.00  0.00    -0.135 N 
HETATM    4  C   UNK N   1      23.553  19.120   3.974  0.00  0.00     0.687 A 
HETATM    5  N   UNK N   1      24.164  18.068   4.564  0.00  0.00    -0.189 N 
HETATM    6  C   UNK N   1      25.453  18.419   4.583  0.00  0.00     0.077 A 
HETATM    7  C   UNK N   1      26.514  17.687   5.076  0.00  0.00     0.048 A 
HETATM    8  N   UNK N   1      24.416  20.115   3.625  0.00  0.00    -0.189 N 
ATOM      9  HN  UNK N   1      24.206  21.004   3.170  1.00  0.00     0.184 HD
HETATM   10  C   UNK N   1      25.611  19.645   4.024  0.00  0.00     0.076 A 
HETATM   11  C   UNK N   1      26.864  20.248   3.922  0.00  0.00     0.033 A 
HETATM   12  C   UNK N   1      27.973  19.529   4.424  0.00  0.00     0.018 A 
HETATM   13  C   UNK N   1      27.805  18.237   4.999  0.00  0.00     0.018 A 
HETATM   14  H   UNK N   1      21.632  18.368   4.067  0.00  0.00     0.189 HD
HETATM   15  H   UNK N   1      23.755  17.238   4.902  0.00  0.00     0.184 HD
ENDROOT
BRANCH  13  16
HETATM   16  C   UNK N   1      28.980  17.480   5.518  0.00  0.00     0.199 C 
HETATM   17  O   UNK N   1      28.956  17.073   6.670  0.00  0.00    -0.286 OA
BRANCH  16  18
HETATM   18  C   UNK N   1      30.195  17.207   4.694  0.00  0.00     0.055 A 
HETATM   19  S   UNK N   1      30.287  16.523   3.183  0.00  0.00    -0.098 SA
HETATM   20  C   UNK N   1      31.921  16.583   2.924  0.00  0.00     0.050 A 
HETATM   21  C   UNK N   1      32.466  17.172   4.072  0.00  0.00     0.009 A 
HETATM   22  C   UNK N   1      31.502  17.526   5.062  0.00  0.00     0.023 A 
ENDBRANCH  16  18
ENDBRANCH  13  16
BRANCH   2  23
HETATM   23  O   UNK N   1      20.128  20.009   2.984  0.00  0.00    -0.308 OA
HETATM   24  C   UNK N   1      19.527  18.820   2.645  0.00  0.00     0.215 C 
ENDBRANCH   2  23
TORSDOF 3
ENDMDL
MODEL 6
REMARK VINA RESULT:      -6.6      4.935      9.766
REMARK  3 active torsions:
REMARK  status: ('A' for Active; 'I' for Inactive)
REMARK    1  A    between atoms: C_2  and  O_3 
REMARK       I    between atoms: N_5  and  C_2 
REMARK       I    between atoms: N_5  and  C_6 
REMARK    2  A    between atoms: C_15  and  C_16 
REMARK    3  A    between atoms: C_16  and  C_18 
ROOT
HETATM    1  O   UNK N   1      36.100  15.266  12.676  0.00  0.00    -0.238 OA
HETATM    2  C   UNK N   1      35.467  14.218  12.703  0.00  0.00     0.378 C 
HETATM    3  N   UNK N   1      34.515  13.957  11.777  0.00  0.00    -0.135 N 
HETATM    4  C   UNK N   1      34.146  14.817  10.710  0.00  0.00     0.687 A 
HETATM    5  N   UNK N   1      33.154  14.498   9.848  0.00  0.00    -0.189 N 
HETATM    6  C   UNK N   1      33.105  15.544   9.019  0.00  0.00     0.077 A 
HETATM    7  C   UNK N   1      32.251  15.728   7.950  0.00  0.00     0.048 A 
HETATM    8  N   UNK N   1      34.717  16.026  10.446  0.00  0.00    -0.189 N 
ATOM      9  HN  UNK N   1      35.477  16.488  10.947  1.00  0.00     0.184 HD
HETATM   10  C   UNK N   1      34.041  16.462   9.370  0.00  0.00     0.076 A 
HETATM   11  C   UNK N   1      34.203  17.652   8.661  0.00  0.00     0.033 A 
HETATM   12  C   UNK N   1      33.349  17.870   7.555  0.00  0.00     0.018 A 
HETATM   13  C   UNK N   1      32.360  16.910   7.197  0.00  0.00     0.018 A 
HETATM   14  H   UNK N   1      34.039  13.098  11.849  0.00  0.00     0.189 HD
HETATM   15  H   UNK N   1      32.599  13.685   9.833  0.00  0.00     0.184 HD
ENDROOT
BRANCH  13  16
HETATM   16  C   UNK N   1      31.456  17.150   6.035  0.00  0.00     0.199 C 
HETATM   17  O   UNK N   1      31.943  17.526   4.979  0.00  0.00    -0.286 OA
BRANCH  16  18
HETATM   18  C   UNK N   1      29.977  16.965   6.109  0.00  0.00     0.055 A 
HETATM   19  S   UNK N   1      29.028  15.887   5.274  0.00  0.00    -0.098 SA
HETATM   20  C   UNK N   1      27.539  16.249   5.901  0.00  0.00     0.050 A 
HETATM   21  C   UNK N   1      27.757  17.274   6.830  0.00  0.00     0.009 A 
HETATM   22  C   UNK N   1      29.120  17.674   6.951  0.00  0.00     0.023 A 
ENDBRANCH  16  18
ENDBRANCH  13  16
BRANCH   2  23
HETATM   23  O   UNK N   1      35.705  13.297  13.669  0.00  0.00    -0.308 OA
HETATM   24  C   UNK N   1      34.859  12.241  13.912  0.00  0.00     0.215 C 
ENDBRANCH   2  23
TORSDOF 3
ENDMDL
MODEL 7
REMARK VINA RESULT:      -6.6      1.435      2.388
REMARK  3 active torsions:
REMARK  status: ('A' for Active; 'I' for Inactive)
REMARK    1  A    between atoms: C_2  and  O_3 
REMARK       I    between atoms: N_5  and  C_2 
REMARK       I    between atoms: N_5  and  C_6 
REMARK    2  A    between atoms: C_15  and  C_16 
REMARK    3  A    between atoms: C_16  and  C_18 
ROOT
HETATM    1  O   UNK N   1      34.271  15.065  10.830  0.00  0.00    -0.238 OA
HETATM    2  C   UNK N   1      35.311  15.645  11.115  0.00  0.00     0.378 C 
HETATM    3  N   UNK N   1      36.092  15.210  12.132  0.00  0.00    -0.135 N 
HETATM    4  C   UNK N   1      35.822  14.087  12.957  0.00  0.00     0.687 A 
HETATM    5  N   UNK N   1      36.636  13.741  13.980  0.00  0.00    -0.189 N 
HETATM    6  C   UNK N   1      36.045  12.665  14.506  0.00  0.00     0.077 A 
HETATM    7  C   UNK N   1      36.468  11.922  15.590  0.00  0.00     0.048 A 
HETATM    8  N   UNK N   1      34.744  13.262  12.826  0.00  0.00    -0.189 N 
ATOM      9  HN  UNK N   1      33.991  13.310  12.140  1.00  0.00     0.184 HD
HETATM   10  C   UNK N   1      34.913  12.371  13.818  0.00  0.00     0.076 A 
HETATM   11  C   UNK N   1      34.107  11.286  14.162  0.00  0.00     0.033 A 
HETATM   12  C   UNK N   1      34.514  10.498  15.264  0.00  0.00     0.018 A 
HETATM   13  C   UNK N   1      35.696  10.818  15.991  0.00  0.00     0.018 A 
HETATM   14  H   UNK N   1      36.917  15.715  12.315  0.00  0.00     0.189 HD
HETATM   15  H   UNK N   1      37.469  14.179  14.269  0.00  0.00     0.184 HD
ENDROOT
BRANCH  13  16
HETATM   16  C   UNK N   1      36.115   9.989  17.158  0.00  0.00     0.199 C 
HETATM   17  O   UNK N   1      37.111   9.287  17.054  0.00  0.00    -0.286 OA
BRANCH  16  18
HETATM   18  C   UNK N   1      35.363   9.967  18.447  0.00  0.00     0.055 A 
HETATM   19  S   UNK N   1      34.224   8.871  18.960  0.00  0.00    -0.098 SA
HETATM   20  C   UNK N   1      33.882   9.475  20.463  0.00  0.00     0.050 A 
HETATM   21  C   UNK N   1      34.692  10.608  20.611  0.00  0.00     0.009 A 
HETATM   22  C   UNK N   1      35.525  10.883  19.486  0.00  0.00     0.023 A 
ENDBRANCH  16  18
ENDBRANCH  13  16
BRANCH   2  23
HETATM   23  O   UNK N   1      35.700  16.741  10.419  0.00  0.00    -0.308 OA
HETATM   24  C   UNK N   1      34.945  17.285   9.408  0.00  0.00     0.215 C 
ENDBRANCH   2  23
TORSDOF 3
ENDMDL
MODEL 8
REMARK VINA RESULT:      -6.5      7.313     12.227
REMARK  3 active torsions:
REMARK  status: ('A' for Active; 'I' for Inactive)
REMARK    1  A    between atoms: C_2  and  O_3 
REMARK       I    between atoms: N_5  and  C_2 
REMARK       I    between atoms: N_5  and  C_6 
REMARK    2  A    between atoms: C_15  and  C_16 
REMARK    3  A    between atoms: C_16  and  C_18 
ROOT
HETATM    1  O   UNK N   1      34.722  16.023   8.260  0.00  0.00    -0.238 OA
HETATM    2  C   UNK N   1      34.438  16.826   9.139  0.00  0.00     0.378 C 
HETATM    3  N   UNK N   1      33.200  17.367   9.211  0.00  0.00    -0.135 N 
HETATM    4  C   UNK N   1      32.126  17.089   8.325  0.00  0.00     0.687 A 
HETATM    5  N   UNK N   1      30.927  17.703   8.444  0.00  0.00    -0.189 N 
HETATM    6  C   UNK N   1      30.208  17.192   7.440  0.00  0.00     0.077 A 
HETATM    7  C   UNK N   1      28.903  17.493   7.106  0.00  0.00     0.048 A 
HETATM    8  N   UNK N   1      32.178  16.211   7.284  0.00  0.00    -0.189 N 
ATOM      9  HN  UNK N   1      32.962  15.630   6.987  1.00  0.00     0.184 HD
HETATM   10  C   UNK N   1      30.951  16.296   6.743  0.00  0.00     0.076 A 
HETATM   11  C   UNK N   1      30.433  15.613   5.644  0.00  0.00     0.033 A 
HETATM   12  C   UNK N   1      29.096  15.891   5.277  0.00  0.00     0.018 A 
HETATM   13  C   UNK N   1      28.323  16.841   6.003  0.00  0.00     0.018 A 
HETATM   14  H   UNK N   1      33.028  18.007   9.940  0.00  0.00     0.189 HD
HETATM   15  H   UNK N   1      30.648  18.370   9.113  0.00  0.00     0.184 HD
ENDROOT
BRANCH  13  16
HETATM   16  C   UNK N   1      26.917  17.137   5.606  0.00  0.00     0.199 C 
HETATM   17  O   UNK N   1      26.023  16.413   6.020  0.00  0.00    -0.286 OA
BRANCH  16  18
HETATM   18  C   UNK N   1      26.552  18.275   4.710  0.00  0.00     0.055 A 
HETATM   19  S   UNK N   1      25.096  18.581   3.971  0.00  0.00    -0.098 SA
HETATM   20  C   UNK N   1      25.446  20.001   3.194  0.00  0.00     0.050 A 
HETATM   21  C   UNK N   1      26.780  20.288   3.510  0.00  0.00     0.009 A 
HETATM   22  C   UNK N   1      27.400  19.326   4.362  0.00  0.00     0.023 A 
ENDBRANCH  16  18
ENDBRANCH  13  16
BRANCH   2  23
HETATM   23  O   UNK N   1      35.364  17.196  10.058  0.00  0.00    -0.308 OA
HETATM   24  C   UNK N   1      35.701  16.407  11.132  0.00  0.00     0.215 C 
ENDBRANCH   2  23
TORSDOF 3
ENDMDL
MODEL 9
REMARK VINA RESULT:      -6.4      2.755      3.740
REMARK  3 active torsions:
REMARK  status: ('A' for Active; 'I' for Inactive)
REMARK    1  A    between atoms: C_2  and  O_3 
REMARK       I    between atoms: N_5  and  C_2 
REMARK       I    between atoms: N_5  and  C_6 
REMARK    2  A    between atoms: C_15  and  C_16 
REMARK    3  A    between atoms: C_16  and  C_18 
ROOT
HETATM    1  O   UNK N   1      34.938  16.250   6.063  0.00  0.00    -0.238 OA
HETATM    2  C   UNK N   1      34.185  17.083   6.551  0.00  0.00     0.378 C 
HETATM    3  N   UNK N   1      34.014  17.163   7.892  0.00  0.00    -0.135 N 
HETATM    4  C   UNK N   1      34.651  16.337   8.855  0.00  0.00     0.687 A 
HETATM    5  N   UNK N   1      34.395  16.458  10.177  0.00  0.00    -0.189 N 
HETATM    6  C   UNK N   1      35.163  15.517  10.736  0.00  0.00     0.077 A 
HETATM    7  C   UNK N   1      35.271  15.211  12.077  0.00  0.00     0.048 A 
HETATM    8  N   UNK N   1      35.553  15.356   8.570  0.00  0.00    -0.189 N 
ATOM      9  HN  UNK N   1      35.908  15.070   7.657  1.00  0.00     0.184 HD
HETATM   10  C   UNK N   1      35.861  14.856   9.778  0.00  0.00     0.076 A 
HETATM   11  C   UNK N   1      36.744  13.824  10.096  0.00  0.00     0.033 A 
HETATM   12  C   UNK N   1      36.885  13.488  11.463  0.00  0.00     0.018 A 
HETATM   13  C   UNK N   1      36.141  14.176  12.463  0.00  0.00     0.018 A 
HETATM   14  H   UNK N   1      33.396  17.852   8.227  0.00  0.00     0.189 HD
HETATM   15  H   UNK N   1      33.787  17.089  10.625  0.00  0.00     0.184 HD
ENDROOT
BRANCH  13  16
HETATM   16  C   UNK N   1      36.287  13.811  13.901  0.00  0.00     0.199 C 
HETATM   17  O   UNK N   1      36.812  14.611  14.662  0.00  0.00    -0.286 OA
BRANCH  16  18
HETATM   18  C   UNK N   1      35.830  12.501  14.454  0.00  0.00     0.055 A 
HETATM   19  S   UNK N   1      36.695  11.092  14.620  0.00  0.00    -0.098 SA
HETATM   20  C   UNK N   1      35.552  10.120  15.323  0.00  0.00     0.050 A 
HETATM   21  C   UNK N   1      34.407  10.914  15.454  0.00  0.00     0.009 A 
HETATM   22  C   UNK N   1      34.560  12.248  14.972  0.00  0.00     0.023 A 
ENDBRANCH  16  18
ENDBRANCH  13  16
BRANCH   2  23
HETATM   23  O   UNK N   1      33.500  17.940   5.756  0.00  0.00    -0.308 OA
HETATM   24  C   UNK N   1      32.715  17.517   4.710  0.00  0.00     0.215 C 
ENDBRANCH   2  23
TORSDOF 3
ENDMDL
