REMARK  3 active torsions:
REMARK  status: ('A' for Active; 'I' for Inactive)
REMARK    1  A    between atoms: C_7  and  C_8 
REMARK    2  A    between atoms: C_8  and  C_10 
REMARK    3  A    between atoms: C_12  and  N_13 
ROOT
HETATM    1  C   UNK N   1       1.802  -1.316   0.000  0.00  0.00     0.145 A 
HETATM    2  O   UNK N   1       2.867  -2.078  -0.000  0.00  0.00    -0.274 OA
HETATM    3  C   UNK N   1       2.451  -3.320   0.000  0.00  0.00     0.222 A 
HETATM    4  N   UNK N   1       1.109  -3.412   0.000  0.00  0.00    -0.330 N 
ATOM      5  HN  UNK N   1       0.541  -4.259   0.000  1.00  0.00     0.168 HD
HETATM    6  C   UNK N   1       0.684  -2.134   0.000  0.00  0.00     0.133 A 
ENDROOT
BRANCH   1   7
HETATM    7  C   UNK N   1       1.837   0.166  -0.000  0.00  0.00     0.217 C 
HETATM    8  O   UNK N   1       2.925   0.723  -0.000  0.00  0.00    -0.284 OA
BRANCH   7   9
HETATM    9  C   UNK N   1       0.597   0.991  -0.000  0.00  0.00     0.018 A 
HETATM   10  C   UNK N   1       0.688   2.391  -0.000  0.00  0.00     0.034 A 
HETATM   11  C   UNK N   1      -0.471   3.175   0.000  0.00  0.00     0.011 A 
HETATM   12 Br   UNK N   1      -0.336   5.073   0.000  0.00  0.00    -0.051 Br
HETATM   13  C   UNK N   1      -1.729   2.567  -0.000  0.00  0.00     0.019 A 
HETATM   14  C   UNK N   1      -1.830   1.176  -0.000  0.00  0.00     0.002 A 
HETATM   15  C   UNK N   1      -0.674   0.395  -0.000  0.00  0.00     0.015 A 
ENDBRANCH   7   9
ENDBRANCH   1   7
BRANCH   3  16
HETATM   16  N   UNK N   1       3.307  -4.438  -0.000  0.00  0.00    -0.365 N 
HETATM   17  H   UNK N   1       2.929  -5.347  -0.000  0.00  0.00     0.159 HD
HETATM   18  H   UNK N   1       4.283  -4.311  -0.000  0.00  0.00     0.159 HD
ENDBRANCH   3  16
TORSDOF 3
