MODEL 1
REMARK VINA RESULT:      -6.3      0.000      0.000
REMARK  3 active torsions:
REMARK  status: ('A' for Active; 'I' for Inactive)
REMARK    1  A    between atoms: C_7  and  C_8 
REMARK    2  A    between atoms: C_8  and  C_10 
REMARK    3  A    between atoms: C_12  and  N_13 
ROOT
HETATM    1  C   UNK N   1      34.956  16.874   9.246  0.00  0.00     0.145 A 
HETATM    2  O   UNK N   1      35.462  17.109  10.431  0.00  0.00    -0.274 OA
HETATM    3  C   UNK N   1      35.849  15.957  10.919  0.00  0.00     0.222 A 
HETATM    4  N   UNK N   1      35.611  14.936  10.076  0.00  0.00    -0.330 N 
ATOM      5  HN  UNK N   1      35.817  13.947  10.219  1.00  0.00     0.168 HD
HETATM    6  C   UNK N   1      35.039  15.513   9.002  0.00  0.00     0.133 A 
ENDROOT
BRANCH   1   7
HETATM    7  C   UNK N   1      34.401  17.920   8.354  0.00  0.00     0.217 C 
HETATM    8  O   UNK N   1      34.931  19.021   8.346  0.00  0.00    -0.284 OA
BRANCH   7   9
HETATM    9  C   UNK N   1      33.225  17.672   7.475  0.00  0.00     0.018 A 
HETATM   10  C   UNK N   1      33.406  17.511   6.093  0.00  0.00     0.034 A 
HETATM   11  C   UNK N   1      32.308  17.278   5.258  0.00  0.00     0.011 A 
HETATM   12 Br   UNK N   1      32.566  17.060   3.385  0.00  0.00    -0.051 Br
HETATM   13  C   UNK N   1      31.021  17.204   5.796  0.00  0.00     0.019 A 
HETATM   14  C   UNK N   1      30.830  17.364   7.168  0.00  0.00     0.002 A 
HETATM   15  C   UNK N   1      31.925  17.596   8.000  0.00  0.00     0.015 A 
ENDBRANCH   7   9
ENDBRANCH   1   7
BRANCH   3  16
HETATM   16  N   UNK N   1      36.447  15.797  12.184  0.00  0.00    -0.365 N 
HETATM   17  H   UNK N   1      37.322  15.352  12.262  0.00  0.00     0.159 HD
HETATM   18  H   UNK N   1      35.992  16.131  12.990  0.00  0.00     0.159 HD
ENDBRANCH   3  16
TORSDOF 3
ENDMDL
MODEL 2
REMARK VINA RESULT:      -6.1      1.350      1.836
REMARK  3 active torsions:
REMARK  status: ('A' for Active; 'I' for Inactive)
REMARK    1  A    between atoms: C_7  and  C_8 
REMARK    2  A    between atoms: C_8  and  C_10 
REMARK    3  A    between atoms: C_12  and  N_13 
ROOT
HETATM    1  C   UNK N   1      34.917  16.890   9.186  0.00  0.00     0.145 A 
HETATM    2  O   UNK N   1      35.441  17.123  10.363  0.00  0.00    -0.274 OA
HETATM    3  C   UNK N   1      35.746  15.961  10.885  0.00  0.00     0.222 A 
HETATM    4  N   UNK N   1      35.434  14.935  10.072  0.00  0.00    -0.330 N 
ATOM      5  HN  UNK N   1      35.569  13.939  10.243  1.00  0.00     0.168 HD
HETATM    6  C   UNK N   1      34.903  15.520   8.981  0.00  0.00     0.133 A 
ENDROOT
BRANCH   1   7
HETATM    7  C   UNK N   1      34.436  17.947   8.264  0.00  0.00     0.217 C 
HETATM    8  O   UNK N   1      34.927  19.063   8.349  0.00  0.00    -0.284 OA
BRANCH   7   9
HETATM    9  C   UNK N   1      33.381  17.692   7.244  0.00  0.00     0.018 A 
HETATM   10  C   UNK N   1      32.040  17.572   7.640  0.00  0.00     0.034 A 
HETATM   11  C   UNK N   1      31.041  17.333   6.689  0.00  0.00     0.011 A 
HETATM   12 Br   UNK N   1      29.226  17.173   7.237  0.00  0.00    -0.051 Br
HETATM   13  C   UNK N   1      31.374  17.212   5.338  0.00  0.00     0.019 A 
HETATM   14  C   UNK N   1      32.704  17.330   4.935  0.00  0.00     0.002 A 
HETATM   15  C   UNK N   1      33.699  17.568   5.883  0.00  0.00     0.015 A 
ENDBRANCH   7   9
ENDBRANCH   1   7
BRANCH   3  16
HETATM   16  N   UNK N   1      36.334  15.796  12.154  0.00  0.00    -0.365 N 
HETATM   17  H   UNK N   1      37.251  16.115  12.316  0.00  0.00     0.159 HD
HETATM   18  H   UNK N   1      35.828  15.361  12.878  0.00  0.00     0.159 HD
ENDBRANCH   3  16
TORSDOF 3
ENDMDL
MODEL 3
REMARK VINA RESULT:      -6.0     12.859     14.263
REMARK  3 active torsions:
REMARK  status: ('A' for Active; 'I' for Inactive)
REMARK    1  A    between atoms: C_7  and  C_8 
REMARK    2  A    between atoms: C_8  and  C_10 
REMARK    3  A    between atoms: C_12  and  N_13 
ROOT
HETATM    1  C   UNK N   1      19.397  16.998   8.689  0.00  0.00     0.145 A 
HETATM    2  O   UNK N   1      19.901  18.039   9.302  0.00  0.00    -0.274 OA
HETATM    3  C   UNK N   1      18.907  18.656   9.892  0.00  0.00     0.222 A 
HETATM    4  N   UNK N   1      17.728  18.044   9.685  0.00  0.00    -0.330 N 
ATOM      5  HN  UNK N   1      16.810  18.321  10.033  1.00  0.00     0.168 HD
HETATM    6  C   UNK N   1      18.031  16.981   8.915  0.00  0.00     0.133 A 
ENDROOT
BRANCH   1   7
HETATM    7  C   UNK N   1      20.194  16.031   7.897  0.00  0.00     0.217 C 
HETATM    8  O   UNK N   1      20.246  16.173   6.684  0.00  0.00    -0.284 OA
BRANCH   7   9
HETATM    9  C   UNK N   1      20.928  14.899   8.529  0.00  0.00     0.018 A 
HETATM   10  C   UNK N   1      22.174  14.502   8.021  0.00  0.00     0.034 A 
HETATM   11  C   UNK N   1      22.871  13.441   8.607  0.00  0.00     0.011 A 
HETATM   12 Br   UNK N   1      24.561  12.911   7.910  0.00  0.00    -0.051 Br
HETATM   13  C   UNK N   1      22.330  12.768   9.706  0.00  0.00     0.019 A 
HETATM   14  C   UNK N   1      21.092  13.155  10.218  0.00  0.00     0.002 A 
HETATM   15  C   UNK N   1      20.397  14.213   9.633  0.00  0.00     0.015 A 
ENDBRANCH   7   9
ENDBRANCH   1   7
BRANCH   3  16
HETATM   16  N   UNK N   1      19.050  19.829  10.658  0.00  0.00    -0.365 N 
HETATM   17  H   UNK N   1      19.519  20.609  10.280  0.00  0.00     0.159 HD
HETATM   18  H   UNK N   1      18.683  19.870  11.570  0.00  0.00     0.159 HD
ENDBRANCH   3  16
TORSDOF 3
ENDMDL
MODEL 4
REMARK VINA RESULT:      -6.0     13.704     14.418
REMARK  3 active torsions:
REMARK  status: ('A' for Active; 'I' for Inactive)
REMARK    1  A    between atoms: C_7  and  C_8 
REMARK    2  A    between atoms: C_8  and  C_10 
REMARK    3  A    between atoms: C_12  and  N_13 
ROOT
HETATM    1  C   UNK N   1      19.716  17.318   8.614  0.00  0.00     0.145 A 
HETATM    2  O   UNK N   1      19.965  18.365   9.361  0.00  0.00    -0.274 OA
HETATM    3  C   UNK N   1      18.846  18.682   9.964  0.00  0.00     0.222 A 
HETATM    4  N   UNK N   1      17.835  17.858   9.635  0.00  0.00    -0.330 N 
ATOM      5  HN  UNK N   1      16.870  17.890   9.966  1.00  0.00     0.168 HD
HETATM    6  C   UNK N   1      18.382  16.981   8.771  0.00  0.00     0.133 A 
ENDROOT
BRANCH   1   7
HETATM    7  C   UNK N   1      20.724  16.642   7.763  0.00  0.00     0.217 C 
HETATM    8  O   UNK N   1      21.378  17.321   6.984  0.00  0.00    -0.284 OA
BRANCH   7   9
HETATM    9  C   UNK N   1      20.963  15.174   7.827  0.00  0.00     0.018 A 
HETATM   10  C   UNK N   1      21.225  14.560   9.061  0.00  0.00     0.034 A 
HETATM   11  C   UNK N   1      21.451  13.181   9.132  0.00  0.00     0.011 A 
HETATM   12 Br   UNK N   1      21.806  12.360  10.811  0.00  0.00    -0.051 Br
HETATM   13  C   UNK N   1      21.417  12.405   7.970  0.00  0.00     0.019 A 
HETATM   14  C   UNK N   1      21.158  13.005   6.739  0.00  0.00     0.002 A 
HETATM   15  C   UNK N   1      20.932  14.380   6.669  0.00  0.00     0.015 A 
ENDBRANCH   7   9
ENDBRANCH   1   7
BRANCH   3  16
HETATM   16  N   UNK N   1      18.711  19.761  10.858  0.00  0.00    -0.365 N 
HETATM   17  H   UNK N   1      19.476  20.357  11.029  0.00  0.00     0.159 HD
HETATM   18  H   UNK N   1      17.852  19.920  11.311  0.00  0.00     0.159 HD
ENDBRANCH   3  16
TORSDOF 3
ENDMDL
MODEL 5
REMARK VINA RESULT:      -5.7     11.737     12.731
REMARK  3 active torsions:
REMARK  status: ('A' for Active; 'I' for Inactive)
REMARK    1  A    between atoms: C_7  and  C_8 
REMARK    2  A    between atoms: C_8  and  C_10 
REMARK    3  A    between atoms: C_12  and  N_13 
ROOT
HETATM    1  C   UNK N   1      22.251  12.844   9.745  0.00  0.00     0.145 A 
HETATM    2  O   UNK N   1      21.802  12.277  10.836  0.00  0.00    -0.274 OA
HETATM    3  C   UNK N   1      22.830  12.097  11.627  0.00  0.00     0.222 A 
HETATM    4  N   UNK N   1      23.979  12.537  11.083  0.00  0.00    -0.330 N 
ATOM      5  HN  UNK N   1      24.913  12.513  11.492  1.00  0.00     0.168 HD
HETATM    6  C   UNK N   1      23.619  13.017   9.878  0.00  0.00     0.133 A 
ENDROOT
BRANCH   1   7
HETATM    7  C   UNK N   1      21.401  13.219   8.589  0.00  0.00     0.217 C 
HETATM    8  O   UNK N   1      21.024  12.335   7.833  0.00  0.00    -0.284 OA
BRANCH   7   9
HETATM    9  C   UNK N   1      20.995  14.627   8.323  0.00  0.00     0.018 A 
HETATM   10  C   UNK N   1      21.646  15.366   7.324  0.00  0.00     0.034 A 
HETATM   11  C   UNK N   1      21.272  16.689   7.067  0.00  0.00     0.011 A 
HETATM   12 Br   UNK N   1      22.161  17.682   5.709  0.00  0.00    -0.051 Br
HETATM   13  C   UNK N   1      20.246  17.285   7.805  0.00  0.00     0.019 A 
HETATM   14  C   UNK N   1      19.593  16.558   8.801  0.00  0.00     0.002 A 
HETATM   15  C   UNK N   1      19.966  15.239   9.057  0.00  0.00     0.015 A 
ENDBRANCH   7   9
ENDBRANCH   1   7
BRANCH   3  16
HETATM   16  N   UNK N   1      22.749  11.509  12.904  0.00  0.00    -0.365 N 
HETATM   17  H   UNK N   1      22.293  10.645  13.020  0.00  0.00     0.159 HD
HETATM   18  H   UNK N   1      23.149  11.962  13.681  0.00  0.00     0.159 HD
ENDBRANCH   3  16
TORSDOF 3
ENDMDL
MODEL 6
REMARK VINA RESULT:      -5.6      3.147      4.008
REMARK  3 active torsions:
REMARK  status: ('A' for Active; 'I' for Inactive)
REMARK    1  A    between atoms: C_7  and  C_8 
REMARK    2  A    between atoms: C_8  and  C_10 
REMARK    3  A    between atoms: C_12  and  N_13 
ROOT
HETATM    1  C   UNK N   1      32.476  17.420   7.818  0.00  0.00     0.145 A 
HETATM    2  O   UNK N   1      31.745  18.407   8.270  0.00  0.00    -0.274 OA
HETATM    3  C   UNK N   1      30.904  17.898   9.136  0.00  0.00     0.222 A 
HETATM    4  N   UNK N   1      31.056  16.569   9.278  0.00  0.00    -0.330 N 
ATOM      5  HN  UNK N   1      30.529  15.941   9.885  1.00  0.00     0.168 HD
HETATM    6  C   UNK N   1      32.060  16.253   8.438  0.00  0.00     0.133 A 
ENDROOT
BRANCH   1   7
HETATM    7  C   UNK N   1      33.555  17.574   6.812  0.00  0.00     0.217 C 
HETATM    8  O   UNK N   1      34.541  18.230   7.112  0.00  0.00    -0.284 OA
BRANCH   7   9
HETATM    9  C   UNK N   1      33.474  16.958   5.459  0.00  0.00     0.018 A 
HETATM   10  C   UNK N   1      34.105  15.730   5.210  0.00  0.00     0.034 A 
HETATM   11  C   UNK N   1      34.035  15.143   3.941  0.00  0.00     0.011 A 
HETATM   12 Br   UNK N   1      34.893  13.477   3.615  0.00  0.00    -0.051 Br
HETATM   13  C   UNK N   1      33.335  15.779   2.912  0.00  0.00     0.019 A 
HETATM   14  C   UNK N   1      32.704  17.000   3.150  0.00  0.00     0.002 A 
HETATM   15  C   UNK N   1      32.775  17.584   4.415  0.00  0.00     0.015 A 
ENDBRANCH   7   9
ENDBRANCH   1   7
BRANCH   3  16
HETATM   16  N   UNK N   1      29.946  18.651   9.842  0.00  0.00    -0.365 N 
HETATM   17  H   UNK N   1      30.119  18.916  10.774  0.00  0.00     0.159 HD
HETATM   18  H   UNK N   1      29.105  18.912   9.404  0.00  0.00     0.159 HD
ENDBRANCH   3  16
TORSDOF 3
ENDMDL
MODEL 7
REMARK VINA RESULT:      -5.4     16.362     17.440
REMARK  3 active torsions:
REMARK  status: ('A' for Active; 'I' for Inactive)
REMARK    1  A    between atoms: C_7  and  C_8 
REMARK    2  A    between atoms: C_8  and  C_10 
REMARK    3  A    between atoms: C_12  and  N_13 
ROOT
HETATM    1  C   UNK N   1      27.808  29.633  -2.445  0.00  0.00     0.145 A 
HETATM    2  O   UNK N   1      27.559  29.695  -1.161  0.00  0.00    -0.274 OA
HETATM    3  C   UNK N   1      28.711  29.833  -0.553  0.00  0.00     0.222 A 
HETATM    4  N   UNK N   1      29.745  29.866  -1.412  0.00  0.00    -0.330 N 
ATOM      5  HN  UNK N   1      30.736  29.965  -1.194  1.00  0.00     0.168 HD
HETATM    6  C   UNK N   1      29.177  29.739  -2.627  0.00  0.00     0.133 A 
ENDROOT
BRANCH   1   7
HETATM    7  C   UNK N   1      26.767  29.476  -3.490  0.00  0.00     0.217 C 
HETATM    8  O   UNK N   1      26.225  30.480  -3.927  0.00  0.00    -0.284 OA
BRANCH   7   9
HETATM    9  C   UNK N   1      26.366  28.143  -4.019  0.00  0.00     0.018 A 
HETATM   10  C   UNK N   1      26.913  26.977  -3.464  0.00  0.00     0.034 A 
HETATM   11  C   UNK N   1      26.543  25.719  -3.954  0.00  0.00     0.011 A 
HETATM   12 Br   UNK N   1      27.291  24.143  -3.194  0.00  0.00    -0.051 Br
HETATM   13  C   UNK N   1      25.623  25.618  -5.001  0.00  0.00     0.019 A 
HETATM   14  C   UNK N   1      25.074  26.772  -5.559  0.00  0.00     0.002 A 
HETATM   15  C   UNK N   1      25.444  28.025  -5.070  0.00  0.00     0.015 A 
ENDBRANCH   7   9
ENDBRANCH   1   7
BRANCH   3  16
HETATM   16  N   UNK N   1      28.857  29.936   0.844  0.00  0.00    -0.365 N 
HETATM   17  H   UNK N   1      28.405  29.292   1.435  0.00  0.00     0.159 HD
HETATM   18  H   UNK N   1      29.412  30.652   1.230  0.00  0.00     0.159 HD
ENDBRANCH   3  16
TORSDOF 3
ENDMDL
MODEL 8
REMARK VINA RESULT:      -5.4     13.492     14.304
REMARK  3 active torsions:
REMARK  status: ('A' for Active; 'I' for Inactive)
REMARK    1  A    between atoms: C_7  and  C_8 
REMARK    2  A    between atoms: C_8  and  C_10 
REMARK    3  A    between atoms: C_12  and  N_13 
ROOT
HETATM    1  C   UNK N   1      19.620  17.286   8.539  0.00  0.00     0.145 A 
HETATM    2  O   UNK N   1      19.983  18.353   9.206  0.00  0.00    -0.274 OA
HETATM    3  C   UNK N   1      18.951  18.730   9.919  0.00  0.00     0.222 A 
HETATM    4  N   UNK N   1      17.885  17.928   9.745  0.00  0.00    -0.330 N 
ATOM      5  HN  UNK N   1      16.967  18.005  10.182  1.00  0.00     0.168 HD
HETATM    6  C   UNK N   1      18.303  17.000   8.862  0.00  0.00     0.133 A 
ENDROOT
BRANCH   1   7
HETATM    7  C   UNK N   1      20.502  16.544   7.607  0.00  0.00     0.217 C 
HETATM    8  O   UNK N   1      21.296  15.740   8.073  0.00  0.00    -0.284 OA
BRANCH   7   9
HETATM    9  C   UNK N   1      20.452  16.747   6.132  0.00  0.00     0.018 A 
HETATM   10  C   UNK N   1      21.166  17.804   5.547  0.00  0.00     0.034 A 
HETATM   11  C   UNK N   1      21.126  18.003   4.162  0.00  0.00     0.011 A 
HETATM   12 Br   UNK N   1      22.098  19.438   3.378  0.00  0.00    -0.051 Br
HETATM   13  C   UNK N   1      20.372  17.149   3.353  0.00  0.00     0.019 A 
HETATM   14  C   UNK N   1      19.659  16.096   3.925  0.00  0.00     0.002 A 
HETATM   15  C   UNK N   1      19.700  15.898   5.306  0.00  0.00     0.015 A 
ENDBRANCH   7   9
ENDBRANCH   1   7
BRANCH   3  16
HETATM   16  N   UNK N   1      18.951  19.848  10.775  0.00  0.00    -0.365 N 
HETATM   17  H   UNK N   1      19.323  20.705  10.465  0.00  0.00     0.159 HD
HETATM   18  H   UNK N   1      18.580  19.773  11.684  0.00  0.00     0.159 HD
ENDBRANCH   3  16
TORSDOF 3
ENDMDL
MODEL 9
REMARK VINA RESULT:      -5.4      2.325      2.860
REMARK  3 active torsions:
REMARK  status: ('A' for Active; 'I' for Inactive)
REMARK    1  A    between atoms: C_7  and  C_8 
REMARK    2  A    between atoms: C_8  and  C_10 
REMARK    3  A    between atoms: C_12  and  N_13 
ROOT
HETATM    1  C   UNK N   1      33.881  16.896   8.263  0.00  0.00     0.145 A 
HETATM    2  O   UNK N   1      33.463  15.813   8.870  0.00  0.00    -0.274 OA
HETATM    3  C   UNK N   1      33.991  15.817  10.069  0.00  0.00     0.222 A 
HETATM    4  N   UNK N   1      34.768  16.894  10.284  0.00  0.00    -0.330 N 
ATOM      5  HN  UNK N   1      35.288  17.129  11.129  1.00  0.00     0.168 HD
HETATM    6  C   UNK N   1      34.704  17.591   9.134  0.00  0.00     0.133 A 
ENDROOT
BRANCH   1   7
HETATM    7  C   UNK N   1      33.509  17.271   6.878  0.00  0.00     0.217 C 
HETATM    8  O   UNK N   1      34.402  17.556   6.093  0.00  0.00    -0.284 OA
BRANCH   7   9
HETATM    9  C   UNK N   1      32.094  17.310   6.417  0.00  0.00     0.018 A 
HETATM   10  C   UNK N   1      31.054  17.378   7.356  0.00  0.00     0.034 A 
HETATM   11  C   UNK N   1      29.720  17.415   6.933  0.00  0.00     0.011 A 
HETATM   12 Br   UNK N   1      28.317  17.507   8.215  0.00  0.00    -0.051 Br
HETATM   13  C   UNK N   1      29.416  17.385   5.569  0.00  0.00     0.019 A 
HETATM   14  C   UNK N   1      30.443  17.318   4.628  0.00  0.00     0.002 A 
HETATM   15  C   UNK N   1      31.772  17.281   5.051  0.00  0.00     0.015 A 
ENDBRANCH   7   9
ENDBRANCH   1   7
BRANCH   3  16
HETATM   16  N   UNK N   1      33.775  14.809  11.028  0.00  0.00    -0.365 N 
HETATM   17  H   UNK N   1      33.672  15.048  11.978  0.00  0.00     0.159 HD
HETATM   18  H   UNK N   1      33.728  13.866  10.750  0.00  0.00     0.159 HD
ENDBRANCH   3  16
TORSDOF 3
ENDMDL
