MODEL 1
REMARK VINA RESULT:      -6.8      0.000      0.000
REMARK  6 active torsions:
REMARK  status: ('A' for Active; 'I' for Inactive)
REMARK    1  A    between atoms: C_2  and  C_3 
REMARK       I    between atoms: C_2  and  N_10 
REMARK    2  A    between atoms: C_5  and  N_6 
REMARK    3  A    between atoms: N_10  and  C_11 
REMARK    4  A    between atoms: N_10  and  C_18 
REMARK    5  A    between atoms: C_11  and  C_12 
REMARK    6  A    between atoms: C_18  and  C_19 
ROOT
HETATM    1  O   UNK N   1      28.864  22.965  -1.780  0.00  0.00    -0.265 OA
HETATM    2  C   UNK N   1      29.141  23.041  -2.957  0.00  0.00     0.279 C 
HETATM    3  N   UNK N   1      28.283  23.655  -3.856  0.00  0.00    -0.338 N 
ENDROOT
BRANCH   3   4
HETATM    4  C   UNK N   1      26.982  24.269  -3.523  0.00  0.00     0.165 C 
BRANCH   4   5
HETATM    5  C   UNK N   1      26.302  25.513  -4.084  0.00  0.00    -0.040 A 
HETATM    6  C   UNK N   1      25.587  25.589  -5.283  0.00  0.00     0.009 A 
HETATM    7  C   UNK N   1      25.001  26.783  -5.707  0.00  0.00     0.001 A 
HETATM    8  C   UNK N   1      25.123  27.931  -4.926  0.00  0.00     0.000 A 
HETATM    9  C   UNK N   1      25.832  27.879  -3.726  0.00  0.00     0.001 A 
HETATM   10  C   UNK N   1      26.416  26.677  -3.310  0.00  0.00     0.009 A 
ENDBRANCH   4   5
ENDBRANCH   3   4
BRANCH   3  11
HETATM   11  C   UNK N   1      28.714  23.694  -5.255  0.00  0.00     0.165 C 
BRANCH  11  12
HETATM   12  C   UNK N   1      28.244  22.710  -6.302  0.00  0.00    -0.040 A 
HETATM   13  C   UNK N   1      26.970  22.712  -6.890  0.00  0.00     0.009 A 
HETATM   14  C   UNK N   1      26.630  21.757  -7.852  0.00  0.00     0.001 A 
HETATM   15  C   UNK N   1      27.562  20.790  -8.236  0.00  0.00     0.000 A 
HETATM   16  C   UNK N   1      28.832  20.778  -7.658  0.00  0.00     0.001 A 
HETATM   17  C   UNK N   1      29.168  21.734  -6.696  0.00  0.00     0.009 A 
ENDBRANCH  11  12
ENDBRANCH   3  11
BRANCH   2  18
HETATM   18  C   UNK N   1      30.449  22.436  -3.351  0.00  0.00     0.162 A 
HETATM   19  O   UNK N   1      30.597  21.149  -3.550  0.00  0.00    -0.273 OA
HETATM   20  C   UNK N   1      31.846  20.947  -3.879  0.00  0.00     0.222 A 
HETATM   21  N   UNK N   1      32.559  22.086  -3.908  0.00  0.00    -0.329 N 
HETATM   22  C   UNK N   1      31.675  23.046  -3.572  0.00  0.00     0.134 A 
ATOM     23  HN  UNK N   1      33.548  22.198  -4.134  1.00  0.00     0.168 HD
BRANCH  20  24
HETATM   24  N   UNK N   1      32.386  19.679  -4.171  0.00  0.00    -0.365 N 
HETATM   25  H   UNK N   1      33.353  19.579  -4.321  0.00  0.00     0.159 HD
HETATM   26  H   UNK N   1      31.795  18.893  -4.224  0.00  0.00     0.159 HD
ENDBRANCH  20  24
ENDBRANCH   2  18
TORSDOF 6
ENDMDL
MODEL 2
REMARK VINA RESULT:      -6.7     11.180     13.187
REMARK  6 active torsions:
REMARK  status: ('A' for Active; 'I' for Inactive)
REMARK    1  A    between atoms: C_2  and  C_3 
REMARK       I    between atoms: C_2  and  N_10 
REMARK    2  A    between atoms: C_5  and  N_6 
REMARK    3  A    between atoms: N_10  and  C_11 
REMARK    4  A    between atoms: N_10  and  C_18 
REMARK    5  A    between atoms: C_11  and  C_12 
REMARK    6  A    between atoms: C_18  and  C_19 
ROOT
HETATM    1  O   UNK N   1      30.707  18.679   9.023  0.00  0.00    -0.265 OA
HETATM    2  C   UNK N   1      31.077  17.758   8.330  0.00  0.00     0.279 C 
HETATM    3  N   UNK N   1      30.221  17.155   7.423  0.00  0.00    -0.338 N 
ENDROOT
BRANCH   3   4
HETATM    4  C   UNK N   1      28.812  17.532   7.186  0.00  0.00     0.165 C 
BRANCH   4   5
HETATM    5  C   UNK N   1      28.215  18.643   6.330  0.00  0.00    -0.040 A 
HETATM    6  C   UNK N   1      28.119  18.644   4.935  0.00  0.00     0.009 A 
HETATM    7  C   UNK N   1      27.552  19.717   4.245  0.00  0.00     0.001 A 
HETATM    8  C   UNK N   1      27.067  20.816   4.950  0.00  0.00     0.000 A 
HETATM    9  C   UNK N   1      27.153  20.837   6.343  0.00  0.00     0.001 A 
HETATM   10  C   UNK N   1      27.723  19.757   7.025  0.00  0.00     0.009 A 
ENDBRANCH   4   5
ENDBRANCH   3   4
BRANCH   3  11
HETATM   11  C   UNK N   1      30.769  16.050   6.634  0.00  0.00     0.165 C 
BRANCH  11  12
HETATM   12  C   UNK N   1      31.572  16.243   5.368  0.00  0.00    -0.040 A 
HETATM   13  C   UNK N   1      31.577  17.413   4.593  0.00  0.00     0.009 A 
HETATM   14  C   UNK N   1      32.355  17.494   3.436  0.00  0.00     0.001 A 
HETATM   15  C   UNK N   1      33.137  16.406   3.040  0.00  0.00     0.000 A 
HETATM   16  C   UNK N   1      33.139  15.237   3.804  0.00  0.00     0.001 A 
HETATM   17  C   UNK N   1      32.360  15.159   4.961  0.00  0.00     0.009 A 
ENDBRANCH  11  12
ENDBRANCH   3  11
BRANCH   2  18
HETATM   18  C   UNK N   1      32.496  17.334   8.527  0.00  0.00     0.162 A 
HETATM   19  O   UNK N   1      32.820  16.226   9.149  0.00  0.00    -0.273 OA
HETATM   20  C   UNK N   1      34.125  16.148   9.153  0.00  0.00     0.222 A 
HETATM   21  N   UNK N   1      34.703  17.195   8.537  0.00  0.00    -0.329 N 
HETATM   22  C   UNK N   1      33.670  17.960   8.132  0.00  0.00     0.134 A 
ATOM     23  HN  UNK N   1      35.700  17.369   8.405  1.00  0.00     0.168 HD
BRANCH  20  24
HETATM   24  N   UNK N   1      34.846  15.088   9.735  0.00  0.00    -0.365 N 
HETATM   25  H   UNK N   1      35.548  15.277  10.398  0.00  0.00     0.159 HD
HETATM   26  H   UNK N   1      34.648  14.159   9.478  0.00  0.00     0.159 HD
ENDBRANCH  20  24
ENDBRANCH   2  18
TORSDOF 6
ENDMDL
MODEL 3
REMARK VINA RESULT:      -6.7     13.970     16.599
REMARK  6 active torsions:
REMARK  status: ('A' for Active; 'I' for Inactive)
REMARK    1  A    between atoms: C_2  and  C_3 
REMARK       I    between atoms: C_2  and  N_10 
REMARK    2  A    between atoms: C_5  and  N_6 
REMARK    3  A    between atoms: N_10  and  C_11 
REMARK    4  A    between atoms: N_10  and  C_18 
REMARK    5  A    between atoms: C_11  and  C_12 
REMARK    6  A    between atoms: C_18  and  C_19 
ROOT
HETATM    1  O   UNK N   1      35.637  17.562  10.462  0.00  0.00    -0.265 OA
HETATM    2  C   UNK N   1      35.308  16.441  10.145  0.00  0.00     0.279 C 
HETATM    3  N   UNK N   1      34.256  16.223   9.270  0.00  0.00    -0.338 N 
ENDROOT
BRANCH   3   4
HETATM    4  C   UNK N   1      33.433  17.272   8.636  0.00  0.00     0.165 C 
BRANCH   4   5
HETATM    5  C   UNK N   1      32.746  17.303   7.275  0.00  0.00    -0.040 A 
HETATM    6  C   UNK N   1      31.377  17.141   7.042  0.00  0.00     0.009 A 
HETATM    7  C   UNK N   1      30.847  17.187   5.751  0.00  0.00     0.001 A 
HETATM    8  C   UNK N   1      31.691  17.398   4.663  0.00  0.00     0.000 A 
HETATM    9  C   UNK N   1      33.061  17.563   4.871  0.00  0.00     0.001 A 
HETATM   10  C   UNK N   1      33.582  17.515   6.169  0.00  0.00     0.009 A 
ENDBRANCH   4   5
ENDBRANCH   3   4
BRANCH   3  11
HETATM   11  C   UNK N   1      33.941  14.829   8.954  0.00  0.00     0.165 C 
BRANCH  11  12
HETATM   12  C   UNK N   1      33.857  14.290   7.544  0.00  0.00    -0.040 A 
HETATM   13  C   UNK N   1      32.692  13.782   6.948  0.00  0.00     0.009 A 
HETATM   14  C   UNK N   1      32.717  13.305   5.635  0.00  0.00     0.001 A 
HETATM   15  C   UNK N   1      33.906  13.332   4.903  0.00  0.00     0.000 A 
HETATM   16  C   UNK N   1      35.070  13.835   5.486  0.00  0.00     0.001 A 
HETATM   17  C   UNK N   1      35.043  14.311   6.799  0.00  0.00     0.009 A 
ENDBRANCH  11  12
ENDBRANCH   3  11
BRANCH   2  18
HETATM   18  C   UNK N   1      36.108  15.338  10.759  0.00  0.00     0.162 A 
HETATM   19  O   UNK N   1      35.877  14.890  11.969  0.00  0.00    -0.273 OA
HETATM   20  C   UNK N   1      36.740  13.936  12.203  0.00  0.00     0.222 A 
HETATM   21  N   UNK N   1      37.565  13.724  11.161  0.00  0.00    -0.329 N 
HETATM   22  C   UNK N   1      37.169  14.615  10.232  0.00  0.00     0.134 A 
ATOM     23  HN  UNK N   1      38.320  13.041  11.092  1.00  0.00     0.168 HD
BRANCH  20  24
HETATM   24  N   UNK N   1      36.802  13.211  13.408  0.00  0.00    -0.365 N 
HETATM   25  H   UNK N   1      35.973  12.914  13.846  0.00  0.00     0.159 HD
HETATM   26  H   UNK N   1      37.675  13.002  13.812  0.00  0.00     0.159 HD
ENDBRANCH  20  24
ENDBRANCH   2  18
TORSDOF 6
ENDMDL
MODEL 4
REMARK VINA RESULT:      -6.5     19.179     22.742
REMARK  6 active torsions:
REMARK  status: ('A' for Active; 'I' for Inactive)
REMARK    1  A    between atoms: C_2  and  C_3 
REMARK       I    between atoms: C_2  and  N_10 
REMARK    2  A    between atoms: C_5  and  N_6 
REMARK    3  A    between atoms: N_10  and  C_11 
REMARK    4  A    between atoms: N_10  and  C_18 
REMARK    5  A    between atoms: C_11  and  C_12 
REMARK    6  A    between atoms: C_18  and  C_19 
ROOT
HETATM    1  O   UNK N   1      37.240  13.445   9.662  0.00  0.00    -0.265 OA
HETATM    2  C   UNK N   1      36.424  13.685  10.525  0.00  0.00     0.279 C 
HETATM    3  N   UNK N   1      36.200  12.798  11.565  0.00  0.00    -0.338 N 
ENDROOT
BRANCH   3   4
HETATM    4  C   UNK N   1      36.887  11.505  11.758  0.00  0.00     0.165 C 
BRANCH   4   5
HETATM    5  C   UNK N   1      36.858  10.535  12.934  0.00  0.00    -0.040 A 
HETATM    6  C   UNK N   1      35.917   9.521  13.141  0.00  0.00     0.009 A 
HETATM    7  C   UNK N   1      35.982   8.684  14.256  0.00  0.00     0.001 A 
HETATM    8  C   UNK N   1      37.003   8.851  15.190  0.00  0.00     0.000 A 
HETATM    9  C   UNK N   1      37.953   9.855  15.004  0.00  0.00     0.001 A 
HETATM   10  C   UNK N   1      37.879  10.690  13.883  0.00  0.00     0.009 A 
ENDBRANCH   4   5
ENDBRANCH   3   4
BRANCH   3  11
HETATM   11  C   UNK N   1      35.192  13.185  12.555  0.00  0.00     0.165 C 
BRANCH  11  12
HETATM   12  C   UNK N   1      35.492  13.371  14.025  0.00  0.00    -0.040 A 
HETATM   13  C   UNK N   1      36.525  14.171  14.538  0.00  0.00     0.009 A 
HETATM   14  C   UNK N   1      36.721  14.278  15.917  0.00  0.00     0.001 A 
HETATM   15  C   UNK N   1      35.886  13.586  16.798  0.00  0.00     0.000 A 
HETATM   16  C   UNK N   1      34.856  12.788  16.299  0.00  0.00     0.001 A 
HETATM   17  C   UNK N   1      34.662  12.683  14.920  0.00  0.00     0.009 A 
ENDBRANCH  11  12
ENDBRANCH   3  11
BRANCH   2  18
HETATM   18  C   UNK N   1      35.698  14.983  10.380  0.00  0.00     0.162 A 
HETATM   19  O   UNK N   1      34.641  15.116   9.618  0.00  0.00    -0.273 OA
HETATM   20  C   UNK N   1      34.248  16.359   9.710  0.00  0.00     0.222 A 
HETATM   21  N   UNK N   1      35.028  17.084  10.531  0.00  0.00    -0.329 N 
HETATM   22  C   UNK N   1      35.959  16.213  10.966  0.00  0.00     0.134 A 
ATOM     23  HN  UNK N   1      34.934  18.072  10.771  1.00  0.00     0.168 HD
BRANCH  20  24
HETATM   24  N   UNK N   1      33.133  16.884   9.026  0.00  0.00    -0.365 N 
HETATM   25  H   UNK N   1      33.080  17.848   8.840  0.00  0.00     0.159 HD
HETATM   26  H   UNK N   1      32.408  16.284   8.736  0.00  0.00     0.159 HD
ENDBRANCH  20  24
ENDBRANCH   2  18
TORSDOF 6
ENDMDL
MODEL 5
REMARK VINA RESULT:      -6.4     10.973     14.004
REMARK  6 active torsions:
REMARK  status: ('A' for Active; 'I' for Inactive)
REMARK    1  A    between atoms: C_2  and  C_3 
REMARK       I    between atoms: C_2  and  N_10 
REMARK    2  A    between atoms: C_5  and  N_6 
REMARK    3  A    between atoms: N_10  and  C_11 
REMARK    4  A    between atoms: N_10  and  C_18 
REMARK    5  A    between atoms: C_11  and  C_12 
REMARK    6  A    between atoms: C_18  and  C_19 
ROOT
HETATM    1  O   UNK N   1      28.212  19.329   7.844  0.00  0.00    -0.265 OA
HETATM    2  C   UNK N   1      28.434  18.568   6.929  0.00  0.00     0.279 C 
HETATM    3  N   UNK N   1      29.388  17.570   7.043  0.00  0.00    -0.338 N 
ENDROOT
BRANCH   3   4
HETATM    4  C   UNK N   1      30.222  17.307   8.234  0.00  0.00     0.165 C 
BRANCH   4   5
HETATM    5  C   UNK N   1      31.731  17.142   8.368  0.00  0.00    -0.040 A 
HETATM    6  C   UNK N   1      32.691  18.127   8.118  0.00  0.00     0.009 A 
HETATM    7  C   UNK N   1      34.055  17.871   8.273  0.00  0.00     0.001 A 
HETATM    8  C   UNK N   1      34.481  16.610   8.684  0.00  0.00     0.000 A 
HETATM    9  C   UNK N   1      33.541  15.611   8.940  0.00  0.00     0.001 A 
HETATM   10  C   UNK N   1      32.177  15.878   8.782  0.00  0.00     0.009 A 
ENDBRANCH   4   5
ENDBRANCH   3   4
BRANCH   3  11
HETATM   11  C   UNK N   1      29.579  16.705   5.877  0.00  0.00     0.165 C 
BRANCH  11  12
HETATM   12  C   UNK N   1      30.925  16.442   5.242  0.00  0.00    -0.040 A 
HETATM   13  C   UNK N   1      31.576  15.199   5.228  0.00  0.00     0.009 A 
HETATM   14  C   UNK N   1      32.823  15.058   4.612  0.00  0.00     0.001 A 
HETATM   15  C   UNK N   1      33.432  16.159   4.005  0.00  0.00     0.000 A 
HETATM   16  C   UNK N   1      32.793  17.400   4.013  0.00  0.00     0.001 A 
HETATM   17  C   UNK N   1      31.547  17.538   4.629  0.00  0.00     0.009 A 
ENDBRANCH  11  12
ENDBRANCH   3  11
BRANCH   2  18
HETATM   18  C   UNK N   1      27.618  18.788   5.696  0.00  0.00     0.162 A 
HETATM   19  O   UNK N   1      26.505  18.138   5.465  0.00  0.00    -0.273 OA
HETATM   20  C   UNK N   1      26.041  18.556   4.316  0.00  0.00     0.222 A 
HETATM   21  N   UNK N   1      26.828  19.491   3.755  0.00  0.00    -0.329 N 
HETATM   22  C   UNK N   1      27.841  19.647   4.629  0.00  0.00     0.134 A 
ATOM     23  HN  UNK N   1      26.689  19.972   2.866  1.00  0.00     0.168 HD
BRANCH  20  24
HETATM   24  N   UNK N   1      24.850  18.082   3.731  0.00  0.00    -0.365 N 
HETATM   25  H   UNK N   1      24.212  18.716   3.333  0.00  0.00     0.159 HD
HETATM   26  H   UNK N   1      24.658  17.117   3.720  0.00  0.00     0.159 HD
ENDBRANCH  20  24
ENDBRANCH   2  18
TORSDOF 6
ENDMDL
MODEL 6
REMARK VINA RESULT:      -6.4      3.494      6.699
REMARK  6 active torsions:
REMARK  status: ('A' for Active; 'I' for Inactive)
REMARK    1  A    between atoms: C_2  and  C_3 
REMARK       I    between atoms: C_2  and  N_10 
REMARK    2  A    between atoms: C_5  and  N_6 
REMARK    3  A    between atoms: N_10  and  C_11 
REMARK    4  A    between atoms: N_10  and  C_18 
REMARK    5  A    between atoms: C_11  and  C_12 
REMARK    6  A    between atoms: C_18  and  C_19 
ROOT
HETATM    1  O   UNK N   1      25.526  26.455  -7.083  0.00  0.00    -0.265 OA
HETATM    2  C   UNK N   1      26.038  26.475  -5.985  0.00  0.00     0.279 C 
HETATM    3  N   UNK N   1      26.170  25.319  -5.235  0.00  0.00    -0.338 N 
ENDROOT
BRANCH   3   4
HETATM    4  C   UNK N   1      25.728  23.970  -5.645  0.00  0.00     0.165 C 
BRANCH   4   5
HETATM    5  C   UNK N   1      26.407  22.933  -6.532  0.00  0.00    -0.040 A 
HETATM    6  C   UNK N   1      27.785  22.718  -6.639  0.00  0.00     0.009 A 
HETATM    7  C   UNK N   1      28.306  21.738  -7.485  0.00  0.00     0.001 A 
HETATM    8  C   UNK N   1      27.445  20.949  -8.245  0.00  0.00     0.000 A 
HETATM    9  C   UNK N   1      26.066  21.146  -8.155  0.00  0.00     0.001 A 
HETATM   10  C   UNK N   1      25.554  22.131  -7.304  0.00  0.00     0.009 A 
ENDBRANCH   4   5
ENDBRANCH   3   4
BRANCH   3  11
HETATM   11  C   UNK N   1      26.803  25.454  -3.922  0.00  0.00     0.165 C 
BRANCH  11  12
HETATM   12  C   UNK N   1      28.043  24.695  -3.509  0.00  0.00    -0.040 A 
HETATM   13  C   UNK N   1      28.056  23.591  -2.642  0.00  0.00     0.009 A 
HETATM   14  C   UNK N   1      29.258  22.955  -2.321  0.00  0.00     0.001 A 
HETATM   15  C   UNK N   1      30.460  23.416  -2.863  0.00  0.00     0.000 A 
HETATM   16  C   UNK N   1      30.459  24.513  -3.725  0.00  0.00     0.001 A 
HETATM   17  C   UNK N   1      29.256  25.147  -4.045  0.00  0.00     0.009 A 
ENDBRANCH  11  12
ENDBRANCH   3  11
BRANCH   2  18
HETATM   18  C   UNK N   1      26.505  27.816  -5.518  0.00  0.00     0.162 A 
HETATM   19  O   UNK N   1      25.868  28.503  -4.602  0.00  0.00    -0.273 OA
HETATM   20  C   UNK N   1      26.527  29.618  -4.423  0.00  0.00     0.222 A 
HETATM   21  N   UNK N   1      27.614  29.703  -5.209  0.00  0.00    -0.329 N 
HETATM   22  C   UNK N   1      27.610  28.556  -5.915  0.00  0.00     0.134 A 
ATOM     23  HN  UNK N   1      28.290  30.467  -5.260  1.00  0.00     0.168 HD
BRANCH  20  24
HETATM   24  N   UNK N   1      26.143  30.618  -3.509  0.00  0.00    -0.365 N 
HETATM   25  H   UNK N   1      26.510  30.618  -2.596  0.00  0.00     0.159 HD
HETATM   26  H   UNK N   1      25.507  31.318  -3.784  0.00  0.00     0.159 HD
ENDBRANCH  20  24
ENDBRANCH   2  18
TORSDOF 6
ENDMDL
MODEL 7
REMARK VINA RESULT:      -6.4      3.248      5.207
REMARK  6 active torsions:
REMARK  status: ('A' for Active; 'I' for Inactive)
REMARK    1  A    between atoms: C_2  and  C_3 
REMARK       I    between atoms: C_2  and  N_10 
REMARK    2  A    between atoms: C_5  and  N_6 
REMARK    3  A    between atoms: N_10  and  C_11 
REMARK    4  A    between atoms: N_10  and  C_18 
REMARK    5  A    between atoms: C_11  and  C_12 
REMARK    6  A    between atoms: C_18  and  C_19 
ROOT
HETATM    1  O   UNK N   1      25.513  26.260  -6.878  0.00  0.00    -0.265 OA
HETATM    2  C   UNK N   1      25.865  25.423  -6.076  0.00  0.00     0.279 C 
HETATM    3  N   UNK N   1      26.076  25.749  -4.747  0.00  0.00    -0.338 N 
ENDROOT
BRANCH   3   4
HETATM    4  C   UNK N   1      25.911  27.091  -4.152  0.00  0.00     0.165 C 
BRANCH   4   5
HETATM    5  C   UNK N   1      26.612  28.407  -4.469  0.00  0.00    -0.040 A 
HETATM    6  C   UNK N   1      27.582  28.606  -5.456  0.00  0.00     0.009 A 
HETATM    7  C   UNK N   1      28.163  29.857  -5.665  0.00  0.00     0.001 A 
HETATM    8  C   UNK N   1      27.777  30.941  -4.879  0.00  0.00     0.000 A 
HETATM    9  C   UNK N   1      26.810  30.767  -3.888  0.00  0.00     0.001 A 
HETATM   10  C   UNK N   1      26.234  29.508  -3.687  0.00  0.00     0.009 A 
ENDBRANCH   4   5
ENDBRANCH   3   4
BRANCH   3  11
HETATM   11  C   UNK N   1      26.500  24.663  -3.862  0.00  0.00     0.165 C 
BRANCH  11  12
HETATM   12  C   UNK N   1      27.946  24.363  -3.538  0.00  0.00    -0.040 A 
HETATM   13  C   UNK N   1      28.379  23.391  -2.624  0.00  0.00     0.009 A 
HETATM   14  C   UNK N   1      29.742  23.189  -2.394  0.00  0.00     0.001 A 
HETATM   15  C   UNK N   1      30.688  23.958  -3.076  0.00  0.00     0.000 A 
HETATM   16  C   UNK N   1      30.269  24.928  -3.988  0.00  0.00     0.001 A 
HETATM   17  C   UNK N   1      28.906  25.127  -4.215  0.00  0.00     0.009 A 
ENDBRANCH  11  12
ENDBRANCH   3  11
BRANCH   2  18
HETATM   18  C   UNK N   1      26.049  24.045  -6.624  0.00  0.00     0.162 A 
HETATM   19  O   UNK N   1      25.066  23.181  -6.700  0.00  0.00    -0.273 OA
HETATM   20  C   UNK N   1      25.551  22.083  -7.218  0.00  0.00     0.222 A 
HETATM   21  N   UNK N   1      26.862  22.185  -7.499  0.00  0.00    -0.329 N 
HETATM   22  C   UNK N   1      27.191  23.436  -7.123  0.00  0.00     0.134 A 
ATOM     23  HN  UNK N   1      27.470  21.473  -7.906  1.00  0.00     0.168 HD
BRANCH  20  24
HETATM   24  N   UNK N   1      24.788  20.924  -7.456  0.00  0.00    -0.365 N 
HETATM   25  H   UNK N   1      25.234  20.087  -7.721  0.00  0.00     0.159 HD
HETATM   26  H   UNK N   1      23.809  20.951  -7.358  0.00  0.00     0.159 HD
ENDBRANCH  20  24
ENDBRANCH   2  18
TORSDOF 6
ENDMDL
MODEL 8
REMARK VINA RESULT:      -6.4      2.687      4.350
REMARK  6 active torsions:
REMARK  status: ('A' for Active; 'I' for Inactive)
REMARK    1  A    between atoms: C_2  and  C_3 
REMARK       I    between atoms: C_2  and  N_10 
REMARK    2  A    between atoms: C_5  and  N_6 
REMARK    3  A    between atoms: N_10  and  C_11 
REMARK    4  A    between atoms: N_10  and  C_18 
REMARK    5  A    between atoms: C_11  and  C_12 
REMARK    6  A    between atoms: C_18  and  C_19 
ROOT
HETATM    1  O   UNK N   1      25.442  22.154  -7.308  0.00  0.00    -0.265 OA
HETATM    2  C   UNK N   1      26.611  22.426  -7.142  0.00  0.00     0.279 C 
HETATM    3  N   UNK N   1      27.012  23.267  -6.118  0.00  0.00    -0.338 N 
ENDROOT
BRANCH   3   4
HETATM    4  C   UNK N   1      26.119  23.916  -5.136  0.00  0.00     0.165 C 
BRANCH   4   5
HETATM    5  C   UNK N   1      25.896  25.391  -4.825  0.00  0.00    -0.040 A 
HETATM    6  C   UNK N   1      25.165  26.294  -5.604  0.00  0.00     0.009 A 
HETATM    7  C   UNK N   1      25.021  27.631  -5.227  0.00  0.00     0.001 A 
HETATM    8  C   UNK N   1      25.613  28.087  -4.052  0.00  0.00     0.000 A 
HETATM    9  C   UNK N   1      26.347  27.205  -3.258  0.00  0.00     0.001 A 
HETATM   10  C   UNK N   1      26.486  25.867  -3.645  0.00  0.00     0.009 A 
ENDBRANCH   4   5
ENDBRANCH   3   4
BRANCH   3  11
HETATM   11  C   UNK N   1      28.448  23.530  -6.006  0.00  0.00     0.165 C 
BRANCH  11  12
HETATM   12  C   UNK N   1      29.338  22.888  -4.966  0.00  0.00    -0.040 A 
HETATM   13  C   UNK N   1      30.013  21.669  -5.132  0.00  0.00     0.009 A 
HETATM   14  C   UNK N   1      30.815  21.157  -4.108  0.00  0.00     0.001 A 
HETATM   15  C   UNK N   1      30.949  21.859  -2.908  0.00  0.00     0.000 A 
HETATM   16  C   UNK N   1      30.282  23.072  -2.733  0.00  0.00     0.001 A 
HETATM   17  C   UNK N   1      29.481  23.581  -3.758  0.00  0.00     0.009 A 
ENDBRANCH  11  12
ENDBRANCH   3  11
BRANCH   2  18
HETATM   18  C   UNK N   1      27.560  21.796  -8.109  0.00  0.00     0.162 A 
HETATM   19  O   UNK N   1      28.144  20.647  -7.874  0.00  0.00    -0.273 OA
HETATM   20  C   UNK N   1      28.905  20.378  -8.903  0.00  0.00     0.222 A 
HETATM   21  N   UNK N   1      28.848  21.336  -9.846  0.00  0.00    -0.329 N 
HETATM   22  C   UNK N   1      27.991  22.248  -9.348  0.00  0.00     0.134 A 
ATOM     23  HN  UNK N   1      29.344  21.364 -10.737  1.00  0.00     0.168 HD
BRANCH  20  24
HETATM   24  N   UNK N   1      29.695  19.218  -9.014  0.00  0.00    -0.365 N 
HETATM   25  H   UNK N   1      30.234  19.065  -9.823  0.00  0.00     0.159 HD
HETATM   26  H   UNK N   1      29.707  18.560  -8.282  0.00  0.00     0.159 HD
ENDBRANCH  20  24
ENDBRANCH   2  18
TORSDOF 6
ENDMDL
MODEL 9
REMARK VINA RESULT:      -6.4     20.747     23.686
REMARK  6 active torsions:
REMARK  status: ('A' for Active; 'I' for Inactive)
REMARK    1  A    between atoms: C_2  and  C_3 
REMARK       I    between atoms: C_2  and  N_10 
REMARK    2  A    between atoms: C_5  and  N_6 
REMARK    3  A    between atoms: N_10  and  C_11 
REMARK    4  A    between atoms: N_10  and  C_18 
REMARK    5  A    between atoms: C_11  and  C_12 
REMARK    6  A    between atoms: C_18  and  C_19 
ROOT
HETATM    1  O   UNK N   1      36.966  13.275  14.355  0.00  0.00    -0.265 OA
HETATM    2  C   UNK N   1      35.992  12.725  13.891  0.00  0.00     0.279 C 
HETATM    3  N   UNK N   1      35.373  11.681  14.559  0.00  0.00    -0.338 N 
ENDROOT
BRANCH   3   4
HETATM    4  C   UNK N   1      35.791  11.122  15.860  0.00  0.00     0.165 C 
BRANCH   4   5
HETATM    5  C   UNK N   1      35.578  11.646  17.276  0.00  0.00    -0.040 A 
HETATM    6  C   UNK N   1      35.679  10.898  18.453  0.00  0.00     0.009 A 
HETATM    7  C   UNK N   1      35.464  11.478  19.705  0.00  0.00     0.001 A 
HETATM    8  C   UNK N   1      35.142  12.830  19.797  0.00  0.00     0.000 A 
HETATM    9  C   UNK N   1      35.036  13.596  18.636  0.00  0.00     0.001 A 
HETATM   10  C   UNK N   1      35.253  13.006  17.386  0.00  0.00     0.009 A 
ENDBRANCH   4   5
ENDBRANCH   3   4
BRANCH   3  11
HETATM   11  C   UNK N   1      34.203  11.086  13.909  0.00  0.00     0.165 C 
BRANCH  11  12
HETATM   12  C   UNK N   1      34.289   9.978  12.884  0.00  0.00    -0.040 A 
HETATM   13  C   UNK N   1      33.579   9.948  11.674  0.00  0.00     0.009 A 
HETATM   14  C   UNK N   1      33.728   8.876  10.790  0.00  0.00     0.001 A 
HETATM   15  C   UNK N   1      34.587   7.821  11.108  0.00  0.00     0.000 A 
HETATM   16  C   UNK N   1      35.297   7.841  12.309  0.00  0.00     0.001 A 
HETATM   17  C   UNK N   1      35.147   8.914  13.190  0.00  0.00     0.009 A 
ENDBRANCH  11  12
ENDBRANCH   3  11
BRANCH   2  18
HETATM   18  C   UNK N   1      35.524  13.249  12.572  0.00  0.00     0.162 A 
HETATM   19  O   UNK N   1      34.521  14.085  12.463  0.00  0.00    -0.273 OA
HETATM   20  C   UNK N   1      34.368  14.346  11.192  0.00  0.00     0.222 A 
HETATM   21  N   UNK N   1      35.260  13.696  10.423  0.00  0.00    -0.329 N 
HETATM   22  C   UNK N   1      36.005  12.991  11.296  0.00  0.00     0.134 A 
ATOM     23  HN  UNK N   1      35.351  13.730   9.407  1.00  0.00     0.168 HD
BRANCH  20  24
HETATM   24  N   UNK N   1      33.380  15.211  10.681  0.00  0.00    -0.365 N 
HETATM   25  H   UNK N   1      32.540  15.346  11.176  0.00  0.00     0.159 HD
HETATM   26  H   UNK N   1      33.531  15.681   9.829  0.00  0.00     0.159 HD
ENDBRANCH  20  24
ENDBRANCH   2  18
TORSDOF 6
ENDMDL
