MODEL 1
REMARK VINA RESULT:      -5.9      0.000      0.000
REMARK  1 active torsions:
REMARK  status: ('A' for Active; 'I' for Inactive)
REMARK    1  A    between atoms: C_14  and  N_16 
ROOT
HETATM    1  O   UNK N   1      30.087  18.807   9.792  0.00  0.00    -0.292 OA
HETATM    2  C   UNK N   1      30.506  18.264   8.782  0.00  0.00     0.166 A 
HETATM    3  C   UNK N   1      31.977  18.280   8.543  0.00  0.00     0.093 A 
HETATM    4  C   UNK N   1      32.594  17.622   7.300  0.00  0.00    -0.036 A 
HETATM    5  C   UNK N   1      33.919  18.087   7.859  0.00  0.00     0.015 C 
HETATM    6  C   UNK N   1      33.655  17.166   6.323  0.00  0.00     0.015 C 
HETATM    7  C   UNK N   1      31.546  16.974   6.373  0.00  0.00     0.067 A 
HETATM    8  C   UNK N   1      30.083  17.002   6.687  0.00  0.00     0.028 A 
HETATM    9  N   UNK N   1      29.232  16.404   5.812  0.00  0.00    -0.355 N 
ATOM     10  HN  UNK N   1      29.607  15.958   4.975  1.00  0.00     0.166 HD
HETATM   11  C   UNK N   1      27.893  16.390   6.029  0.00  0.00     0.182 A 
HETATM   12  N   UNK N   1      27.378  16.978   7.135  0.00  0.00    -0.338 N 
ATOM     13  HN  UNK N   1      26.369  16.962   7.289  1.00  0.00     0.168 HD
HETATM   14  C   UNK N   1      28.182  17.590   8.043  0.00  0.00     0.115 A 
HETATM   15  C   UNK N   1      29.578  17.617   7.835  0.00  0.00     0.076 A 
ENDROOT
BRANCH  14  16
HETATM   16  N   UNK N   1      27.598  18.189   9.178  0.00  0.00    -0.385 N 
HETATM   17  H   UNK N   1      27.768  17.816  10.074  0.00  0.00     0.157 HD
HETATM   18  H   UNK N   1      27.021  18.980   9.076  0.00  0.00     0.157 HD
ENDBRANCH  14  16
TORSDOF 1
ENDMDL
MODEL 2
REMARK VINA RESULT:      -5.7      1.800      2.779
REMARK  1 active torsions:
REMARK  status: ('A' for Active; 'I' for Inactive)
REMARK    1  A    between atoms: C_14  and  N_16 
ROOT
HETATM    1  O   UNK N   1      29.127  17.096   4.948  0.00  0.00    -0.292 OA
HETATM    2  C   UNK N   1      29.954  17.230   5.836  0.00  0.00     0.166 A 
HETATM    3  C   UNK N   1      31.394  17.249   5.448  0.00  0.00     0.093 A 
HETATM    4  C   UNK N   1      32.504  17.413   6.495  0.00  0.00    -0.036 A 
HETATM    5  C   UNK N   1      33.457  17.325   5.325  0.00  0.00     0.015 C 
HETATM    6  C   UNK N   1      33.899  17.536   7.068  0.00  0.00     0.015 C 
HETATM    7  C   UNK N   1      31.966  17.548   7.934  0.00  0.00     0.067 A 
HETATM    8  C   UNK N   1      30.501  17.518   8.239  0.00  0.00     0.028 A 
HETATM    9  N   UNK N   1      30.117  17.645   9.538  0.00  0.00    -0.355 N 
ATOM     10  HN  UNK N   1      30.829  17.755  10.260  1.00  0.00     0.166 HD
HETATM   11  C   UNK N   1      28.808  17.627   9.891  0.00  0.00     0.182 A 
HETATM   12  N   UNK N   1      27.851  17.481   8.944  0.00  0.00    -0.338 N 
ATOM     13  HN  UNK N   1      26.869  17.469   9.221  1.00  0.00     0.168 HD
HETATM   14  C   UNK N   1      28.177  17.350   7.632  0.00  0.00     0.115 A 
HETATM   15  C   UNK N   1      29.534  17.366   7.243  0.00  0.00     0.076 A 
ENDROOT
BRANCH  14  16
HETATM   16  N   UNK N   1      27.144  17.201   6.683  0.00  0.00    -0.385 N 
HETATM   17  H   UNK N   1      27.355  17.196   5.721  0.00  0.00     0.157 HD
HETATM   18  H   UNK N   1      26.211  17.102   6.982  0.00  0.00     0.157 HD
ENDBRANCH  14  16
TORSDOF 1
ENDMDL
MODEL 3
REMARK VINA RESULT:      -5.6      7.325      9.266
REMARK  1 active torsions:
REMARK  status: ('A' for Active; 'I' for Inactive)
REMARK    1  A    between atoms: C_14  and  N_16 
ROOT
HETATM    1  O   UNK N   1      20.683  13.115   8.911  0.00  0.00    -0.292 OA
HETATM    2  C   UNK N   1      21.902  13.163   8.927  0.00  0.00     0.166 A 
HETATM    3  C   UNK N   1      22.593  13.708   7.724  0.00  0.00     0.093 A 
HETATM    4  C   UNK N   1      24.123  13.807   7.655  0.00  0.00    -0.036 A 
HETATM    5  C   UNK N   1      23.904  14.387   6.276  0.00  0.00     0.015 C 
HETATM    6  C   UNK N   1      25.495  14.109   7.093  0.00  0.00     0.015 C 
HETATM    7  C   UNK N   1      24.823  13.294   8.929  0.00  0.00     0.067 A 
HETATM    8  C   UNK N   1      24.054  12.760  10.097  0.00  0.00     0.028 A 
HETATM    9  N   UNK N   1      24.755  12.329  11.179  0.00  0.00    -0.355 N 
ATOM     10  HN  UNK N   1      25.774  12.381  11.167  1.00  0.00     0.166 HD
HETATM   11  C   UNK N   1      24.127  11.833  12.274  0.00  0.00     0.182 A 
HETATM   12  N   UNK N   1      22.775  11.758  12.306  0.00  0.00    -0.338 N 
ATOM     13  HN  UNK N   1      22.312  11.383  13.135  1.00  0.00     0.168 HD
HETATM   14  C   UNK N   1      22.024  12.174  11.253  0.00  0.00     0.115 A 
HETATM   15  C   UNK N   1      22.659  12.694  10.104  0.00  0.00     0.076 A 
ENDROOT
BRANCH  14  16
HETATM   16  N   UNK N   1      20.620  12.076  11.334  0.00  0.00    -0.385 N 
HETATM   17  H   UNK N   1      20.165  11.258  11.030  0.00  0.00     0.157 HD
HETATM   18  H   UNK N   1      20.094  12.826  11.695  0.00  0.00     0.157 HD
ENDBRANCH  14  16
TORSDOF 1
ENDMDL
MODEL 4
REMARK VINA RESULT:      -5.5      7.850      9.886
REMARK  1 active torsions:
REMARK  status: ('A' for Active; 'I' for Inactive)
REMARK    1  A    between atoms: C_14  and  N_16 
ROOT
HETATM    1  O   UNK N   1      20.650  20.634   1.976  0.00  0.00    -0.292 OA
HETATM    2  C   UNK N   1      21.408  19.908   2.600  0.00  0.00     0.166 A 
HETATM    3  C   UNK N   1      22.817  20.362   2.776  0.00  0.00     0.093 A 
HETATM    4  C   UNK N   1      23.841  19.515   3.545  0.00  0.00    -0.036 A 
HETATM    5  C   UNK N   1      24.817  20.627   3.232  0.00  0.00     0.015 C 
HETATM    6  C   UNK N   1      25.162  19.113   4.162  0.00  0.00     0.015 C 
HETATM    7  C   UNK N   1      23.254  18.197   4.087  0.00  0.00     0.067 A 
HETATM    8  C   UNK N   1      21.824  17.815   3.866  0.00  0.00     0.028 A 
HETATM    9  N   UNK N   1      21.393  16.633   4.381  0.00  0.00    -0.355 N 
ATOM     10  HN  UNK N   1      22.046  16.045   4.898  1.00  0.00     0.166 HD
HETATM   11  C   UNK N   1      20.111  16.220   4.221  0.00  0.00     0.182 A 
HETATM   12  N   UNK N   1      19.230  16.988   3.537  0.00  0.00    -0.338 N 
ATOM     13  HN  UNK N   1      18.268  16.668   3.423  1.00  0.00     0.168 HD
HETATM   14  C   UNK N   1      19.606  18.178   3.001  0.00  0.00     0.115 A 
HETATM   15  C   UNK N   1      20.936  18.627   3.157  0.00  0.00     0.076 A 
ENDROOT
BRANCH  14  16
HETATM   16  N   UNK N   1      18.652  18.943   2.298  0.00  0.00    -0.385 N 
HETATM   17  H   UNK N   1      18.021  18.500   1.685  0.00  0.00     0.157 HD
HETATM   18  H   UNK N   1      18.617  19.919   2.420  0.00  0.00     0.157 HD
ENDBRANCH  14  16
TORSDOF 1
ENDMDL
MODEL 5
REMARK VINA RESULT:      -5.5      3.833      4.679
REMARK  1 active torsions:
REMARK  status: ('A' for Active; 'I' for Inactive)
REMARK    1  A    between atoms: C_14  and  N_16 
ROOT
HETATM    1  O   UNK N   1      34.523  18.358   7.182  0.00  0.00    -0.292 OA
HETATM    2  C   UNK N   1      33.831  17.448   6.757  0.00  0.00     0.166 A 
HETATM    3  C   UNK N   1      33.477  17.461   5.308  0.00  0.00     0.093 A 
HETATM    4  C   UNK N   1      32.611  16.357   4.685  0.00  0.00    -0.036 A 
HETATM    5  C   UNK N   1      32.778  17.121   3.392  0.00  0.00     0.015 C 
HETATM    6  C   UNK N   1      31.850  15.585   3.629  0.00  0.00     0.015 C 
HETATM    7  C   UNK N   1      32.174  15.283   5.701  0.00  0.00     0.067 A 
HETATM    8  C   UNK N   1      32.573  15.343   7.142  0.00  0.00     0.028 A 
HETATM    9  N   UNK N   1      32.141  14.351   7.965  0.00  0.00    -0.355 N 
ATOM     10  HN  UNK N   1      31.564  13.601   7.585  1.00  0.00     0.166 HD
HETATM   11  C   UNK N   1      32.463  14.339   9.283  0.00  0.00     0.182 A 
HETATM   12  N   UNK N   1      33.229  15.327   9.804  0.00  0.00    -0.338 N 
ATOM     13  HN  UNK N   1      33.465  15.308  10.797  1.00  0.00     0.168 HD
HETATM   14  C   UNK N   1      33.688  16.342   9.028  0.00  0.00     0.115 A 
HETATM   15  C   UNK N   1      33.364  16.374   7.654  0.00  0.00     0.076 A 
ENDROOT
BRANCH  14  16
HETATM   16  N   UNK N   1      34.482  17.348   9.617  0.00  0.00    -0.385 N 
HETATM   17  H   UNK N   1      35.148  17.830   9.075  0.00  0.00     0.157 HD
HETATM   18  H   UNK N   1      34.371  17.567  10.570  0.00  0.00     0.157 HD
ENDBRANCH  14  16
TORSDOF 1
ENDMDL
MODEL 6
REMARK VINA RESULT:      -5.5      2.785      4.832
REMARK  1 active torsions:
REMARK  status: ('A' for Active; 'I' for Inactive)
REMARK    1  A    between atoms: C_14  and  N_16 
ROOT
HETATM    1  O   UNK N   1      30.114  17.001   5.067  0.00  0.00    -0.292 OA
HETATM    2  C   UNK N   1      29.398  17.787   5.665  0.00  0.00     0.166 A 
HETATM    3  C   UNK N   1      28.520  18.681   4.857  0.00  0.00     0.093 A 
HETATM    4  C   UNK N   1      27.586  19.702   5.523  0.00  0.00    -0.036 A 
HETATM    5  C   UNK N   1      27.179  20.069   4.114  0.00  0.00     0.015 C 
HETATM    6  C   UNK N   1      26.555  20.802   5.647  0.00  0.00     0.015 C 
HETATM    7  C   UNK N   1      27.668  19.686   7.062  0.00  0.00     0.067 A 
HETATM    8  C   UNK N   1      28.579  18.755   7.799  0.00  0.00     0.028 A 
HETATM    9  N   UNK N   1      28.585  18.811   9.157  0.00  0.00    -0.355 N 
ATOM     10  HN  UNK N   1      27.977  19.478   9.633  1.00  0.00     0.166 HD
HETATM   11  C   UNK N   1      29.383  17.998   9.893  0.00  0.00     0.182 A 
HETATM   12  N   UNK N   1      30.197  17.107   9.277  0.00  0.00    -0.338 N 
ATOM     13  HN  UNK N   1      30.794  16.500   9.840  1.00  0.00     0.168 HD
HETATM   14  C   UNK N   1      30.231  17.008   7.923  0.00  0.00     0.115 A 
HETATM   15  C   UNK N   1      29.408  17.845   7.139  0.00  0.00     0.076 A 
ENDROOT
BRANCH  14  16
HETATM   16  N   UNK N   1      31.095  16.065   7.329  0.00  0.00    -0.385 N 
HETATM   17  H   UNK N   1      31.990  15.909   7.708  0.00  0.00     0.157 HD
HETATM   18  H   UNK N   1      30.803  15.561   6.535  0.00  0.00     0.157 HD
ENDBRANCH  14  16
TORSDOF 1
ENDMDL
MODEL 7
REMARK VINA RESULT:      -5.4      2.753      3.278
REMARK  1 active torsions:
REMARK  status: ('A' for Active; 'I' for Inactive)
REMARK    1  A    between atoms: C_14  and  N_16 
ROOT
HETATM    1  O   UNK N   1      28.012  19.007   8.527  0.00  0.00    -0.292 OA
HETATM    2  C   UNK N   1      28.441  18.656   7.440  0.00  0.00     0.166 A 
HETATM    3  C   UNK N   1      29.531  17.638   7.419  0.00  0.00     0.093 A 
HETATM    4  C   UNK N   1      30.132  17.136   6.099  0.00  0.00    -0.036 A 
HETATM    5  C   UNK N   1      31.015  16.270   6.968  0.00  0.00     0.015 C 
HETATM    6  C   UNK N   1      31.020  16.349   5.160  0.00  0.00     0.015 C 
HETATM    7  C   UNK N   1      29.497  17.788   4.855  0.00  0.00     0.067 A 
HETATM    8  C   UNK N   1      28.404  18.805   4.963  0.00  0.00     0.028 A 
HETATM    9  N   UNK N   1      27.903  19.327   3.812  0.00  0.00    -0.355 N 
ATOM     10  HN  UNK N   1      28.279  19.016   2.916  1.00  0.00     0.166 HD
HETATM   11  C   UNK N   1      26.912  20.253   3.831  0.00  0.00     0.182 A 
HETATM   12  N   UNK N   1      26.401  20.677   5.011  0.00  0.00    -0.338 N 
ATOM     13  HN  UNK N   1      25.655  21.374   5.014  1.00  0.00     0.168 HD
HETATM   14  C   UNK N   1      26.863  20.189   6.192  0.00  0.00     0.115 A 
HETATM   15  C   UNK N   1      27.895  19.225   6.194  0.00  0.00     0.076 A 
ENDROOT
BRANCH  14  16
HETATM   16  N   UNK N   1      26.299  20.662   7.394  0.00  0.00    -0.385 N 
HETATM   17  H   UNK N   1      25.885  20.030   8.026  0.00  0.00     0.157 HD
HETATM   18  H   UNK N   1      26.318  21.624   7.602  0.00  0.00     0.157 HD
ENDBRANCH  14  16
TORSDOF 1
ENDMDL
MODEL 8
REMARK VINA RESULT:      -5.4      9.290     10.339
REMARK  1 active torsions:
REMARK  status: ('A' for Active; 'I' for Inactive)
REMARK    1  A    between atoms: C_14  and  N_16 
ROOT
HETATM    1  O   UNK N   1      33.523  11.122  14.629  0.00  0.00    -0.292 OA
HETATM    2  C   UNK N   1      34.379  11.976  14.796  0.00  0.00     0.166 A 
HETATM    3  C   UNK N   1      34.572  12.507  16.175  0.00  0.00     0.093 A 
HETATM    4  C   UNK N   1      35.624  13.583  16.480  0.00  0.00    -0.036 A 
HETATM    5  C   UNK N   1      35.139  13.483  17.908  0.00  0.00     0.015 C 
HETATM    6  C   UNK N   1      36.447  14.566  17.282  0.00  0.00     0.015 C 
HETATM    7  C   UNK N   1      36.419  14.024  15.235  0.00  0.00     0.067 A 
HETATM    8  C   UNK N   1      36.163  13.439  13.881  0.00  0.00     0.028 A 
HETATM    9  N   UNK N   1      36.913  13.889  12.840  0.00  0.00    -0.355 N 
ATOM     10  HN  UNK N   1      37.622  14.603  13.007  1.00  0.00     0.166 HD
HETATM   11  C   UNK N   1      36.738  13.406  11.585  0.00  0.00     0.182 A 
HETATM   12  N   UNK N   1      35.801  12.457  11.347  0.00  0.00    -0.338 N 
ATOM     13  HN  UNK N   1      35.677  12.100  10.399  1.00  0.00     0.168 HD
HETATM   14  C   UNK N   1      35.023  11.972  12.349  0.00  0.00     0.115 A 
HETATM   15  C   UNK N   1      35.190  12.461  13.663  0.00  0.00     0.076 A 
ENDROOT
BRANCH  14  16
HETATM   16  N   UNK N   1      34.062  10.984  12.051  0.00  0.00    -0.385 N 
HETATM   17  H   UNK N   1      33.114  11.232  11.960  0.00  0.00     0.157 HD
HETATM   18  H   UNK N   1      34.339  10.047  11.935  0.00  0.00     0.157 HD
ENDBRANCH  14  16
TORSDOF 1
ENDMDL
MODEL 9
REMARK VINA RESULT:      -5.3     12.162     13.263
REMARK  1 active torsions:
REMARK  status: ('A' for Active; 'I' for Inactive)
REMARK    1  A    between atoms: C_14  and  N_16 
ROOT
HETATM    1  O   UNK N   1      30.855  22.867  -1.735  0.00  0.00    -0.292 OA
HETATM    2  C   UNK N   1      30.290  22.832  -2.816  0.00  0.00     0.166 A 
HETATM    3  C   UNK N   1      29.100  23.709  -3.009  0.00  0.00     0.093 A 
HETATM    4  C   UNK N   1      28.327  23.730  -4.335  0.00  0.00    -0.036 A 
HETATM    5  C   UNK N   1      27.441  24.755  -3.664  0.00  0.00     0.015 C 
HETATM    6  C   UNK N   1      27.276  24.119  -5.350  0.00  0.00     0.015 C 
HETATM    7  C   UNK N   1      28.910  22.773  -5.393  0.00  0.00     0.067 A 
HETATM    8  C   UNK N   1      30.112  21.924  -5.119  0.00  0.00     0.028 A 
HETATM    9  N   UNK N   1      30.557  21.109  -6.112  0.00  0.00    -0.355 N 
ATOM     10  HN  UNK N   1      30.067  21.098  -7.007  1.00  0.00     0.166 HD
HETATM   11  C   UNK N   1      31.639  20.311  -5.937  0.00  0.00     0.182 A 
HETATM   12  N   UNK N   1      32.301  20.313  -4.756  0.00  0.00    -0.338 N 
ATOM     13  HN  UNK N   1      33.114  19.709  -4.635  1.00  0.00     0.168 HD
HETATM   14  C   UNK N   1      31.901  21.107  -3.729  0.00  0.00     0.115 A 
HETATM   15  C   UNK N   1      30.776  21.946  -3.890  0.00  0.00     0.076 A 
ENDROOT
BRANCH  14  16
HETATM   16  N   UNK N   1      32.623  21.075  -2.518  0.00  0.00    -0.385 N 
HETATM   17  H   UNK N   1      32.409  20.398  -1.835  0.00  0.00     0.157 HD
HETATM   18  H   UNK N   1      33.340  21.729  -2.355  0.00  0.00     0.157 HD
ENDBRANCH  14  16
TORSDOF 1
ENDMDL
