REMARK  2 active torsions:
REMARK  status: ('A' for Active; 'I' for Inactive)
REMARK    1  A    between atoms: C_3  and  N_9 
REMARK       I    between atoms: C_6  and  N_14 
REMARK    2  A    between atoms: C_12  and  C_20 
ROOT
HETATM    1  C   UNK N   1      -1.806  -1.719   0.000  0.00  0.00     0.063 A 
HETATM    2  C   UNK N   1      -1.846  -0.303  -0.000  0.00  0.00     0.042 A 
HETATM    3  C   UNK N   1      -3.134   0.303  -0.000  0.00  0.00     0.127 A 
HETATM    4  N   UNK N   1      -4.245  -0.477  -0.000  0.00  0.00    -0.176 N 
ATOM      5  HN  UNK N   1      -5.163  -0.034  -0.000  1.00  0.00     0.186 HD
HETATM    6  C   UNK N   1      -4.164  -1.829   0.000  0.00  0.00     0.677 A 
HETATM    7  N   UNK N   1      -2.955  -2.438   0.000  0.00  0.00    -0.191 N 
ATOM      8  HN  UNK N   1      -2.908  -3.457   0.000  1.00  0.00     0.184 HD
HETATM    9  C   UNK N   1      -0.593  -2.392   0.000  0.00  0.00     0.032 A 
HETATM   10  C   UNK N   1       0.600  -1.687   0.000  0.00  0.00     0.015 A 
HETATM   11  C   UNK N   1       0.625  -0.284   0.000  0.00  0.00    -0.019 A 
HETATM   12  C   UNK N   1      -0.617   0.425  -0.000  0.00  0.00    -0.035 A 
HETATM   13  N   UNK N   1      -5.340  -2.602   0.000  0.00  0.00    -0.234 N 
HETATM   14  C   UNK N   1      -0.633   1.924  -0.000  0.00  0.00     0.050 C 
HETATM   15  H   UNK N   1      -6.220  -2.160   0.000  0.00  0.00     0.174 HD
HETATM   16  H   UNK N   1      -5.283  -3.585   0.000  0.00  0.00     0.174 HD
ENDROOT
BRANCH  11  17
HETATM   17  C   UNK N   1       1.974   0.377   0.000  0.00  0.00    -0.025 A 
HETATM   18  C   UNK N   1       3.137  -0.417   0.000  0.00  0.00     0.012 A 
HETATM   19  C   UNK N   1       4.404   0.170   0.000  0.00  0.00     0.001 A 
HETATM   20  C   UNK N   1       4.530   1.560  -0.000  0.00  0.00     0.000 A 
HETATM   21  C   UNK N   1       3.389   2.362  -0.000  0.00  0.00     0.001 A 
HETATM   22  C   UNK N   1       2.125   1.773  -0.000  0.00  0.00     0.012 A 
ENDBRANCH  11  17
BRANCH   3  23
HETATM   23  N   UNK N   1      -3.304   1.704  -0.000  0.00  0.00    -0.384 N 
HETATM   24  H   UNK N   1      -2.517   2.295  -0.000  0.00  0.00     0.157 HD
HETATM   25  H   UNK N   1      -4.209   2.090  -0.000  0.00  0.00     0.157 HD
ENDBRANCH   3  23
TORSDOF 2
