MODEL 1
REMARK VINA RESULT:      -7.3      0.000      0.000
REMARK  2 active torsions:
REMARK  status: ('A' for Active; 'I' for Inactive)
REMARK    1  A    between atoms: C_3  and  N_9 
REMARK       I    between atoms: C_6  and  N_14 
REMARK    2  A    between atoms: C_12  and  C_20 
ROOT
HETATM    1  C   UNK N   1      34.489  11.475  12.914  0.00  0.00     0.063 A 
HETATM    2  C   UNK N   1      35.398  12.473  13.343  0.00  0.00     0.042 A 
HETATM    3  C   UNK N   1      35.969  13.298  12.334  0.00  0.00     0.127 A 
HETATM    4  N   UNK N   1      35.630  13.103  11.034  0.00  0.00    -0.176 N 
ATOM      5  HN  UNK N   1      36.044  13.699  10.318  1.00  0.00     0.186 HD
HETATM    6  C   UNK N   1      34.756  12.137  10.664  0.00  0.00     0.677 A 
HETATM    7  N   UNK N   1      34.195  11.335  11.599  0.00  0.00    -0.191 N 
ATOM      8  HN  UNK N   1      33.537  10.611  11.308  1.00  0.00     0.184 HD
HETATM    9  C   UNK N   1      33.886  10.627  13.832  0.00  0.00     0.032 A 
HETATM   10  C   UNK N   1      34.166  10.744  15.184  0.00  0.00     0.015 A 
HETATM   11  C   UNK N   1      35.057  11.712  15.669  0.00  0.00    -0.019 A 
HETATM   12  C   UNK N   1      35.687  12.595  14.737  0.00  0.00    -0.035 A 
HETATM   13  N   UNK N   1      34.431  11.967   9.306  0.00  0.00    -0.234 N 
HETATM   14  C   UNK N   1      36.646  13.643  15.216  0.00  0.00     0.050 C 
HETATM   15  H   UNK N   1      34.839  12.551   8.625  0.00  0.00     0.174 HD
HETATM   16  H   UNK N   1      33.795  11.265   9.036  0.00  0.00     0.174 HD
ENDROOT
BRANCH  11  17
HETATM   17  C   UNK N   1      35.286  11.750  17.154  0.00  0.00    -0.025 A 
HETATM   18  C   UNK N   1      35.797  10.612  17.807  0.00  0.00     0.012 A 
HETATM   19  C   UNK N   1      36.020  10.618  19.186  0.00  0.00     0.001 A 
HETATM   20  C   UNK N   1      35.736  11.761  19.934  0.00  0.00     0.000 A 
HETATM   21  C   UNK N   1      35.230  12.897  19.304  0.00  0.00     0.001 A 
HETATM   22  C   UNK N   1      35.008  12.888  17.927  0.00  0.00     0.012 A 
ENDBRANCH  11  17
BRANCH   3  23
HETATM   23  N   UNK N   1      36.888  14.326  12.635  0.00  0.00    -0.384 N 
HETATM   24  H   UNK N   1      37.064  15.037  11.978  0.00  0.00     0.157 HD
HETATM   25  H   UNK N   1      37.352  14.333  13.503  0.00  0.00     0.157 HD
ENDBRANCH   3  23
TORSDOF 2
ENDMDL
MODEL 2
REMARK VINA RESULT:      -7.3      1.028      2.799
REMARK  2 active torsions:
REMARK  status: ('A' for Active; 'I' for Inactive)
REMARK    1  A    between atoms: C_3  and  N_9 
REMARK       I    between atoms: C_6  and  N_14 
REMARK    2  A    between atoms: C_12  and  C_20 
ROOT
HETATM    1  C   UNK N   1      36.266  14.144  13.595  0.00  0.00     0.063 A 
HETATM    2  C   UNK N   1      35.449  12.988  13.622  0.00  0.00     0.042 A 
HETATM    3  C   UNK N   1      34.942  12.531  12.373  0.00  0.00     0.127 A 
HETATM    4  N   UNK N   1      35.252  13.202  11.234  0.00  0.00    -0.176 N 
ATOM      5  HN  UNK N   1      34.884  12.867  10.345  1.00  0.00     0.186 HD
HETATM    6  C   UNK N   1      36.037  14.305  11.251  0.00  0.00     0.677 A 
HETATM    7  N   UNK N   1      36.536  14.767  12.422  0.00  0.00    -0.191 N 
ATOM      8  HN  UNK N   1      37.127  15.599  12.420  1.00  0.00     0.184 HD
HETATM    9  C   UNK N   1      36.803  14.659  14.767  0.00  0.00     0.032 A 
HETATM   10  C   UNK N   1      36.546  14.046  15.983  0.00  0.00     0.015 A 
HETATM   11  C   UNK N   1      35.745  12.898  16.074  0.00  0.00    -0.019 A 
HETATM   12  C   UNK N   1      35.184  12.356  14.875  0.00  0.00    -0.035 A 
HETATM   13  N   UNK N   1      36.335  14.972  10.048  0.00  0.00    -0.234 N 
HETATM   14  C   UNK N   1      34.322  11.130  14.930  0.00  0.00     0.050 C 
HETATM   15  H   UNK N   1      35.972  14.637   9.196  0.00  0.00     0.174 HD
HETATM   16  H   UNK N   1      36.906  15.775  10.059  0.00  0.00     0.174 HD
ENDROOT
BRANCH  11  17
HETATM   17  C   UNK N   1      35.533  12.317  17.443  0.00  0.00    -0.025 A 
HETATM   18  C   UNK N   1      35.162  13.162  18.507  0.00  0.00     0.012 A 
HETATM   19  C   UNK N   1      34.959  12.650  19.790  0.00  0.00     0.001 A 
HETATM   20  C   UNK N   1      35.122  11.285  20.031  0.00  0.00     0.000 A 
HETATM   21  C   UNK N   1      35.489  10.433  18.989  0.00  0.00     0.001 A 
HETATM   22  C   UNK N   1      35.691  10.948  17.709  0.00  0.00     0.012 A 
ENDBRANCH  11  17
BRANCH   3  23
HETATM   23  N   UNK N   1      34.117  11.390  12.270  0.00  0.00    -0.384 N 
HETATM   24  H   UNK N   1      33.165  11.449  12.510  0.00  0.00     0.157 HD
HETATM   25  H   UNK N   1      34.495  10.536  11.959  0.00  0.00     0.157 HD
ENDBRANCH   3  23
TORSDOF 2
ENDMDL
MODEL 3
REMARK VINA RESULT:      -6.9      9.138     12.923
REMARK  2 active torsions:
REMARK  status: ('A' for Active; 'I' for Inactive)
REMARK    1  A    between atoms: C_3  and  N_9 
REMARK       I    between atoms: C_6  and  N_14 
REMARK    2  A    between atoms: C_12  and  C_20 
ROOT
HETATM    1  C   UNK N   1      31.839  16.922   6.408  0.00  0.00     0.063 A 
HETATM    2  C   UNK N   1      30.771  17.191   7.298  0.00  0.00     0.042 A 
HETATM    3  C   UNK N   1      31.017  16.970   8.683  0.00  0.00     0.127 A 
HETATM    4  N   UNK N   1      32.233  16.523   9.087  0.00  0.00    -0.176 N 
ATOM      5  HN  UNK N   1      32.400  16.368  10.081  1.00  0.00     0.186 HD
HETATM    6  C   UNK N   1      33.230  16.277   8.204  0.00  0.00     0.677 A 
HETATM    7  N   UNK N   1      33.029  16.476   6.880  0.00  0.00    -0.191 N 
ATOM      8  HN  UNK N   1      33.788  16.287   6.225  1.00  0.00     0.184 HD
HETATM    9  C   UNK N   1      31.686  17.109   5.042  0.00  0.00     0.032 A 
HETATM   10  C   UNK N   1      30.482  17.563   4.528  0.00  0.00     0.015 A 
HETATM   11  C   UNK N   1      29.388  17.847   5.359  0.00  0.00    -0.019 A 
HETATM   12  C   UNK N   1      29.529  17.659   6.769  0.00  0.00    -0.035 A 
HETATM   13  N   UNK N   1      34.477  15.814   8.664  0.00  0.00    -0.234 N 
HETATM   14  C   UNK N   1      28.383  17.951   7.691  0.00  0.00     0.050 C 
HETATM   15  H   UNK N   1      34.623  15.669   9.627  0.00  0.00     0.174 HD
HETATM   16  H   UNK N   1      35.202  15.635   8.023  0.00  0.00     0.174 HD
ENDROOT
BRANCH  11  17
HETATM   17  C   UNK N   1      28.131  18.334   4.694  0.00  0.00    -0.025 A 
HETATM   18  C   UNK N   1      27.924  19.716   4.527  0.00  0.00     0.012 A 
HETATM   19  C   UNK N   1      26.766  20.197   3.913  0.00  0.00     0.001 A 
HETATM   20  C   UNK N   1      25.796  19.305   3.456  0.00  0.00     0.000 A 
HETATM   21  C   UNK N   1      25.984  17.932   3.612  0.00  0.00     0.001 A 
HETATM   22  C   UNK N   1      27.142  17.454   4.226  0.00  0.00     0.012 A 
ENDBRANCH  11  17
BRANCH   3  23
HETATM   23  N   UNK N   1      30.032  17.202   9.666  0.00  0.00    -0.384 N 
HETATM   24  H   UNK N   1      29.662  16.448  10.180  0.00  0.00     0.157 HD
HETATM   25  H   UNK N   1      29.714  18.117   9.839  0.00  0.00     0.157 HD
ENDBRANCH   3  23
TORSDOF 2
ENDMDL
MODEL 4
REMARK VINA RESULT:      -6.8      8.705     11.419
REMARK  2 active torsions:
REMARK  status: ('A' for Active; 'I' for Inactive)
REMARK    1  A    between atoms: C_3  and  N_9 
REMARK       I    between atoms: C_6  and  N_14 
REMARK    2  A    between atoms: C_12  and  C_20 
ROOT
HETATM    1  C   UNK N   1      28.243  18.445   7.010  0.00  0.00     0.063 A 
HETATM    2  C   UNK N   1      29.081  17.865   6.026  0.00  0.00     0.042 A 
HETATM    3  C   UNK N   1      28.553  17.768   4.708  0.00  0.00     0.127 A 
HETATM    4  N   UNK N   1      27.300  18.223   4.449  0.00  0.00    -0.176 N 
ATOM      5  HN  UNK N   1      26.931  18.149   3.502  1.00  0.00     0.186 HD
HETATM    6  C   UNK N   1      26.530  18.772   5.419  0.00  0.00     0.677 A 
HETATM    7  N   UNK N   1      27.001  18.879   6.683  0.00  0.00    -0.191 N 
ATOM      8  HN  UNK N   1      26.410  19.295   7.404  1.00  0.00     0.184 HD
HETATM    9  C   UNK N   1      28.678  18.578   8.320  0.00  0.00     0.032 A 
HETATM   10  C   UNK N   1      29.942  18.145   8.687  0.00  0.00     0.015 A 
HETATM   11  C   UNK N   1      30.817  17.562   7.758  0.00  0.00    -0.019 A 
HETATM   12  C   UNK N   1      30.384  17.418   6.403  0.00  0.00    -0.035 A 
HETATM   13  N   UNK N   1      25.236  19.231   5.110  0.00  0.00    -0.234 N 
HETATM   14  C   UNK N   1      31.290  16.800   5.380  0.00  0.00     0.050 C 
HETATM   15  H   UNK N   1      24.892  19.154   4.190  0.00  0.00     0.174 HD
HETATM   16  H   UNK N   1      24.674  19.631   5.813  0.00  0.00     0.174 HD
ENDROOT
BRANCH  11  17
HETATM   17  C   UNK N   1      32.163  17.128   8.265  0.00  0.00    -0.025 A 
HETATM   18  C   UNK N   1      33.251  18.020   8.199  0.00  0.00     0.012 A 
HETATM   19  C   UNK N   1      34.514  17.643   8.662  0.00  0.00     0.001 A 
HETATM   20  C   UNK N   1      34.710  16.370   9.199  0.00  0.00     0.000 A 
HETATM   21  C   UNK N   1      33.644  15.474   9.273  0.00  0.00     0.001 A 
HETATM   22  C   UNK N   1      32.384  15.853   8.809  0.00  0.00     0.012 A 
ENDBRANCH  11  17
BRANCH   3  23
HETATM   23  N   UNK N   1      29.291  17.210   3.643  0.00  0.00    -0.384 N 
HETATM   24  H   UNK N   1      29.986  16.536   3.825  0.00  0.00     0.157 HD
HETATM   25  H   UNK N   1      29.112  17.493   2.718  0.00  0.00     0.157 HD
ENDBRANCH   3  23
TORSDOF 2
ENDMDL
MODEL 5
REMARK VINA RESULT:      -6.8      8.378     11.155
REMARK  2 active torsions:
REMARK  status: ('A' for Active; 'I' for Inactive)
REMARK    1  A    between atoms: C_3  and  N_9 
REMARK       I    between atoms: C_6  and  N_14 
REMARK    2  A    between atoms: C_12  and  C_20 
ROOT
HETATM    1  C   UNK N   1      29.323  17.924   5.324  0.00  0.00     0.063 A 
HETATM    2  C   UNK N   1      29.068  18.157   6.698  0.00  0.00     0.042 A 
HETATM    3  C   UNK N   1      27.838  18.796   7.023  0.00  0.00     0.127 A 
HETATM    4  N   UNK N   1      26.980  19.148   6.033  0.00  0.00    -0.176 N 
ATOM      5  HN  UNK N   1      26.102  19.605   6.276  1.00  0.00     0.186 HD
HETATM    6  C   UNK N   1      27.261  18.908   4.730  0.00  0.00     0.677 A 
HETATM    7  N   UNK N   1      28.422  18.302   4.385  0.00  0.00    -0.191 N 
ATOM      8  HN  UNK N   1      28.621  18.127   3.400  1.00  0.00     0.184 HD
HETATM    9  C   UNK N   1      30.497  17.307   4.917  0.00  0.00     0.032 A 
HETATM   10  C   UNK N   1      31.439  16.908   5.851  0.00  0.00     0.015 A 
HETATM   11  C   UNK N   1      31.244  17.111   7.226  0.00  0.00    -0.019 A 
HETATM   12  C   UNK N   1      30.039  17.746   7.662  0.00  0.00    -0.035 A 
HETATM   13  N   UNK N   1      26.344  19.289   3.732  0.00  0.00    -0.234 N 
HETATM   14  C   UNK N   1      29.792  17.981   9.122  0.00  0.00     0.050 C 
HETATM   15  H   UNK N   1      25.500  19.730   3.982  0.00  0.00     0.174 HD
HETATM   16  H   UNK N   1      26.547  19.116   2.785  0.00  0.00     0.174 HD
ENDROOT
BRANCH  11  17
HETATM   17  C   UNK N   1      32.330  16.639   8.150  0.00  0.00    -0.025 A 
HETATM   18  C   UNK N   1      33.424  17.482   8.424  0.00  0.00     0.012 A 
HETATM   19  C   UNK N   1      34.449  17.070   9.278  0.00  0.00     0.001 A 
HETATM   20  C   UNK N   1      34.397  15.808   9.873  0.00  0.00     0.000 A 
HETATM   21  C   UNK N   1      33.321  14.960   9.613  0.00  0.00     0.001 A 
HETATM   22  C   UNK N   1      32.300  15.374   8.759  0.00  0.00     0.012 A 
ENDBRANCH  11  17
BRANCH   3  23
HETATM   23  N   UNK N   1      27.471  19.081   8.356  0.00  0.00    -0.384 N 
HETATM   24  H   UNK N   1      27.136  18.362   8.938  0.00  0.00     0.157 HD
HETATM   25  H   UNK N   1      27.550  19.998   8.702  0.00  0.00     0.157 HD
ENDBRANCH   3  23
TORSDOF 2
ENDMDL
MODEL 6
REMARK VINA RESULT:      -6.8      9.437     13.148
REMARK  2 active torsions:
REMARK  status: ('A' for Active; 'I' for Inactive)
REMARK    1  A    between atoms: C_3  and  N_9 
REMARK       I    between atoms: C_6  and  N_14 
REMARK    2  A    between atoms: C_12  and  C_20 
ROOT
HETATM    1  C   UNK N   1      30.458  17.506   8.015  0.00  0.00     0.063 A 
HETATM    2  C   UNK N   1      30.634  17.062   6.681  0.00  0.00     0.042 A 
HETATM    3  C   UNK N   1      31.776  16.255   6.418  0.00  0.00     0.127 A 
HETATM    4  N   UNK N   1      32.631  15.949   7.427  0.00  0.00    -0.176 N 
ATOM      5  HN  UNK N   1      33.447  15.370   7.229  1.00  0.00     0.186 HD
HETATM    6  C   UNK N   1      32.428  16.393   8.690  0.00  0.00     0.677 A 
HETATM    7  N   UNK N   1      31.351  17.163   8.975  0.00  0.00    -0.191 N 
ATOM      8  HN  UNK N   1      31.210  17.491   9.931  1.00  0.00     0.184 HD
HETATM    9  C   UNK N   1      29.372  18.297   8.360  0.00  0.00     0.032 A 
HETATM   10  C   UNK N   1      28.441  18.665   7.402  0.00  0.00     0.015 A 
HETATM   11  C   UNK N   1      28.560  18.257   6.065  0.00  0.00    -0.019 A 
HETATM   12  C   UNK N   1      29.675  17.441   5.693  0.00  0.00    -0.035 A 
HETATM   13  N   UNK N   1      33.338  16.053   9.708  0.00  0.00    -0.234 N 
HETATM   14  C   UNK N   1      29.838  16.985   4.274  0.00  0.00     0.050 C 
HETATM   15  H   UNK N   1      34.121  15.493   9.502  0.00  0.00     0.174 HD
HETATM   16  H   UNK N   1      33.191  16.375  10.627  0.00  0.00     0.174 HD
ENDROOT
BRANCH  11  17
HETATM   17  C   UNK N   1      27.494  18.715   5.111  0.00  0.00    -0.025 A 
HETATM   18  C   UNK N   1      27.655  19.930   4.419  0.00  0.00     0.012 A 
HETATM   19  C   UNK N   1      26.680  20.380   3.527  0.00  0.00     0.001 A 
HETATM   20  C   UNK N   1      25.528  19.623   3.311  0.00  0.00     0.000 A 
HETATM   21  C   UNK N   1      25.351  18.417   3.987  0.00  0.00     0.001 A 
HETATM   22  C   UNK N   1      26.326  17.970   4.878  0.00  0.00     0.012 A 
ENDBRANCH  11  17
BRANCH   3  23
HETATM   23  N   UNK N   1      32.059  15.753   5.130  0.00  0.00    -0.384 N 
HETATM   24  H   UNK N   1      31.366  15.770   4.431  0.00  0.00     0.157 HD
HETATM   25  H   UNK N   1      32.950  15.385   4.929  0.00  0.00     0.157 HD
ENDBRANCH   3  23
TORSDOF 2
ENDMDL
MODEL 7
REMARK VINA RESULT:      -6.8      4.235      8.678
REMARK  2 active torsions:
REMARK  status: ('A' for Active; 'I' for Inactive)
REMARK    1  A    between atoms: C_3  and  N_9 
REMARK       I    between atoms: C_6  and  N_14 
REMARK    2  A    between atoms: C_12  and  C_20 
ROOT
HETATM    1  C   UNK N   1      35.609  15.293  11.550  0.00  0.00     0.063 A 
HETATM    2  C   UNK N   1      34.895  14.275  10.871  0.00  0.00     0.042 A 
HETATM    3  C   UNK N   1      34.937  12.972  11.441  0.00  0.00     0.127 A 
HETATM    4  N   UNK N   1      35.639  12.758  12.583  0.00  0.00    -0.176 N 
ATOM      5  HN  UNK N   1      35.662  11.822  12.984  1.00  0.00     0.186 HD
HETATM    6  C   UNK N   1      36.308  13.759  13.203  0.00  0.00     0.677 A 
HETATM    7  N   UNK N   1      36.290  15.011  12.687  0.00  0.00    -0.191 N 
ATOM      8  HN  UNK N   1      36.799  15.756  13.164  1.00  0.00     0.184 HD
HETATM    9  C   UNK N   1      35.623  16.592  11.064  0.00  0.00     0.032 A 
HETATM   10  C   UNK N   1      34.937  16.913   9.903  0.00  0.00     0.015 A 
HETATM   11  C   UNK N   1      34.212  15.949   9.187  0.00  0.00    -0.019 A 
HETATM   12  C   UNK N   1      34.188  14.605   9.675  0.00  0.00    -0.035 A 
HETATM   13  N   UNK N   1      37.025  13.497  14.385  0.00  0.00    -0.234 N 
HETATM   14  C   UNK N   1      33.425  13.546   8.938  0.00  0.00     0.050 C 
HETATM   15  H   UNK N   1      37.039  12.587  14.761  0.00  0.00     0.174 HD
HETATM   16  H   UNK N   1      37.512  14.224  14.837  0.00  0.00     0.174 HD
ENDROOT
BRANCH  11  17
HETATM   17  C   UNK N   1      33.506  16.408   7.943  0.00  0.00    -0.025 A 
HETATM   18  C   UNK N   1      34.239  16.591   6.755  0.00  0.00     0.012 A 
HETATM   19  C   UNK N   1      33.609  17.017   5.583  0.00  0.00     0.001 A 
HETATM   20  C   UNK N   1      32.236  17.267   5.580  0.00  0.00     0.000 A 
HETATM   21  C   UNK N   1      31.494  17.090   6.747  0.00  0.00     0.001 A 
HETATM   22  C   UNK N   1      32.125  16.665   7.915  0.00  0.00     0.012 A 
ENDBRANCH  11  17
BRANCH   3  23
HETATM   23  N   UNK N   1      34.266  11.876  10.858  0.00  0.00    -0.384 N 
HETATM   24  H   UNK N   1      34.678  10.982  10.873  0.00  0.00     0.157 HD
HETATM   25  H   UNK N   1      33.387  12.005  10.435  0.00  0.00     0.157 HD
ENDBRANCH   3  23
TORSDOF 2
ENDMDL
MODEL 8
REMARK VINA RESULT:      -6.7     15.197     18.102
REMARK  2 active torsions:
REMARK  status: ('A' for Active; 'I' for Inactive)
REMARK    1  A    between atoms: C_3  and  N_9 
REMARK       I    between atoms: C_6  and  N_14 
REMARK    2  A    between atoms: C_12  and  C_20 
ROOT
HETATM    1  C   UNK N   1      21.544  19.542   2.892  0.00  0.00     0.063 A 
HETATM    2  C   UNK N   1      21.918  18.441   3.701  0.00  0.00     0.042 A 
HETATM    3  C   UNK N   1      20.912  17.470   3.968  0.00  0.00     0.127 A 
HETATM    4  N   UNK N   1      19.667  17.631   3.451  0.00  0.00    -0.176 N 
ATOM      5  HN  UNK N   1      18.953  16.930   3.648  1.00  0.00     0.186 HD
HETATM    6  C   UNK N   1      19.350  18.699   2.681  0.00  0.00     0.677 A 
HETATM    7  N   UNK N   1      20.282  19.641   2.408  0.00  0.00    -0.191 N 
ATOM      8  HN  UNK N   1      20.030  20.441   1.827  1.00  0.00     0.184 HD
HETATM    9  C   UNK N   1      22.462  20.535   2.583  0.00  0.00     0.032 A 
HETATM   10  C   UNK N   1      23.760  20.464   3.061  0.00  0.00     0.015 A 
HETATM   11  C   UNK N   1      24.190  19.398   3.867  0.00  0.00    -0.019 A 
HETATM   12  C   UNK N   1      23.256  18.366   4.196  0.00  0.00    -0.035 A 
HETATM   13  N   UNK N   1      18.047  18.829   2.165  0.00  0.00    -0.234 N 
HETATM   14  C   UNK N   1      23.675  17.211   5.054  0.00  0.00     0.050 C 
HETATM   15  H   UNK N   1      17.368  18.144   2.363  0.00  0.00     0.174 HD
HETATM   16  H   UNK N   1      17.815  19.605   1.605  0.00  0.00     0.174 HD
ENDROOT
BRANCH  11  17
HETATM   17  C   UNK N   1      25.618  19.422   4.331  0.00  0.00    -0.025 A 
HETATM   18  C   UNK N   1      26.005  20.319   5.345  0.00  0.00     0.012 A 
HETATM   19  C   UNK N   1      27.326  20.363   5.796  0.00  0.00     0.001 A 
HETATM   20  C   UNK N   1      28.282  19.512   5.240  0.00  0.00     0.000 A 
HETATM   21  C   UNK N   1      27.917  18.617   4.234  0.00  0.00     0.001 A 
HETATM   22  C   UNK N   1      26.597  18.576   3.786  0.00  0.00     0.012 A 
ENDBRANCH  11  17
BRANCH   3  23
HETATM   23  N   UNK N   1      21.161  16.329   4.761  0.00  0.00    -0.384 N 
HETATM   24  H   UNK N   1      21.820  15.660   4.466  0.00  0.00     0.157 HD
HETATM   25  H   UNK N   1      20.677  16.202   5.608  0.00  0.00     0.157 HD
ENDBRANCH   3  23
TORSDOF 2
ENDMDL
MODEL 9
REMARK VINA RESULT:      -6.7      6.150      9.828
REMARK  2 active torsions:
REMARK  status: ('A' for Active; 'I' for Inactive)
REMARK    1  A    between atoms: C_3  and  N_9 
REMARK       I    between atoms: C_6  and  N_14 
REMARK    2  A    between atoms: C_12  and  C_20 
ROOT
HETATM    1  C   UNK N   1      35.891  14.356   8.443  0.00  0.00     0.063 A 
HETATM    2  C   UNK N   1      35.272  15.511   8.981  0.00  0.00     0.042 A 
HETATM    3  C   UNK N   1      35.702  15.926  10.273  0.00  0.00     0.127 A 
HETATM    4  N   UNK N   1      36.662  15.220  10.923  0.00  0.00    -0.176 N 
ATOM      5  HN  UNK N   1      36.963  15.526  11.847  1.00  0.00     0.186 HD
HETATM    6  C   UNK N   1      37.229  14.120  10.373  0.00  0.00     0.677 A 
HETATM    7  N   UNK N   1      36.844  13.697   9.146  0.00  0.00    -0.191 N 
ATOM      8  HN  UNK N   1      37.279  12.867   8.744  1.00  0.00     0.184 HD
HETATM    9  C   UNK N   1      35.532  13.880   7.190  0.00  0.00     0.032 A 
HETATM   10  C   UNK N   1      34.561  14.531   6.445  0.00  0.00     0.015 A 
HETATM   11  C   UNK N   1      33.913  15.679   6.924  0.00  0.00    -0.019 A 
HETATM   12  C   UNK N   1      34.271  16.182   8.214  0.00  0.00    -0.035 A 
HETATM   13  N   UNK N   1      38.222  13.415  11.080  0.00  0.00    -0.234 N 
HETATM   14  C   UNK N   1      33.602  17.406   8.762  0.00  0.00     0.050 C 
HETATM   15  H   UNK N   1      38.503  13.722  11.972  0.00  0.00     0.174 HD
HETATM   16  H   UNK N   1      38.635  12.615  10.682  0.00  0.00     0.174 HD
ENDROOT
BRANCH  11  17
HETATM   17  C   UNK N   1      32.877  16.303   6.033  0.00  0.00    -0.025 A 
HETATM   18  C   UNK N   1      31.516  16.004   6.235  0.00  0.00     0.012 A 
HETATM   19  C   UNK N   1      30.531  16.569   5.423  0.00  0.00     0.001 A 
HETATM   20  C   UNK N   1      30.889  17.442   4.395  0.00  0.00     0.000 A 
HETATM   21  C   UNK N   1      32.233  17.750   4.180  0.00  0.00     0.001 A 
HETATM   22  C   UNK N   1      33.214  17.184   4.993  0.00  0.00     0.012 A 
ENDBRANCH  11  17
BRANCH   3  23
HETATM   23  N   UNK N   1      35.161  17.061  10.915  0.00  0.00    -0.384 N 
HETATM   24  H   UNK N   1      34.919  17.856  10.387  0.00  0.00     0.157 HD
HETATM   25  H   UNK N   1      35.026  17.058  11.889  0.00  0.00     0.157 HD
ENDBRANCH   3  23
TORSDOF 2
ENDMDL
