REMARK  5 active torsions:
REMARK  status: ('A' for Active; 'I' for Inactive)
REMARK       I    between atoms: N_1  and  C_2 
REMARK       I    between atoms: C_5  and  N_6 
REMARK    1  A    between atoms: C_11  and  O_12 
REMARK    2  A    between atoms: O_12  and  C_13 
REMARK    3  A    between atoms: C_13  and  C_14 
REMARK    4  A    between atoms: C_14  and  O_15 
REMARK    5  A    between atoms: O_15  and  C_16 
ROOT
HETATM    1  N   UNK N   1      -6.151  -0.556  -0.000  0.00  0.00    -0.234 N 
HETATM    2  C   UNK N   1      -4.866   0.020  -0.000  0.00  0.00     0.693 A 
HETATM    3  N   UNK N   1      -4.726   1.369  -0.000  0.00  0.00    -0.023 N 
ATOM      4  HN  UNK N   1      -5.552   1.969  -0.000  1.00  0.00     0.203 HD
HETATM    5  C   UNK N   1      -3.487   1.921  -0.000  0.00  0.00     0.693 A 
HETATM    6  N   UNK N   1      -3.339   3.321   0.000  0.00  0.00    -0.234 N 
HETATM    7  N   UNK N   1      -2.390   1.124   0.000  0.00  0.00    -0.154 N 
ATOM      8  HN  UNK N   1      -1.459   1.540   0.000  1.00  0.00     0.188 HD
HETATM    9  N   UNK N   1      -3.769  -0.774  -0.000  0.00  0.00    -0.154 N 
ATOM     10  HN  UNK N   1      -3.877  -1.789  -0.000  1.00  0.00     0.188 HD
HETATM   11  C   UNK N   1      -2.527  -0.229   0.000  0.00  0.00     0.252 A 
HETATM   12  H   UNK N   1      -6.949   0.021  -0.000  0.00  0.00     0.174 HD
HETATM   13  H   UNK N   1      -6.251  -1.535  -0.000  0.00  0.00     0.174 HD
HETATM   14  H   UNK N   1      -2.439   3.721   0.000  0.00  0.00     0.174 HD
HETATM   15  H   UNK N   1      -4.135   3.901   0.000  0.00  0.00     0.174 HD
ENDROOT
BRANCH  11  16
HETATM   16  O   UNK N   1      -1.454  -1.056   0.000  0.00  0.00    -0.319 OA
BRANCH  16  17
HETATM   17  C   UNK N   1      -0.100  -0.758   0.000  0.00  0.00     0.205 C 
BRANCH  17  18
HETATM   18  C   UNK N   1       0.306   0.718  -0.000  0.00  0.00     0.202 C 
BRANCH  18  19
HETATM   19  O   UNK N   1       1.677   0.973  -0.000  0.00  0.00    -0.349 OA
BRANCH  19  20
HETATM   20  C   UNK N   1       2.736   0.112  -0.000  0.00  0.00     0.068 A 
HETATM   21  C   UNK N   1       4.030   0.645   0.000  0.00  0.00     0.037 A 
HETATM   22  C   UNK N   1       5.146  -0.199   0.000  0.00  0.00     0.003 A 
HETATM   23  C   UNK N   1       4.977  -1.586  -0.000  0.00  0.00     0.000 A 
HETATM   24  C   UNK N   1       3.693  -2.130  -0.000  0.00  0.00     0.003 A 
HETATM   25  C   UNK N   1       2.583  -1.286  -0.000  0.00  0.00     0.037 A 
ENDBRANCH  19  20
ENDBRANCH  18  19
ENDBRANCH  17  18
ENDBRANCH  16  17
ENDBRANCH  11  16
TORSDOF 5
