MODEL 1
REMARK VINA RESULT:      -6.4      0.000      0.000
REMARK  5 active torsions:
REMARK  status: ('A' for Active; 'I' for Inactive)
REMARK       I    between atoms: N_1  and  C_2 
REMARK       I    between atoms: C_5  and  N_6 
REMARK    1  A    between atoms: C_11  and  O_12 
REMARK    2  A    between atoms: O_12  and  C_13 
REMARK    3  A    between atoms: C_13  and  C_14 
REMARK    4  A    between atoms: C_14  and  O_15 
REMARK    5  A    between atoms: O_15  and  C_16 
ROOT
HETATM    1  N   UNK N   1      19.628  16.438   1.740  0.00  0.00    -0.234 N 
HETATM    2  C   UNK N   1      20.061  17.710   2.161  0.00  0.00     0.693 A 
HETATM    3  N   UNK N   1      20.056  18.751   1.291  0.00  0.00    -0.023 N 
ATOM      4  HN  UNK N   1      19.737  18.614   0.331  1.00  0.00     0.203 HD
HETATM    5  C   UNK N   1      20.474  19.975   1.699  0.00  0.00     0.693 A 
HETATM    6  N   UNK N   1      20.469  21.058   0.798  0.00  0.00    -0.234 N 
HETATM    7  N   UNK N   1      20.897  20.157   2.974  0.00  0.00    -0.154 N 
ATOM      8  HN  UNK N   1      21.211  21.078   3.279  1.00  0.00     0.188 HD
HETATM    9  N   UNK N   1      20.484  17.894   3.434  0.00  0.00    -0.154 N 
ATOM     10  HN  UNK N   1      20.487  17.109   4.086  1.00  0.00     0.188 HD
HETATM   11  C   UNK N   1      20.904  19.115   3.848  0.00  0.00     0.252 A 
HETATM   12  H   UNK N   1      19.320  16.303   0.815  0.00  0.00     0.174 HD
HETATM   13  H   UNK N   1      19.632  15.683   2.372  0.00  0.00     0.174 HD
HETATM   14  H   UNK N   1      20.773  21.946   1.095  0.00  0.00     0.174 HD
HETATM   15  H   UNK N   1      20.162  20.927  -0.128  0.00  0.00     0.174 HD
ENDROOT
BRANCH  11  16
HETATM   16  O   UNK N   1      21.319  19.260   5.129  0.00  0.00    -0.319 OA
BRANCH  16  17
HETATM   17  C   UNK N   1      21.714  18.303   6.051  0.00  0.00     0.205 C 
BRANCH  17  18
HETATM   18  C   UNK N   1      20.619  17.511   6.771  0.00  0.00     0.202 C 
BRANCH  18  19
HETATM   19  O   UNK N   1      20.568  17.665   8.157  0.00  0.00    -0.349 OA
BRANCH  19  20
HETATM   20  C   UNK N   1      19.510  17.931   8.977  0.00  0.00     0.068 A 
HETATM   21  C   UNK N   1      19.614  18.999   9.875  0.00  0.00     0.037 A 
HETATM   22  C   UNK N   1      18.555  19.309  10.736  0.00  0.00     0.003 A 
HETATM   23  C   UNK N   1      17.381  18.552  10.706  0.00  0.00     0.000 A 
HETATM   24  C   UNK N   1      17.265  17.485   9.816  0.00  0.00     0.003 A 
HETATM   25  C   UNK N   1      18.322  17.179   8.959  0.00  0.00     0.037 A 
ENDBRANCH  19  20
ENDBRANCH  18  19
ENDBRANCH  17  18
ENDBRANCH  16  17
ENDBRANCH  11  16
TORSDOF 5
ENDMDL
MODEL 2
REMARK VINA RESULT:      -6.2     16.441     17.382
REMARK  5 active torsions:
REMARK  status: ('A' for Active; 'I' for Inactive)
REMARK       I    between atoms: N_1  and  C_2 
REMARK       I    between atoms: C_5  and  N_6 
REMARK    1  A    between atoms: C_11  and  O_12 
REMARK    2  A    between atoms: O_12  and  C_13 
REMARK    3  A    between atoms: C_13  and  C_14 
REMARK    4  A    between atoms: C_14  and  O_15 
REMARK    5  A    between atoms: O_15  and  C_16 
ROOT
HETATM    1  N   UNK N   1      32.506  13.673   8.264  0.00  0.00    -0.234 N 
HETATM    2  C   UNK N   1      33.262  14.522   9.095  0.00  0.00     0.693 A 
HETATM    3  N   UNK N   1      33.639  15.747   8.652  0.00  0.00    -0.023 N 
ATOM      4  HN  UNK N   1      33.374  16.056   7.716  1.00  0.00     0.203 HD
HETATM    5  C   UNK N   1      34.368  16.562   9.455  0.00  0.00     0.693 A 
HETATM    6  N   UNK N   1      34.760  17.835   8.997  0.00  0.00    -0.234 N 
HETATM    7  N   UNK N   1      34.719  16.152  10.698  0.00  0.00    -0.154 N 
ATOM      8  HN  UNK N   1      35.267  16.766  11.301  1.00  0.00     0.188 HD
HETATM    9  N   UNK N   1      33.615  14.114  10.338  0.00  0.00    -0.154 N 
ATOM     10  HN  UNK N   1      33.330  13.191  10.668  1.00  0.00     0.188 HD
HETATM   11  C   UNK N   1      34.343  14.924  11.145  0.00  0.00     0.252 A 
HETATM   12  H   UNK N   1      32.250  13.969   7.361  0.00  0.00     0.174 HD
HETATM   13  H   UNK N   1      32.233  12.784   8.587  0.00  0.00     0.174 HD
HETATM   14  H   UNK N   1      35.289  18.426   9.581  0.00  0.00     0.174 HD
HETATM   15  H   UNK N   1      34.505  18.134   8.094  0.00  0.00     0.174 HD
ENDROOT
BRANCH  11  16
HETATM   16  O   UNK N   1      34.676  14.480  12.381  0.00  0.00    -0.319 OA
BRANCH  16  17
HETATM   17  C   UNK N   1      35.207  13.262  12.778  0.00  0.00     0.205 C 
BRANCH  17  18
HETATM   18  C   UNK N   1      35.970  13.214  14.104  0.00  0.00     0.202 C 
BRANCH  18  19
HETATM   19  O   UNK N   1      35.593  12.202  14.987  0.00  0.00    -0.349 OA
BRANCH  19  20
HETATM   20  C   UNK N   1      35.506  12.205  16.349  0.00  0.00     0.068 A 
HETATM   21  C   UNK N   1      35.273  13.421  17.001  0.00  0.00     0.037 A 
HETATM   22  C   UNK N   1      35.177  13.473  18.396  0.00  0.00     0.003 A 
HETATM   23  C   UNK N   1      35.314  12.306  19.152  0.00  0.00     0.000 A 
HETATM   24  C   UNK N   1      35.547  11.088  18.515  0.00  0.00     0.003 A 
HETATM   25  C   UNK N   1      35.642  11.040  17.125  0.00  0.00     0.037 A 
ENDBRANCH  19  20
ENDBRANCH  18  19
ENDBRANCH  17  18
ENDBRANCH  16  17
ENDBRANCH  11  16
TORSDOF 5
ENDMDL
MODEL 3
REMARK VINA RESULT:      -6.2      4.693      7.065
REMARK  5 active torsions:
REMARK  status: ('A' for Active; 'I' for Inactive)
REMARK       I    between atoms: N_1  and  C_2 
REMARK       I    between atoms: C_5  and  N_6 
REMARK    1  A    between atoms: C_11  and  O_12 
REMARK    2  A    between atoms: O_12  and  C_13 
REMARK    3  A    between atoms: C_13  and  C_14 
REMARK    4  A    between atoms: C_14  and  O_15 
REMARK    5  A    between atoms: O_15  and  C_16 
ROOT
HETATM    1  N   UNK N   1      20.292  21.216   0.459  0.00  0.00    -0.234 N 
HETATM    2  C   UNK N   1      20.660  20.356   1.512  0.00  0.00     0.693 A 
HETATM    3  N   UNK N   1      19.837  19.345   1.884  0.00  0.00    -0.023 N 
ATOM      4  HN  UNK N   1      18.948  19.206   1.402  1.00  0.00     0.203 HD
HETATM    5  C   UNK N   1      20.195  18.519   2.899  0.00  0.00     0.693 A 
HETATM    6  N   UNK N   1      19.341  17.469   3.287  0.00  0.00    -0.234 N 
HETATM    7  N   UNK N   1      21.375  18.705   3.539  0.00  0.00    -0.154 N 
ATOM      8  HN  UNK N   1      21.643  18.083   4.302  1.00  0.00     0.188 HD
HETATM    9  N   UNK N   1      21.839  20.540   2.153  0.00  0.00    -0.154 N 
ATOM     10  HN  UNK N   1      22.457  21.301   1.871  1.00  0.00     0.188 HD
HETATM   11  C   UNK N   1      22.203  19.717   3.168  0.00  0.00     0.252 A 
HETATM   12  H   UNK N   1      19.435  21.083  -0.007  0.00  0.00     0.174 HD
HETATM   13  H   UNK N   1      20.890  21.949   0.190  0.00  0.00     0.174 HD
HETATM   14  H   UNK N   1      19.602  16.869   4.023  0.00  0.00     0.174 HD
HETATM   15  H   UNK N   1      18.484  17.333   2.822  0.00  0.00     0.174 HD
ENDROOT
BRANCH  11  16
HETATM   16  O   UNK N   1      23.390  19.933   3.786  0.00  0.00    -0.319 OA
BRANCH  16  17
HETATM   17  C   UNK N   1      24.642  19.400   3.519  0.00  0.00     0.205 C 
BRANCH  17  18
HETATM   18  C   UNK N   1      25.803  20.376   3.310  0.00  0.00     0.202 C 
BRANCH  18  19
HETATM   19  O   UNK N   1      27.074  19.881   3.599  0.00  0.00    -0.349 OA
BRANCH  19  20
HETATM   20  C   UNK N   1      27.597  19.420   4.773  0.00  0.00     0.068 A 
HETATM   21  C   UNK N   1      28.432  18.298   4.736  0.00  0.00     0.037 A 
HETATM   22  C   UNK N   1      28.991  17.789   5.913  0.00  0.00     0.003 A 
HETATM   23  C   UNK N   1      28.719  18.400   7.140  0.00  0.00     0.000 A 
HETATM   24  C   UNK N   1      27.888  19.518   7.191  0.00  0.00     0.003 A 
HETATM   25  C   UNK N   1      27.333  20.023   6.015  0.00  0.00     0.037 A 
ENDBRANCH  19  20
ENDBRANCH  18  19
ENDBRANCH  17  18
ENDBRANCH  16  17
ENDBRANCH  11  16
TORSDOF 5
ENDMDL
MODEL 4
REMARK VINA RESULT:      -6.1     11.983     13.644
REMARK  5 active torsions:
REMARK  status: ('A' for Active; 'I' for Inactive)
REMARK       I    between atoms: N_1  and  C_2 
REMARK       I    between atoms: C_5  and  N_6 
REMARK    1  A    between atoms: C_11  and  O_12 
REMARK    2  A    between atoms: O_12  and  C_13 
REMARK    3  A    between atoms: C_13  and  C_14 
REMARK    4  A    between atoms: C_14  and  O_15 
REMARK    5  A    between atoms: O_15  and  C_16 
ROOT
HETATM    1  N   UNK N   1      32.475  13.508   9.076  0.00  0.00    -0.234 N 
HETATM    2  C   UNK N   1      33.266  14.657   8.881  0.00  0.00     0.693 A 
HETATM    3  N   UNK N   1      33.796  15.305   9.948  0.00  0.00    -0.023 N 
ATOM      4  HN  UNK N   1      33.623  14.962  10.893  1.00  0.00     0.203 HD
HETATM    5  C   UNK N   1      34.558  16.412   9.758  0.00  0.00     0.693 A 
HETATM    6  N   UNK N   1      35.109  17.087  10.863  0.00  0.00    -0.234 N 
HETATM    7  N   UNK N   1      34.788  16.869   8.502  0.00  0.00    -0.154 N 
ATOM      8  HN  UNK N   1      35.360  17.700   8.360  1.00  0.00     0.188 HD
HETATM    9  N   UNK N   1      33.497  15.115   7.628  0.00  0.00    -0.154 N 
ATOM     10  HN  UNK N   1      33.097  14.625   6.827  1.00  0.00     0.188 HD
HETATM   11  C   UNK N   1      34.257  16.221   7.430  0.00  0.00     0.252 A 
HETATM   12  H   UNK N   1      32.307  13.175   9.987  0.00  0.00     0.174 HD
HETATM   13  H   UNK N   1      32.091  13.039   8.301  0.00  0.00     0.174 HD
HETATM   14  H   UNK N   1      35.662  17.890  10.724  0.00  0.00     0.174 HD
HETATM   15  H   UNK N   1      34.943  16.756  11.776  0.00  0.00     0.174 HD
ENDROOT
BRANCH  11  16
HETATM   16  O   UNK N   1      34.466  16.648   6.162  0.00  0.00    -0.319 OA
BRANCH  16  17
HETATM   17  C   UNK N   1      33.588  16.722   5.091  0.00  0.00     0.205 C 
BRANCH  17  18
HETATM   18  C   UNK N   1      32.243  17.418   5.318  0.00  0.00     0.202 C 
BRANCH  18  19
HETATM   19  O   UNK N   1      31.347  16.755   6.155  0.00  0.00    -0.349 OA
BRANCH  19  20
HETATM   20  C   UNK N   1      30.549  17.234   7.153  0.00  0.00     0.068 A 
HETATM   21  C   UNK N   1      29.167  17.036   7.056  0.00  0.00     0.037 A 
HETATM   22  C   UNK N   1      28.309  17.510   8.055  0.00  0.00     0.003 A 
HETATM   23  C   UNK N   1      28.828  18.188   9.162  0.00  0.00     0.000 A 
HETATM   24  C   UNK N   1      30.203  18.392   9.270  0.00  0.00     0.003 A 
HETATM   25  C   UNK N   1      31.055  17.918   8.273  0.00  0.00     0.037 A 
ENDBRANCH  19  20
ENDBRANCH  18  19
ENDBRANCH  17  18
ENDBRANCH  16  17
ENDBRANCH  11  16
TORSDOF 5
ENDMDL
MODEL 5
REMARK VINA RESULT:      -6.0     14.955     16.965
REMARK  5 active torsions:
REMARK  status: ('A' for Active; 'I' for Inactive)
REMARK       I    between atoms: N_1  and  C_2 
REMARK       I    between atoms: C_5  and  N_6 
REMARK    1  A    between atoms: C_11  and  O_12 
REMARK    2  A    between atoms: O_12  and  C_13 
REMARK    3  A    between atoms: C_13  and  C_14 
REMARK    4  A    between atoms: C_14  and  O_15 
REMARK    5  A    between atoms: O_15  and  C_16 
ROOT
HETATM    1  N   UNK N   1      34.344  11.686  12.438  0.00  0.00    -0.234 N 
HETATM    2  C   UNK N   1      35.054  12.876  12.682  0.00  0.00     0.693 A 
HETATM    3  N   UNK N   1      35.772  13.018  13.825  0.00  0.00    -0.023 N 
ATOM      4  HN  UNK N   1      35.797  12.261  14.509  1.00  0.00     0.203 HD
HETATM    5  C   UNK N   1      36.455  14.166  14.057  0.00  0.00     0.693 A 
HETATM    6  N   UNK N   1      37.200  14.315  15.242  0.00  0.00    -0.234 N 
HETATM    7  N   UNK N   1      36.421  15.171  13.148  0.00  0.00    -0.154 N 
ATOM      8  HN  UNK N   1      36.935  16.034  13.324  1.00  0.00     0.188 HD
HETATM    9  N   UNK N   1      35.022  13.882  11.775  0.00  0.00    -0.154 N 
ATOM     10  HN  UNK N   1      34.481  13.773  10.916  1.00  0.00     0.188 HD
HETATM   11  C   UNK N   1      35.703  15.033  12.001  0.00  0.00     0.252 A 
HETATM   12  H   UNK N   1      34.367  10.954  13.097  0.00  0.00     0.174 HD
HETATM   13  H   UNK N   1      33.824  11.585  11.609  0.00  0.00     0.174 HD
HETATM   14  H   UNK N   1      37.696  15.149  15.410  0.00  0.00     0.174 HD
HETATM   15  H   UNK N   1      37.226  13.586  15.904  0.00  0.00     0.174 HD
ENDROOT
BRANCH  11  16
HETATM   16  O   UNK N   1      35.646  16.015  11.071  0.00  0.00    -0.319 OA
BRANCH  16  17
HETATM   17  C   UNK N   1      35.191  15.977   9.761  0.00  0.00     0.205 C 
BRANCH  17  18
HETATM   18  C   UNK N   1      34.572  17.252   9.183  0.00  0.00     0.202 C 
BRANCH  18  19
HETATM   19  O   UNK N   1      33.271  17.130   8.694  0.00  0.00    -0.349 OA
BRANCH  19  20
HETATM   20  C   UNK N   1      32.796  17.207   7.417  0.00  0.00     0.068 A 
HETATM   21  C   UNK N   1      33.705  17.449   6.380  0.00  0.00     0.037 A 
HETATM   22  C   UNK N   1      33.264  17.537   5.055  0.00  0.00     0.003 A 
HETATM   23  C   UNK N   1      31.908  17.382   4.755  0.00  0.00     0.000 A 
HETATM   24  C   UNK N   1      30.993  17.140   5.779  0.00  0.00     0.003 A 
HETATM   25  C   UNK N   1      31.435  17.054   7.098  0.00  0.00     0.037 A 
ENDBRANCH  19  20
ENDBRANCH  18  19
ENDBRANCH  17  18
ENDBRANCH  16  17
ENDBRANCH  11  16
TORSDOF 5
ENDMDL
MODEL 6
REMARK VINA RESULT:      -5.8     13.356     14.968
REMARK  5 active torsions:
REMARK  status: ('A' for Active; 'I' for Inactive)
REMARK       I    between atoms: N_1  and  C_2 
REMARK       I    between atoms: C_5  and  N_6 
REMARK    1  A    between atoms: C_11  and  O_12 
REMARK    2  A    between atoms: O_12  and  C_13 
REMARK    3  A    between atoms: C_13  and  C_14 
REMARK    4  A    between atoms: C_14  and  O_15 
REMARK    5  A    between atoms: O_15  and  C_16 
ROOT
HETATM    1  N   UNK N   1      35.771  13.232   8.589  0.00  0.00    -0.234 N 
HETATM    2  C   UNK N   1      35.703  14.289   9.517  0.00  0.00     0.693 A 
HETATM    3  N   UNK N   1      36.050  14.081  10.811  0.00  0.00    -0.023 N 
ATOM      4  HN  UNK N   1      36.362  13.157  11.115  1.00  0.00     0.203 HD
HETATM    5  C   UNK N   1      35.984  15.101  11.702  0.00  0.00     0.693 A 
HETATM    6  N   UNK N   1      36.344  14.887  13.047  0.00  0.00    -0.234 N 
HETATM    7  N   UNK N   1      35.570  16.328  11.299  0.00  0.00    -0.154 N 
ATOM      8  HN  UNK N   1      35.521  17.094  11.970  1.00  0.00     0.188 HD
HETATM    9  N   UNK N   1      35.290  15.515   9.116  0.00  0.00    -0.154 N 
ATOM     10  HN  UNK N   1      35.030  15.669   8.141  1.00  0.00     0.188 HD
HETATM   11  C   UNK N   1      35.221  16.540  10.002  0.00  0.00     0.252 A 
HETATM   12  H   UNK N   1      36.071  12.340   8.880  0.00  0.00     0.174 HD
HETATM   13  H   UNK N   1      35.519  13.385   7.650  0.00  0.00     0.174 HD
HETATM   14  H   UNK N   1      36.295  15.628  13.693  0.00  0.00     0.174 HD
HETATM   15  H   UNK N   1      36.644  13.997  13.341  0.00  0.00     0.174 HD
ENDROOT
BRANCH  11  16
HETATM   16  O   UNK N   1      34.804  17.751   9.563  0.00  0.00    -0.319 OA
BRANCH  16  17
HETATM   17  C   UNK N   1      34.631  18.219   8.269  0.00  0.00     0.205 C 
BRANCH  17  18
HETATM   18  C   UNK N   1      33.249  18.056   7.630  0.00  0.00     0.202 C 
BRANCH  18  19
HETATM   19  O   UNK N   1      32.221  17.675   8.491  0.00  0.00    -0.349 OA
BRANCH  19  20
HETATM   20  C   UNK N   1      30.867  17.708   8.321  0.00  0.00     0.068 A 
HETATM   21  C   UNK N   1      30.097  18.437   9.234  0.00  0.00     0.037 A 
HETATM   22  C   UNK N   1      28.705  18.500   9.099  0.00  0.00     0.003 A 
HETATM   23  C   UNK N   1      28.071  17.834   8.047  0.00  0.00     0.000 A 
HETATM   24  C   UNK N   1      28.827  17.104   7.130  0.00  0.00     0.003 A 
HETATM   25  C   UNK N   1      30.214  17.044   7.268  0.00  0.00     0.037 A 
ENDBRANCH  19  20
ENDBRANCH  18  19
ENDBRANCH  17  18
ENDBRANCH  16  17
ENDBRANCH  11  16
TORSDOF 5
ENDMDL
MODEL 7
REMARK VINA RESULT:      -5.6     23.263     25.173
REMARK  5 active torsions:
REMARK  status: ('A' for Active; 'I' for Inactive)
REMARK       I    between atoms: N_1  and  C_2 
REMARK       I    between atoms: C_5  and  N_6 
REMARK    1  A    between atoms: C_11  and  O_12 
REMARK    2  A    between atoms: O_12  and  C_13 
REMARK    3  A    between atoms: C_13  and  C_14 
REMARK    4  A    between atoms: C_14  and  O_15 
REMARK    5  A    between atoms: O_15  and  C_16 
ROOT
HETATM    1  N   UNK N   1      44.224  26.524  -0.862  0.00  0.00    -0.234 N 
HETATM    2  C   UNK N   1      45.007  25.944   0.154  0.00  0.00     0.693 A 
HETATM    3  N   UNK N   1      46.346  26.159   0.186  0.00  0.00    -0.023 N 
ATOM      4  HN  UNK N   1      46.788  26.741  -0.527  1.00  0.00     0.203 HD
HETATM    5  C   UNK N   1      47.098  25.599   1.166  0.00  0.00     0.693 A 
HETATM    6  N   UNK N   1      48.488  25.820   1.202  0.00  0.00    -0.234 N 
HETATM    7  N   UNK N   1      46.511  24.826   2.113  0.00  0.00    -0.154 N 
ATOM      8  HN  UNK N   1      47.077  24.405   2.849  1.00  0.00     0.188 HD
HETATM    9  N   UNK N   1      44.423  25.172   1.100  0.00  0.00    -0.154 N 
ATOM     10  HN  UNK N   1      43.415  25.012   1.074  1.00  0.00     0.188 HD
HETATM   11  C   UNK N   1      45.169  24.609   2.083  0.00  0.00     0.252 A 
HETATM   12  H   UNK N   1      44.648  27.086  -1.551  0.00  0.00     0.174 HD
HETATM   13  H   UNK N   1      43.253  26.368  -0.884  0.00  0.00     0.174 HD
HETATM   14  H   UNK N   1      49.033  25.413   1.914  0.00  0.00     0.174 HD
HETATM   15  H   UNK N   1      48.916  26.382   0.515  0.00  0.00     0.174 HD
ENDROOT
BRANCH  11  16
HETATM   16  O   UNK N   1      44.548  23.842   3.012  0.00  0.00    -0.319 OA
BRANCH  16  17
HETATM   17  C   UNK N   1      43.862  22.646   2.866  0.00  0.00     0.205 C 
BRANCH  17  18
HETATM   18  C   UNK N   1      42.344  22.712   2.680  0.00  0.00     0.202 C 
BRANCH  18  19
HETATM   19  O   UNK N   1      41.862  23.824   1.990  0.00  0.00    -0.349 OA
BRANCH  19  20
HETATM   20  C   UNK N   1      41.013  23.903   0.924  0.00  0.00     0.068 A 
HETATM   21  C   UNK N   1      40.542  25.162   0.537  0.00  0.00     0.037 A 
HETATM   22  C   UNK N   1      39.670  25.291  -0.550  0.00  0.00     0.003 A 
HETATM   23  C   UNK N   1      39.262  24.160  -1.261  0.00  0.00     0.000 A 
HETATM   24  C   UNK N   1      39.725  22.899  -0.885  0.00  0.00     0.003 A 
HETATM   25  C   UNK N   1      40.593  22.774   0.198  0.00  0.00     0.037 A 
ENDBRANCH  19  20
ENDBRANCH  18  19
ENDBRANCH  17  18
ENDBRANCH  16  17
ENDBRANCH  11  16
TORSDOF 5
ENDMDL
MODEL 8
REMARK VINA RESULT:      -5.6      4.845      6.509
REMARK  5 active torsions:
REMARK  status: ('A' for Active; 'I' for Inactive)
REMARK       I    between atoms: N_1  and  C_2 
REMARK       I    between atoms: C_5  and  N_6 
REMARK    1  A    between atoms: C_11  and  O_12 
REMARK    2  A    between atoms: O_12  and  C_13 
REMARK    3  A    between atoms: C_13  and  C_14 
REMARK    4  A    between atoms: C_14  and  O_15 
REMARK    5  A    between atoms: O_15  and  C_16 
ROOT
HETATM    1  N   UNK N   1      18.135  15.402  -0.404  0.00  0.00    -0.234 N 
HETATM    2  C   UNK N   1      19.115  15.918   0.467  0.00  0.00     0.693 A 
HETATM    3  N   UNK N   1      20.100  15.112   0.934  0.00  0.00    -0.023 N 
ATOM      4  HN  UNK N   1      20.133  14.130   0.656  1.00  0.00     0.203 HD
HETATM    5  C   UNK N   1      21.042  15.611   1.773  0.00  0.00     0.693 A 
HETATM    6  N   UNK N   1      22.066  14.776   2.260  0.00  0.00    -0.234 N 
HETATM    7  N   UNK N   1      20.998  16.915   2.143  0.00  0.00    -0.154 N 
ATOM      8  HN  UNK N   1      21.707  17.289   2.773  1.00  0.00     0.188 HD
HETATM    9  N   UNK N   1      19.072  17.219   0.838  0.00  0.00    -0.154 N 
ATOM     10  HN  UNK N   1      18.330  17.824   0.484  1.00  0.00     0.188 HD
HETATM   11  C   UNK N   1      20.011  17.725   1.676  0.00  0.00     0.252 A 
HETATM   12  H   UNK N   1      18.165  14.456  -0.673  0.00  0.00     0.174 HD
HETATM   13  H   UNK N   1      17.421  15.988  -0.742  0.00  0.00     0.174 HD
HETATM   14  H   UNK N   1      22.750  15.140   2.868  0.00  0.00     0.174 HD
HETATM   15  H   UNK N   1      22.099  13.829   1.992  0.00  0.00     0.174 HD
ENDROOT
BRANCH  11  16
HETATM   16  O   UNK N   1      19.935  19.032   2.024  0.00  0.00    -0.319 OA
BRANCH  16  17
HETATM   17  C   UNK N   1      20.433  19.687   3.140  0.00  0.00     0.205 C 
BRANCH  17  18
HETATM   18  C   UNK N   1      21.866  20.223   3.073  0.00  0.00     0.202 C 
BRANCH  18  19
HETATM   19  O   UNK N   1      22.867  19.336   3.467  0.00  0.00    -0.349 OA
BRANCH  19  20
HETATM   20  C   UNK N   1      24.203  19.541   3.661  0.00  0.00     0.068 A 
HETATM   21  C   UNK N   1      24.873  20.424   2.808  0.00  0.00     0.037 A 
HETATM   22  C   UNK N   1      26.242  20.665   2.968  0.00  0.00     0.003 A 
HETATM   23  C   UNK N   1      26.954  20.023   3.985  0.00  0.00     0.000 A 
HETATM   24  C   UNK N   1      26.297  19.140   4.842  0.00  0.00     0.003 A 
HETATM   25  C   UNK N   1      24.933  18.902   4.679  0.00  0.00     0.037 A 
ENDBRANCH  19  20
ENDBRANCH  18  19
ENDBRANCH  17  18
ENDBRANCH  16  17
ENDBRANCH  11  16
TORSDOF 5
ENDMDL
MODEL 9
REMARK VINA RESULT:      -5.6     14.028     15.192
REMARK  5 active torsions:
REMARK  status: ('A' for Active; 'I' for Inactive)
REMARK       I    between atoms: N_1  and  C_2 
REMARK       I    between atoms: C_5  and  N_6 
REMARK    1  A    between atoms: C_11  and  O_12 
REMARK    2  A    between atoms: O_12  and  C_13 
REMARK    3  A    between atoms: C_13  and  C_14 
REMARK    4  A    between atoms: C_14  and  O_15 
REMARK    5  A    between atoms: O_15  and  C_16 
ROOT
HETATM    1  N   UNK N   1      29.369  23.005  -1.873  0.00  0.00    -0.234 N 
HETATM    2  C   UNK N   1      29.769  22.422  -3.091  0.00  0.00     0.693 A 
HETATM    3  N   UNK N   1      30.629  21.374  -3.092  0.00  0.00    -0.023 N 
ATOM      4  HN  UNK N   1      30.989  21.006  -2.210  1.00  0.00     0.203 HD
HETATM    5  C   UNK N   1      31.012  20.814  -4.267  0.00  0.00     0.693 A 
HETATM    6  N   UNK N   1      31.906  19.726  -4.271  0.00  0.00    -0.234 N 
HETATM    7  N   UNK N   1      30.535  21.302  -5.438  0.00  0.00    -0.154 N 
ATOM      8  HN  UNK N   1      30.823  20.880  -6.321  1.00  0.00     0.188 HD
HETATM    9  N   UNK N   1      29.293  22.908  -4.262  0.00  0.00    -0.154 N 
ATOM     10  HN  UNK N   1      28.645  23.697  -4.258  1.00  0.00     0.188 HD
HETATM   11  C   UNK N   1      29.671  22.353  -5.440  0.00  0.00     0.252 A 
HETATM   12  H   UNK N   1      29.715  22.652  -1.022  0.00  0.00     0.174 HD
HETATM   13  H   UNK N   1      28.744  23.766  -1.874  0.00  0.00     0.174 HD
HETATM   14  H   UNK N   1      32.183  19.320  -5.124  0.00  0.00     0.174 HD
HETATM   15  H   UNK N   1      32.254  19.370  -3.421  0.00  0.00     0.174 HD
ENDROOT
BRANCH  11  16
HETATM   16  O   UNK N   1      29.174  22.867  -6.591  0.00  0.00    -0.319 OA
BRANCH  16  17
HETATM   17  C   UNK N   1      28.131  23.759  -6.790  0.00  0.00     0.205 C 
BRANCH  17  18
HETATM   18  C   UNK N   1      26.713  23.283  -6.466  0.00  0.00     0.202 C 
BRANCH  18  19
HETATM   19  O   UNK N   1      26.160  23.775  -5.284  0.00  0.00    -0.349 OA
BRANCH  19  20
HETATM   20  C   UNK N   1      25.975  25.060  -4.863  0.00  0.00     0.068 A 
HETATM   21  C   UNK N   1      25.229  25.927  -5.670  0.00  0.00     0.037 A 
HETATM   22  C   UNK N   1      25.013  27.253  -5.279  0.00  0.00     0.003 A 
HETATM   23  C   UNK N   1      25.543  27.725  -4.075  0.00  0.00     0.000 A 
HETATM   24  C   UNK N   1      26.289  26.872  -3.262  0.00  0.00     0.003 A 
HETATM   25  C   UNK N   1      26.502  25.551  -3.655  0.00  0.00     0.037 A 
ENDBRANCH  19  20
ENDBRANCH  18  19
ENDBRANCH  17  18
ENDBRANCH  16  17
ENDBRANCH  11  16
TORSDOF 5
ENDMDL
