MODEL 1
REMARK VINA RESULT:      -5.8      0.000      0.000
REMARK  4 active torsions:
REMARK  status: ('A' for Active; 'I' for Inactive)
REMARK    1  A    between atoms: C_2  and  C_7 
REMARK    2  A    between atoms: C_3  and  S_14 
REMARK    3  A    between atoms: C_12  and  O_13 
REMARK    4  A    between atoms: S_14  and  O_16 
ROOT
HETATM    1  C   UNK N   1      26.668  27.127  -3.660  0.00  0.00     0.014 A 
HETATM    2  C   UNK N   1      27.042  25.988  -4.398  0.00  0.00    -0.002 A 
HETATM    3  C   UNK N   1      26.307  25.714  -5.607  0.00  0.00     0.070 A 
HETATM    4  C   UNK N   1      25.257  26.573  -5.977  0.00  0.00     0.024 A 
HETATM    5  C   UNK N   1      24.925  27.689  -5.218  0.00  0.00     0.002 A 
HETATM    6  C   UNK N   1      25.633  27.967  -4.058  0.00  0.00     0.001 A 
ENDROOT
BRANCH   2   7
HETATM    7  C   UNK N   1      28.192  25.145  -3.868  0.00  0.00     0.009 A 
HETATM    8  C   UNK N   1      29.522  25.497  -4.150  0.00  0.00     0.015 A 
HETATM    9  C   UNK N   1      30.601  24.761  -3.659  0.00  0.00     0.001 A 
HETATM   10  C   UNK N   1      30.376  23.640  -2.870  0.00  0.00     0.003 A 
HETATM   11  C   UNK N   1      29.071  23.252  -2.578  0.00  0.00     0.037 A 
HETATM   12  C   UNK N   1      27.981  23.984  -3.061  0.00  0.00     0.076 A 
BRANCH  12  13
HETATM   13  O   UNK N   1      26.748  23.555  -2.747  0.00  0.00    -0.360 OA
HETATM   14  H   UNK N   1      26.151  24.126  -2.307  0.00  0.00     0.217 HD
ENDBRANCH  12  13
ENDBRANCH   2   7
BRANCH   3  15
HETATM   15  S   UNK N   1      26.611  24.279  -6.685  0.00  0.00     0.188 S 
HETATM   16  O   UNK N   1      25.348  24.536  -7.522  0.00  0.00    -0.223 OA
BRANCH  15  17
HETATM   17  O   UNK N   1      25.768  23.142  -5.705  0.00  0.00    -0.302 OA
HETATM   18  H   UNK N   1      25.262  23.403  -4.919  0.00  0.00     0.230 HD
ENDBRANCH  15  17
ENDBRANCH   3  15
TORSDOF 4
ENDMDL
MODEL 2
REMARK VINA RESULT:      -5.6      2.157      2.866
REMARK  4 active torsions:
REMARK  status: ('A' for Active; 'I' for Inactive)
REMARK    1  A    between atoms: C_2  and  C_7 
REMARK    2  A    between atoms: C_3  and  S_14 
REMARK    3  A    between atoms: C_12  and  O_13 
REMARK    4  A    between atoms: S_14  and  O_16 
ROOT
HETATM    1  C   UNK N   1      26.777  24.956  -6.269  0.00  0.00     0.014 A 
HETATM    2  C   UNK N   1      27.185  25.545  -5.057  0.00  0.00    -0.002 A 
HETATM    3  C   UNK N   1      26.576  26.800  -4.694  0.00  0.00     0.070 A 
HETATM    4  C   UNK N   1      25.632  27.376  -5.563  0.00  0.00     0.024 A 
HETATM    5  C   UNK N   1      25.258  26.756  -6.750  0.00  0.00     0.002 A 
HETATM    6  C   UNK N   1      25.831  25.544  -7.102  0.00  0.00     0.001 A 
ENDROOT
BRANCH   2   7
HETATM    7  C   UNK N   1      28.225  24.810  -4.224  0.00  0.00     0.009 A 
HETATM    8  C   UNK N   1      29.591  24.922  -4.529  0.00  0.00     0.015 A 
HETATM    9  C   UNK N   1      30.572  24.282  -3.772  0.00  0.00     0.001 A 
HETATM   10  C   UNK N   1      30.208  23.500  -2.681  0.00  0.00     0.003 A 
HETATM   11  C   UNK N   1      28.864  23.355  -2.354  0.00  0.00     0.037 A 
HETATM   12  C   UNK N   1      27.871  23.995  -3.104  0.00  0.00     0.076 A 
BRANCH  12  13
HETATM   13  O   UNK N   1      26.591  23.811  -2.738  0.00  0.00    -0.360 OA
HETATM   14  H   UNK N   1      26.390  23.503  -1.878  0.00  0.00     0.217 HD
ENDBRANCH  12  13
ENDBRANCH   2   7
BRANCH   3  15
HETATM   15  S   UNK N   1      26.986  27.739  -3.190  0.00  0.00     0.188 S 
HETATM   16  O   UNK N   1      26.052  26.894  -2.309  0.00  0.00    -0.223 OA
BRANCH  15  17
HETATM   17  O   UNK N   1      25.766  28.935  -3.391  0.00  0.00    -0.302 OA
HETATM   18  H   UNK N   1      25.537  29.308  -4.257  0.00  0.00     0.230 HD
ENDBRANCH  15  17
ENDBRANCH   3  15
TORSDOF 4
ENDMDL
MODEL 3
REMARK VINA RESULT:      -5.6     14.798     17.020
REMARK  4 active torsions:
REMARK  status: ('A' for Active; 'I' for Inactive)
REMARK    1  A    between atoms: C_2  and  C_7 
REMARK    2  A    between atoms: C_3  and  S_14 
REMARK    3  A    between atoms: C_12  and  O_13 
REMARK    4  A    between atoms: S_14  and  O_16 
ROOT
HETATM    1  C   UNK N   1      32.875  14.913   9.631  0.00  0.00     0.014 A 
HETATM    2  C   UNK N   1      32.768  16.067   8.830  0.00  0.00    -0.002 A 
HETATM    3  C   UNK N   1      33.852  17.014   8.886  0.00  0.00     0.070 A 
HETATM    4  C   UNK N   1      34.941  16.754   9.738  0.00  0.00     0.024 A 
HETATM    5  C   UNK N   1      35.005  15.599  10.509  0.00  0.00     0.002 A 
HETATM    6  C   UNK N   1      33.971  14.677  10.454  0.00  0.00     0.001 A 
ENDROOT
BRANCH   2   7
HETATM    7  C   UNK N   1      31.524  16.217   7.966  0.00  0.00     0.009 A 
HETATM    8  C   UNK N   1      31.415  15.526   6.749  0.00  0.00     0.015 A 
HETATM    9  C   UNK N   1      30.279  15.621   5.945  0.00  0.00     0.001 A 
HETATM   10  C   UNK N   1      29.214  16.423   6.338  0.00  0.00     0.003 A 
HETATM   11  C   UNK N   1      29.290  17.133   7.532  0.00  0.00     0.037 A 
HETATM   12  C   UNK N   1      30.422  17.042   8.349  0.00  0.00     0.076 A 
BRANCH  12  13
HETATM   13  O   UNK N   1      30.434  17.757   9.487  0.00  0.00    -0.360 OA
HETATM   14  H   UNK N   1      30.465  18.692   9.453  0.00  0.00     0.217 HD
ENDBRANCH  12  13
ENDBRANCH   2   7
BRANCH   3  15
HETATM   15  S   UNK N   1      33.893  18.578   7.957  0.00  0.00     0.188 S 
HETATM   16  O   UNK N   1      34.566  17.931   6.736  0.00  0.00    -0.223 OA
BRANCH  15  17
HETATM   17  O   UNK N   1      35.418  19.100   8.560  0.00  0.00    -0.302 OA
HETATM   18  H   UNK N   1      35.628  19.118   9.506  0.00  0.00     0.230 HD
ENDBRANCH  15  17
ENDBRANCH   3  15
TORSDOF 4
ENDMDL
MODEL 4
REMARK VINA RESULT:      -5.5     14.525     15.737
REMARK  4 active torsions:
REMARK  status: ('A' for Active; 'I' for Inactive)
REMARK    1  A    between atoms: C_2  and  C_7 
REMARK    2  A    between atoms: C_3  and  S_14 
REMARK    3  A    between atoms: C_12  and  O_13 
REMARK    4  A    between atoms: S_14  and  O_16 
ROOT
HETATM    1  C   UNK N   1      30.607  16.037   6.016  0.00  0.00     0.014 A 
HETATM    2  C   UNK N   1      30.696  16.741   7.231  0.00  0.00    -0.002 A 
HETATM    3  C   UNK N   1      29.468  17.235   7.802  0.00  0.00     0.070 A 
HETATM    4  C   UNK N   1      28.260  17.009   7.118  0.00  0.00     0.024 A 
HETATM    5  C   UNK N   1      28.219  16.305   5.920  0.00  0.00     0.002 A 
HETATM    6  C   UNK N   1      29.395  15.817   5.369  0.00  0.00     0.001 A 
ENDROOT
BRANCH   2   7
HETATM    7  C   UNK N   1      32.076  16.917   7.850  0.00  0.00     0.009 A 
HETATM    8  C   UNK N   1      32.930  17.940   7.407  0.00  0.00     0.015 A 
HETATM    9  C   UNK N   1      34.190  18.145   7.969  0.00  0.00     0.001 A 
HETATM   10  C   UNK N   1      34.636  17.321   8.996  0.00  0.00     0.003 A 
HETATM   11  C   UNK N   1      33.823  16.288   9.454  0.00  0.00     0.037 A 
HETATM   12  C   UNK N   1      32.555  16.075   8.900  0.00  0.00     0.076 A 
BRANCH  12  13
HETATM   13  O   UNK N   1      31.822  15.059   9.385  0.00  0.00    -0.360 OA
HETATM   14  H   UNK N   1      31.019  14.820   8.968  0.00  0.00     0.217 HD
ENDBRANCH  12  13
ENDBRANCH   2   7
BRANCH   3  15
HETATM   15  S   UNK N   1      29.371  18.194   9.345  0.00  0.00     0.188 S 
HETATM   16  O   UNK N   1      29.391  16.935  10.226  0.00  0.00    -0.223 OA
BRANCH  15  17
HETATM   17  O   UNK N   1      27.652  18.249   9.409  0.00  0.00    -0.302 OA
HETATM   18  H   UNK N   1      27.124  18.807   8.817  0.00  0.00     0.230 HD
ENDBRANCH  15  17
ENDBRANCH   3  15
TORSDOF 4
ENDMDL
MODEL 5
REMARK VINA RESULT:      -5.4     11.310     14.020
REMARK  4 active torsions:
REMARK  status: ('A' for Active; 'I' for Inactive)
REMARK    1  A    between atoms: C_2  and  C_7 
REMARK    2  A    between atoms: C_3  and  S_14 
REMARK    3  A    between atoms: C_12  and  O_13 
REMARK    4  A    between atoms: S_14  and  O_16 
ROOT
HETATM    1  C   UNK N   1      30.055  17.054   5.267  0.00  0.00     0.014 A 
HETATM    2  C   UNK N   1      29.140  17.760   6.071  0.00  0.00    -0.002 A 
HETATM    3  C   UNK N   1      29.412  17.820   7.485  0.00  0.00     0.070 A 
HETATM    4  C   UNK N   1      30.551  17.167   7.988  0.00  0.00     0.024 A 
HETATM    5  C   UNK N   1      31.429  16.483   7.155  0.00  0.00     0.002 A 
HETATM    6  C   UNK N   1      31.180  16.428   5.792  0.00  0.00     0.001 A 
ENDROOT
BRANCH   2   7
HETATM    7  C   UNK N   1      27.946  18.409   5.386  0.00  0.00     0.009 A 
HETATM    8  C   UNK N   1      28.111  19.570   4.614  0.00  0.00     0.015 A 
HETATM    9  C   UNK N   1      27.043  20.175   3.952  0.00  0.00     0.001 A 
HETATM   10  C   UNK N   1      25.767  19.633   4.051  0.00  0.00     0.003 A 
HETATM   11  C   UNK N   1      25.561  18.490   4.817  0.00  0.00     0.037 A 
HETATM   12  C   UNK N   1      26.625  17.872   5.482  0.00  0.00     0.076 A 
BRANCH  12  13
HETATM   13  O   UNK N   1      26.358  16.773   6.208  0.00  0.00    -0.360 OA
HETATM   14  H   UNK N   1      26.011  16.856   7.073  0.00  0.00     0.217 HD
ENDBRANCH  12  13
ENDBRANCH   2   7
BRANCH   3  15
HETATM   15  S   UNK N   1      28.342  18.653   8.698  0.00  0.00     0.188 S 
HETATM   16  O   UNK N   1      29.313  18.391   9.860  0.00  0.00    -0.223 OA
BRANCH  15  17
HETATM   17  O   UNK N   1      27.424  17.257   9.110  0.00  0.00    -0.302 OA
HETATM   18  H   UNK N   1      27.086  16.638   8.444  0.00  0.00     0.230 HD
ENDBRANCH  15  17
ENDBRANCH   3  15
TORSDOF 4
ENDMDL
MODEL 6
REMARK VINA RESULT:      -5.4     17.143     19.225
REMARK  4 active torsions:
REMARK  status: ('A' for Active; 'I' for Inactive)
REMARK    1  A    between atoms: C_2  and  C_7 
REMARK    2  A    between atoms: C_3  and  S_14 
REMARK    3  A    between atoms: C_12  and  O_13 
REMARK    4  A    between atoms: S_14  and  O_16 
ROOT
HETATM    1  C   UNK N   1      20.369  13.003  10.604  0.00  0.00     0.014 A 
HETATM    2  C   UNK N   1      21.368  13.440   9.713  0.00  0.00    -0.002 A 
HETATM    3  C   UNK N   1      22.717  13.002   9.966  0.00  0.00     0.070 A 
HETATM    4  C   UNK N   1      22.971  12.185  11.082  0.00  0.00     0.024 A 
HETATM    5  C   UNK N   1      21.951  11.776  11.935  0.00  0.00     0.002 A 
HETATM    6  C   UNK N   1      20.648  12.185  11.693  0.00  0.00     0.001 A 
ENDROOT
BRANCH   2   7
HETATM    7  C   UNK N   1      20.945  14.330   8.553  0.00  0.00     0.009 A 
HETATM    8  C   UNK N   1      20.819  15.717   8.728  0.00  0.00     0.015 A 
HETATM    9  C   UNK N   1      20.458  16.565   7.681  0.00  0.00     0.001 A 
HETATM   10  C   UNK N   1      20.205  16.040   6.418  0.00  0.00     0.003 A 
HETATM   11  C   UNK N   1      20.307  14.669   6.208  0.00  0.00     0.037 A 
HETATM   12  C   UNK N   1      20.672  13.809   7.250  0.00  0.00     0.076 A 
BRANCH  12  13
HETATM   13  O   UNK N   1      20.749  12.495   6.982  0.00  0.00    -0.360 OA
HETATM   14  H   UNK N   1      20.750  12.197   6.094  0.00  0.00     0.217 HD
ENDBRANCH  12  13
ENDBRANCH   2   7
BRANCH   3  15
HETATM   15  S   UNK N   1      24.154  13.478   8.956  0.00  0.00     0.188 S 
HETATM   16  O   UNK N   1      24.478  12.024   8.581  0.00  0.00    -0.223 OA
BRANCH  15  17
HETATM   17  O   UNK N   1      25.296  13.435  10.242  0.00  0.00    -0.302 OA
HETATM   18  H   UNK N   1      26.191  13.799  10.159  0.00  0.00     0.230 HD
ENDBRANCH  15  17
ENDBRANCH   3  15
TORSDOF 4
ENDMDL
MODEL 7
REMARK VINA RESULT:      -5.4      2.819      5.190
REMARK  4 active torsions:
REMARK  status: ('A' for Active; 'I' for Inactive)
REMARK    1  A    between atoms: C_2  and  C_7 
REMARK    2  A    between atoms: C_3  and  S_14 
REMARK    3  A    between atoms: C_12  and  O_13 
REMARK    4  A    between atoms: S_14  and  O_16 
ROOT
HETATM    1  C   UNK N   1      28.489  22.894  -6.147  0.00  0.00     0.014 A 
HETATM    2  C   UNK N   1      28.845  23.534  -4.944  0.00  0.00    -0.002 A 
HETATM    3  C   UNK N   1      29.839  22.890  -4.122  0.00  0.00     0.070 A 
HETATM    4  C   UNK N   1      30.384  21.665  -4.546  0.00  0.00     0.024 A 
HETATM    5  C   UNK N   1      30.003  21.071  -5.743  0.00  0.00     0.002 A 
HETATM    6  C   UNK N   1      29.055  21.688  -6.545  0.00  0.00     0.001 A 
ENDROOT
BRANCH   2   7
HETATM    7  C   UNK N   1      28.163  24.853  -4.613  0.00  0.00     0.009 A 
HETATM    8  C   UNK N   1      28.569  26.042  -5.238  0.00  0.00     0.015 A 
HETATM    9  C   UNK N   1      27.949  27.264  -4.977  0.00  0.00     0.001 A 
HETATM   10  C   UNK N   1      26.898  27.330  -4.069  0.00  0.00     0.003 A 
HETATM   11  C   UNK N   1      26.474  26.174  -3.420  0.00  0.00     0.037 A 
HETATM   12  C   UNK N   1      27.086  24.942  -3.677  0.00  0.00     0.076 A 
BRANCH  12  13
HETATM   13  O   UNK N   1      26.631  23.865  -3.014  0.00  0.00    -0.360 OA
HETATM   14  H   UNK N   1      26.873  23.729  -2.120  0.00  0.00     0.217 HD
ENDBRANCH  12  13
ENDBRANCH   2   7
BRANCH   3  15
HETATM   15  S   UNK N   1      30.414  23.534  -2.521  0.00  0.00     0.188 S 
HETATM   16  O   UNK N   1      31.244  22.276  -2.219  0.00  0.00    -0.223 OA
BRANCH  15  17
HETATM   17  O   UNK N   1      29.094  22.921  -1.601  0.00  0.00    -0.302 OA
HETATM   18  H   UNK N   1      29.076  22.947  -0.632  0.00  0.00     0.230 HD
ENDBRANCH  15  17
ENDBRANCH   3  15
TORSDOF 4
ENDMDL
MODEL 8
REMARK VINA RESULT:      -5.4      2.842      4.618
REMARK  4 active torsions:
REMARK  status: ('A' for Active; 'I' for Inactive)
REMARK    1  A    between atoms: C_2  and  C_7 
REMARK    2  A    between atoms: C_3  and  S_14 
REMARK    3  A    between atoms: C_12  and  O_13 
REMARK    4  A    between atoms: S_14  and  O_16 
ROOT
HETATM    1  C   UNK N   1      25.870  26.592  -7.323  0.00  0.00     0.014 A 
HETATM    2  C   UNK N   1      26.581  26.673  -6.110  0.00  0.00    -0.002 A 
HETATM    3  C   UNK N   1      27.012  25.435  -5.511  0.00  0.00     0.070 A 
HETATM    4  C   UNK N   1      26.692  24.223  -6.148  0.00  0.00     0.024 A 
HETATM    5  C   UNK N   1      25.989  24.191  -7.347  0.00  0.00     0.002 A 
HETATM    6  C   UNK N   1      25.579  25.378  -7.936  0.00  0.00     0.001 A 
ENDROOT
BRANCH   2   7
HETATM    7  C   UNK N   1      26.845  28.057  -5.534  0.00  0.00     0.009 A 
HETATM    8  C   UNK N   1      27.791  28.908  -6.128  0.00  0.00     0.015 A 
HETATM    9  C   UNK N   1      28.039  30.191  -5.641  0.00  0.00     0.001 A 
HETATM   10  C   UNK N   1      27.344  30.660  -4.532  0.00  0.00     0.003 A 
HETATM   11  C   UNK N   1      26.408  29.842  -3.908  0.00  0.00     0.037 A 
HETATM   12  C   UNK N   1      26.147  28.555  -4.390  0.00  0.00     0.076 A 
BRANCH  12  13
HETATM   13  O   UNK N   1      25.233  27.814  -3.739  0.00  0.00    -0.360 OA
HETATM   14  H   UNK N   1      24.580  27.348  -4.221  0.00  0.00     0.217 HD
ENDBRANCH  12  13
ENDBRANCH   2   7
BRANCH   3  15
HETATM   15  S   UNK N   1      27.912  25.321  -3.935  0.00  0.00     0.188 S 
HETATM   16  O   UNK N   1      27.997  23.788  -3.999  0.00  0.00    -0.223 OA
BRANCH  15  17
HETATM   17  O   UNK N   1      26.512  25.233  -2.938  0.00  0.00    -0.302 OA
HETATM   18  H   UNK N   1      25.643  24.970  -3.280  0.00  0.00     0.230 HD
ENDBRANCH  15  17
ENDBRANCH   3  15
TORSDOF 4
ENDMDL
MODEL 9
REMARK VINA RESULT:      -5.3     11.276     13.244
REMARK  4 active torsions:
REMARK  status: ('A' for Active; 'I' for Inactive)
REMARK    1  A    between atoms: C_2  and  C_7 
REMARK    2  A    between atoms: C_3  and  S_14 
REMARK    3  A    between atoms: C_12  and  O_13 
REMARK    4  A    between atoms: S_14  and  O_16 
ROOT
HETATM    1  C   UNK N   1      27.702  20.263   6.323  0.00  0.00     0.014 A 
HETATM    2  C   UNK N   1      27.702  18.855   6.343  0.00  0.00    -0.002 A 
HETATM    3  C   UNK N   1      26.744  18.181   5.503  0.00  0.00     0.070 A 
HETATM    4  C   UNK N   1      25.857  18.950   4.729  0.00  0.00     0.024 A 
HETATM    5  C   UNK N   1      25.894  20.339   4.739  0.00  0.00     0.002 A 
HETATM    6  C   UNK N   1      26.819  20.996   5.536  0.00  0.00     0.001 A 
ENDROOT
BRANCH   2   7
HETATM    7  C   UNK N   1      28.716  18.159   7.239  0.00  0.00     0.009 A 
HETATM    8  C   UNK N   1      29.908  17.646   6.703  0.00  0.00     0.015 A 
HETATM    9  C   UNK N   1      30.870  17.025   7.500  0.00  0.00     0.001 A 
HETATM   10  C   UNK N   1      30.660  16.894   8.868  0.00  0.00     0.003 A 
HETATM   11  C   UNK N   1      29.485  17.379   9.435  0.00  0.00     0.037 A 
HETATM   12  C   UNK N   1      28.515  18.007   8.646  0.00  0.00     0.076 A 
BRANCH  12  13
HETATM   13  O   UNK N   1      27.401  18.450   9.255  0.00  0.00    -0.360 OA
HETATM   14  H   UNK N   1      27.041  19.282   9.025  0.00  0.00     0.217 HD
ENDBRANCH  12  13
ENDBRANCH   2   7
BRANCH   3  15
HETATM   15  S   UNK N   1      26.560  16.373   5.409  0.00  0.00     0.188 S 
HETATM   16  O   UNK N   1      25.802  16.437   4.073  0.00  0.00    -0.223 OA
BRANCH  15  17
HETATM   17  O   UNK N   1      25.079  16.301   6.282  0.00  0.00    -0.302 OA
HETATM   18  H   UNK N   1      24.949  16.756   7.129  0.00  0.00     0.230 HD
ENDBRANCH  15  17
ENDBRANCH   3  15
TORSDOF 4
ENDMDL
