MODEL 1
REMARK VINA RESULT:      -7.0      0.000      0.000
REMARK  10 active torsions:
REMARK  status: ('A' for Active; 'I' for Inactive)
REMARK    1  A    between atoms: C_3  and  O_4 
REMARK    2  A    between atoms: C_7  and  C_8 
REMARK    3  A    between atoms: C_11  and  C_12 
REMARK    4  A    between atoms: C_12  and  O_14 
REMARK    5  A    between atoms: O_14  and  C_15 
REMARK    6  A    between atoms: C_17  and  C_18 
REMARK    7  A    between atoms: C_18  and  O_20 
REMARK    8  A    between atoms: O_20  and  C_21 
REMARK    9  A    between atoms: C_24  and  C_25 
REMARK   10  A    between atoms: C_28  and  O_29 
ROOT
HETATM    1  C   UNK N   1      33.569  16.425   7.640  0.00  0.00    -0.009 C 
HETATM    2  C   UNK N   1      34.564  16.523   6.517  0.00  0.00     0.171 C 
HETATM    3  O   UNK N   1      34.162  17.796   6.107  0.00  0.00    -0.369 OA
HETATM    4  C   UNK N   1      34.357  15.765   5.161  0.00  0.00     0.135 C 
HETATM    5  C   UNK N   1      33.207  16.603   4.537  0.00  0.00     0.135 C 
HETATM    6  C   UNK N   1      32.807  17.483   5.750  0.00  0.00     0.171 C 
HETATM    7  C   UNK N   1      32.459  17.009   7.159  0.00  0.00    -0.009 C 
ENDROOT
BRANCH   1   8
HETATM    8  C   UNK N   1      33.965  16.144   9.071  0.00  0.00    -0.026 A 
HETATM    9  C   UNK N   1      33.571  14.934   9.673  0.00  0.00     0.015 A 
HETATM   10  C   UNK N   1      34.125  14.523  10.894  0.00  0.00     0.037 A 
HETATM   11  C   UNK N   1      35.096  15.306  11.521  0.00  0.00     0.065 A 
HETATM   12  C   UNK N   1      35.483  16.515  10.950  0.00  0.00     0.037 A 
HETATM   13  C   UNK N   1      34.926  16.917   9.734  0.00  0.00     0.015 A 
BRANCH  11  14
HETATM   14  O   UNK N   1      35.665  14.892  12.667  0.00  0.00    -0.361 OA
HETATM   15  H   UNK N   1      36.578  15.029  12.821  0.00  0.00     0.217 HD
ENDBRANCH  11  14
ENDBRANCH   1   8
BRANCH   7  16
HETATM   16  C   UNK N   1      31.139  17.426   7.802  0.00  0.00    -0.026 A 
HETATM   17  C   UNK N   1      29.959  16.915   7.230  0.00  0.00     0.015 A 
HETATM   18  C   UNK N   1      28.704  17.238   7.744  0.00  0.00     0.037 A 
HETATM   19  C   UNK N   1      28.605  18.079   8.849  0.00  0.00     0.065 A 
HETATM   20  C   UNK N   1      29.763  18.580   9.448  0.00  0.00     0.037 A 
HETATM   21  C   UNK N   1      31.021  18.245   8.931  0.00  0.00     0.015 A 
BRANCH  19  22
HETATM   22  O   UNK N   1      27.396  18.405   9.336  0.00  0.00    -0.361 OA
HETATM   23  H   UNK N   1      26.759  17.740   9.508  0.00  0.00     0.217 HD
ENDBRANCH  19  22
ENDBRANCH   7  16
BRANCH   4  24
HETATM   24  C   UNK N   1      34.296  14.255   5.089  0.00  0.00     0.266 C 
HETATM   25  O   UNK N   1      34.607  13.680   4.056  0.00  0.00    -0.265 OA
BRANCH  24  26
HETATM   26  O   UNK N   1      33.788  13.526   6.126  0.00  0.00    -0.321 OA
BRANCH  26  27
HETATM   27  C   UNK N   1      34.482  12.502   6.746  0.00  0.00     0.174 C 
HETATM   28  C   UNK N   1      35.730  13.025   7.426  0.00  0.00     0.034 C 
ENDBRANCH  26  27
ENDBRANCH  24  26
ENDBRANCH   4  24
BRANCH   5  29
HETATM   29  C   UNK N   1      32.091  16.089   3.607  0.00  0.00     0.266 C 
HETATM   30  O   UNK N   1      32.404  15.754   2.471  0.00  0.00    -0.265 OA
BRANCH  29  31
HETATM   31  O   UNK N   1      30.797  15.999   4.002  0.00  0.00    -0.321 OA
BRANCH  31  32
HETATM   32  C   UNK N   1      30.093  14.809   3.970  0.00  0.00     0.174 C 
HETATM   33  C   UNK N   1      30.466  13.920   5.150  0.00  0.00     0.034 C 
ENDBRANCH  31  32
ENDBRANCH  29  31
ENDBRANCH   5  29
TORSDOF 10
ENDMDL
MODEL 2
REMARK VINA RESULT:      -6.8     13.616     17.033
REMARK  10 active torsions:
REMARK  status: ('A' for Active; 'I' for Inactive)
REMARK    1  A    between atoms: C_3  and  O_4 
REMARK    2  A    between atoms: C_7  and  C_8 
REMARK    3  A    between atoms: C_11  and  C_12 
REMARK    4  A    between atoms: C_12  and  O_14 
REMARK    5  A    between atoms: O_14  and  C_15 
REMARK    6  A    between atoms: C_17  and  C_18 
REMARK    7  A    between atoms: C_18  and  O_20 
REMARK    8  A    between atoms: O_20  and  C_21 
REMARK    9  A    between atoms: C_24  and  C_25 
REMARK   10  A    between atoms: C_28  and  O_29 
ROOT
HETATM    1  C   UNK N   1      28.029  23.757  -4.757  0.00  0.00    -0.009 C 
HETATM    2  C   UNK N   1      27.627  24.620  -3.594  0.00  0.00     0.171 C 
HETATM    3  O   UNK N   1      26.307  24.166  -3.554  0.00  0.00    -0.369 OA
HETATM    4  C   UNK N   1      27.343  26.152  -3.762  0.00  0.00     0.135 C 
HETATM    5  C   UNK N   1      25.982  26.111  -4.511  0.00  0.00     0.135 C 
HETATM    6  C   UNK N   1      25.896  24.602  -4.859  0.00  0.00     0.171 C 
HETATM    7  C   UNK N   1      26.954  23.755  -5.564  0.00  0.00    -0.009 C 
ENDROOT
BRANCH   1   8
HETATM    8  C   UNK N   1      29.195  22.798  -4.709  0.00  0.00    -0.026 A 
HETATM    9  C   UNK N   1      29.830  22.542  -3.479  0.00  0.00     0.015 A 
HETATM   10  C   UNK N   1      30.737  21.480  -3.343  0.00  0.00     0.037 A 
HETATM   11  C   UNK N   1      31.006  20.645  -4.430  0.00  0.00     0.065 A 
HETATM   12  C   UNK N   1      30.402  20.896  -5.659  0.00  0.00     0.037 A 
HETATM   13  C   UNK N   1      29.501  21.955  -5.785  0.00  0.00     0.015 A 
BRANCH  11  14
HETATM   14  O   UNK N   1      31.835  19.597  -4.291  0.00  0.00    -0.361 OA
HETATM   15  H   UNK N   1      31.805  18.882  -4.895  0.00  0.00     0.217 HD
ENDBRANCH  11  14
ENDBRANCH   1   8
BRANCH   7  16
HETATM   16  C   UNK N   1      26.588  22.953  -6.810  0.00  0.00    -0.026 A 
HETATM   17  C   UNK N   1      25.376  22.237  -6.777  0.00  0.00     0.015 A 
HETATM   18  C   UNK N   1      24.954  21.475  -7.865  0.00  0.00     0.037 A 
HETATM   19  C   UNK N   1      25.737  21.416  -9.014  0.00  0.00     0.065 A 
HETATM   20  C   UNK N   1      26.932  22.137  -9.079  0.00  0.00     0.037 A 
HETATM   21  C   UNK N   1      27.347  22.907  -7.986  0.00  0.00     0.015 A 
BRANCH  19  22
HETATM   22  O   UNK N   1      25.341  20.669 -10.057  0.00  0.00    -0.361 OA
HETATM   23  H   UNK N   1      25.916  20.522 -10.781  0.00  0.00     0.217 HD
ENDBRANCH  19  22
ENDBRANCH   7  16
BRANCH   4  24
HETATM   24  C   UNK N   1      28.411  27.120  -4.221  0.00  0.00     0.266 C 
HETATM   25  O   UNK N   1      29.291  26.743  -4.980  0.00  0.00    -0.265 OA
BRANCH  24  26
HETATM   26  O   UNK N   1      28.475  28.383  -3.708  0.00  0.00    -0.321 OA
BRANCH  26  27
HETATM   27  C   UNK N   1      27.543  28.890  -2.818  0.00  0.00     0.174 C 
HETATM   28  C   UNK N   1      26.645  29.905  -3.492  0.00  0.00     0.034 C 
ENDBRANCH  26  27
ENDBRANCH  24  26
ENDBRANCH   4  24
BRANCH   5  29
HETATM   29  C   UNK N   1      25.467  27.130  -5.547  0.00  0.00     0.266 C 
HETATM   30  O   UNK N   1      24.287  27.455  -5.489  0.00  0.00    -0.265 OA
BRANCH  29  31
HETATM   31  O   UNK N   1      26.266  27.665  -6.502  0.00  0.00    -0.321 OA
BRANCH  31  32
HETATM   32  C   UNK N   1      26.852  26.900  -7.493  0.00  0.00     0.174 C 
HETATM   33  C   UNK N   1      25.796  26.214  -8.353  0.00  0.00     0.034 C 
ENDBRANCH  31  32
ENDBRANCH  29  31
ENDBRANCH   5  29
TORSDOF 10
ENDMDL
MODEL 3
REMARK VINA RESULT:      -6.7     13.980     17.308
REMARK  10 active torsions:
REMARK  status: ('A' for Active; 'I' for Inactive)
REMARK    1  A    between atoms: C_3  and  O_4 
REMARK    2  A    between atoms: C_7  and  C_8 
REMARK    3  A    between atoms: C_11  and  C_12 
REMARK    4  A    between atoms: C_12  and  O_14 
REMARK    5  A    between atoms: O_14  and  C_15 
REMARK    6  A    between atoms: C_17  and  C_18 
REMARK    7  A    between atoms: C_18  and  O_20 
REMARK    8  A    between atoms: O_20  and  C_21 
REMARK    9  A    between atoms: C_24  and  C_25 
REMARK   10  A    between atoms: C_28  and  O_29 
ROOT
HETATM    1  C   UNK N   1      26.798  25.676  -5.140  0.00  0.00    -0.009 C 
HETATM    2  C   UNK N   1      25.581  25.511  -6.007  0.00  0.00     0.171 C 
HETATM    3  O   UNK N   1      25.203  24.284  -5.459  0.00  0.00    -0.369 OA
HETATM    4  C   UNK N   1      25.689  25.074  -7.508  0.00  0.00     0.135 C 
HETATM    5  C   UNK N   1      26.070  23.576  -7.343  0.00  0.00     0.135 C 
HETATM    6  C   UNK N   1      26.368  23.525  -5.823  0.00  0.00     0.171 C 
HETATM    7  C   UNK N   1      27.307  24.436  -5.034  0.00  0.00    -0.009 C 
ENDROOT
BRANCH   1   8
HETATM    8  C   UNK N   1      27.035  26.888  -4.271  0.00  0.00    -0.026 A 
HETATM    9  C   UNK N   1      28.353  27.278  -3.972  0.00  0.00     0.015 A 
HETATM   10  C   UNK N   1      28.623  28.527  -3.393  0.00  0.00     0.037 A 
HETATM   11  C   UNK N   1      27.577  29.413  -3.123  0.00  0.00     0.065 A 
HETATM   12  C   UNK N   1      26.265  29.037  -3.394  0.00  0.00     0.037 A 
HETATM   13  C   UNK N   1      26.007  27.791  -3.971  0.00  0.00     0.015 A 
BRANCH  11  14
HETATM   14  O   UNK N   1      27.834  30.631  -2.614  0.00  0.00    -0.361 OA
HETATM   15  H   UNK N   1      28.715  30.942  -2.545  0.00  0.00     0.217 HD
ENDBRANCH  11  14
ENDBRANCH   1   8
BRANCH   7  16
HETATM   16  C   UNK N   1      28.411  23.833  -4.170  0.00  0.00    -0.026 A 
HETATM   17  C   UNK N   1      29.626  23.522  -4.808  0.00  0.00     0.015 A 
HETATM   18  C   UNK N   1      30.694  22.967  -4.105  0.00  0.00     0.037 A 
HETATM   19  C   UNK N   1      30.568  22.715  -2.742  0.00  0.00     0.065 A 
HETATM   20  C   UNK N   1      29.380  23.037  -2.082  0.00  0.00     0.037 A 
HETATM   21  C   UNK N   1      28.314  23.601  -2.792  0.00  0.00     0.015 A 
BRANCH  19  22
HETATM   22  O   UNK N   1      31.590  22.165  -2.066  0.00  0.00    -0.361 OA
HETATM   23  H   UNK N   1      31.441  21.738  -1.246  0.00  0.00     0.217 HD
ENDBRANCH  19  22
ENDBRANCH   7  16
BRANCH   4  24
HETATM   24  C   UNK N   1      26.414  25.914  -8.537  0.00  0.00     0.266 C 
HETATM   25  O   UNK N   1      25.840  26.256  -9.560  0.00  0.00    -0.265 OA
BRANCH  24  26
HETATM   26  O   UNK N   1      27.741  26.201  -8.394  0.00  0.00    -0.321 OA
BRANCH  26  27
HETATM   27  C   UNK N   1      28.281  27.448  -8.659  0.00  0.00     0.174 C 
HETATM   28  C   UNK N   1      28.141  28.365  -7.463  0.00  0.00     0.034 C 
ENDBRANCH  26  27
ENDBRANCH  24  26
ENDBRANCH   4  24
BRANCH   5  29
HETATM   29  C   UNK N   1      26.954  22.740  -8.289  0.00  0.00     0.266 C 
HETATM   30  O   UNK N   1      26.526  22.510  -9.415  0.00  0.00    -0.265 OA
BRANCH  29  31
HETATM   31  O   UNK N   1      28.166  22.259  -7.920  0.00  0.00    -0.321 OA
BRANCH  31  32
HETATM   32  C   UNK N   1      28.489  20.918  -8.004  0.00  0.00     0.174 C 
HETATM   33  C   UNK N   1      29.551  20.545  -6.976  0.00  0.00     0.034 C 
ENDBRANCH  31  32
ENDBRANCH  29  31
ENDBRANCH   5  29
TORSDOF 10
ENDMDL
MODEL 4
REMARK VINA RESULT:      -6.6     10.522     13.664
REMARK  10 active torsions:
REMARK  status: ('A' for Active; 'I' for Inactive)
REMARK    1  A    between atoms: C_3  and  O_4 
REMARK    2  A    between atoms: C_7  and  C_8 
REMARK    3  A    between atoms: C_11  and  C_12 
REMARK    4  A    between atoms: C_12  and  O_14 
REMARK    5  A    between atoms: O_14  and  C_15 
REMARK    6  A    between atoms: C_17  and  C_18 
REMARK    7  A    between atoms: C_18  and  O_20 
REMARK    8  A    between atoms: O_20  and  C_21 
REMARK    9  A    between atoms: C_24  and  C_25 
REMARK   10  A    between atoms: C_28  and  O_29 
ROOT
HETATM    1  C   UNK N   1      21.434  17.127   4.731  0.00  0.00    -0.009 C 
HETATM    2  C   UNK N   1      21.617  17.247   6.218  0.00  0.00     0.171 C 
HETATM    3  O   UNK N   1      22.901  16.699   6.230  0.00  0.00    -0.369 OA
HETATM    4  C   UNK N   1      20.930  16.256   7.219  0.00  0.00     0.135 C 
HETATM    5  C   UNK N   1      21.775  14.974   6.976  0.00  0.00     0.135 C 
HETATM    6  C   UNK N   1      22.577  15.397   5.718  0.00  0.00     0.171 C 
HETATM    7  C   UNK N   1      22.018  15.959   4.413  0.00  0.00    -0.009 C 
ENDROOT
BRANCH   1   8
HETATM    8  C   UNK N   1      21.083  18.298   3.844  0.00  0.00    -0.026 A 
HETATM    9  C   UNK N   1      22.051  19.289   3.592  0.00  0.00     0.015 A 
HETATM   10  C   UNK N   1      21.858  20.245   2.584  0.00  0.00     0.037 A 
HETATM   11  C   UNK N   1      20.703  20.212   1.799  0.00  0.00     0.065 A 
HETATM   12  C   UNK N   1      19.726  19.252   2.049  0.00  0.00     0.037 A 
HETATM   13  C   UNK N   1      19.927  18.304   3.054  0.00  0.00     0.015 A 
BRANCH  11  14
HETATM   14  O   UNK N   1      20.536  21.096   0.800  0.00  0.00    -0.361 OA
HETATM   15  H   UNK N   1      19.852  21.734   0.838  0.00  0.00     0.217 HD
ENDBRANCH  11  14
ENDBRANCH   1   8
BRANCH   7  16
HETATM   16  C   UNK N   1      22.368  15.297   3.083  0.00  0.00    -0.026 A 
HETATM   17  C   UNK N   1      23.728  15.028   2.840  0.00  0.00     0.015 A 
HETATM   18  C   UNK N   1      24.149  14.427   1.655  0.00  0.00     0.037 A 
HETATM   19  C   UNK N   1      23.212  14.078   0.686  0.00  0.00     0.065 A 
HETATM   20  C   UNK N   1      21.855  14.315   0.914  0.00  0.00     0.037 A 
HETATM   21  C   UNK N   1      21.438  14.912   2.110  0.00  0.00     0.015 A 
BRANCH  19  22
HETATM   22  O   UNK N   1      23.618  13.514  -0.464  0.00  0.00    -0.361 OA
HETATM   23  H   UNK N   1      23.609  14.005  -1.261  0.00  0.00     0.217 HD
ENDBRANCH  19  22
ENDBRANCH   7  16
BRANCH   4  24
HETATM   24  C   UNK N   1      19.425  16.141   7.327  0.00  0.00     0.266 C 
HETATM   25  O   UNK N   1      18.744  16.067   6.316  0.00  0.00    -0.265 OA
BRANCH  24  26
HETATM   26  O   UNK N   1      18.804  16.235   8.540  0.00  0.00    -0.321 OA
BRANCH  26  27
HETATM   27  C   UNK N   1      18.421  17.439   9.105  0.00  0.00     0.174 C 
HETATM   28  C   UNK N   1      16.943  17.437   9.437  0.00  0.00     0.034 C 
ENDBRANCH  26  27
ENDBRANCH  24  26
ENDBRANCH   4  24
BRANCH   5  29
HETATM   29  C   UNK N   1      21.287  13.515   7.076  0.00  0.00     0.266 C 
HETATM   30  O   UNK N   1      20.587  13.085   6.167  0.00  0.00    -0.265 OA
BRANCH  29  31
HETATM   31  O   UNK N   1      21.603  12.711   8.120  0.00  0.00    -0.321 OA
BRANCH  31  32
HETATM   32  C   UNK N   1      21.849  13.203   9.389  0.00  0.00     0.174 C 
HETATM   33  C   UNK N   1      20.546  13.532  10.109  0.00  0.00     0.034 C 
ENDBRANCH  31  32
ENDBRANCH  29  31
ENDBRANCH   5  29
TORSDOF 10
ENDMDL
MODEL 5
REMARK VINA RESULT:      -6.3      1.915      2.944
REMARK  10 active torsions:
REMARK  status: ('A' for Active; 'I' for Inactive)
REMARK    1  A    between atoms: C_3  and  O_4 
REMARK    2  A    between atoms: C_7  and  C_8 
REMARK    3  A    between atoms: C_11  and  C_12 
REMARK    4  A    between atoms: C_12  and  O_14 
REMARK    5  A    between atoms: O_14  and  C_15 
REMARK    6  A    between atoms: C_17  and  C_18 
REMARK    7  A    between atoms: C_18  and  O_20 
REMARK    8  A    between atoms: O_20  and  C_21 
REMARK    9  A    between atoms: C_24  and  C_25 
REMARK   10  A    between atoms: C_28  and  O_29 
ROOT
HETATM    1  C   UNK N   1      32.543  16.571   5.665  0.00  0.00    -0.009 C 
HETATM    2  C   UNK N   1      32.941  16.491   4.217  0.00  0.00     0.171 C 
HETATM    3  O   UNK N   1      32.105  17.530   3.802  0.00  0.00    -0.369 OA
HETATM    4  C   UNK N   1      32.400  15.364   3.273  0.00  0.00     0.135 C 
HETATM    5  C   UNK N   1      30.927  15.824   3.091  0.00  0.00     0.135 C 
HETATM    6  C   UNK N   1      30.846  16.942   4.163  0.00  0.00     0.171 C 
HETATM    7  C   UNK N   1      31.226  16.836   5.639  0.00  0.00    -0.009 C 
ENDROOT
BRANCH   1   8
HETATM    8  C   UNK N   1      33.538  16.759   6.786  0.00  0.00    -0.026 A 
HETATM    9  C   UNK N   1      33.898  18.061   7.181  0.00  0.00     0.015 A 
HETATM   10  C   UNK N   1      34.610  18.283   8.369  0.00  0.00     0.037 A 
HETATM   11  C   UNK N   1      34.955  17.207   9.190  0.00  0.00     0.065 A 
HETATM   12  C   UNK N   1      34.624  15.911   8.805  0.00  0.00     0.037 A 
HETATM   13  C   UNK N   1      33.915  15.699   7.621  0.00  0.00     0.015 A 
BRANCH  11  14
HETATM   14  O   UNK N   1      35.594  17.419  10.353  0.00  0.00    -0.361 OA
HETATM   15  H   UNK N   1      35.287  17.023  11.144  0.00  0.00     0.217 HD
ENDBRANCH  11  14
ENDBRANCH   1   8
BRANCH   7  16
HETATM   16  C   UNK N   1      30.220  17.226   6.718  0.00  0.00    -0.026 A 
HETATM   17  C   UNK N   1      28.997  17.773   6.286  0.00  0.00     0.015 A 
HETATM   18  C   UNK N   1      28.014  18.162   7.194  0.00  0.00     0.037 A 
HETATM   19  C   UNK N   1      28.233  18.005   8.560  0.00  0.00     0.065 A 
HETATM   20  C   UNK N   1      29.430  17.444   9.012  0.00  0.00     0.037 A 
HETATM   21  C   UNK N   1      30.410  17.048   8.094  0.00  0.00     0.015 A 
BRANCH  19  22
HETATM   22  O   UNK N   1      27.294  18.394   9.437  0.00  0.00    -0.361 OA
HETATM   23  H   UNK N   1      26.456  17.976   9.452  0.00  0.00     0.217 HD
ENDBRANCH  19  22
ENDBRANCH   7  16
BRANCH   4  24
HETATM   24  C   UNK N   1      32.693  13.900   3.522  0.00  0.00     0.266 C 
HETATM   25  O   UNK N   1      32.297  13.365   4.547  0.00  0.00    -0.265 OA
BRANCH  24  26
HETATM   26  O   UNK N   1      33.494  13.194   2.672  0.00  0.00    -0.321 OA
BRANCH  26  27
HETATM   27  C   UNK N   1      34.866  13.369   2.600  0.00  0.00     0.174 C 
HETATM   28  C   UNK N   1      35.272  13.933   1.255  0.00  0.00     0.034 C 
ENDBRANCH  26  27
ENDBRANCH  24  26
ENDBRANCH   4  24
BRANCH   5  29
HETATM   29  C   UNK N   1      29.697  14.920   2.884  0.00  0.00     0.266 C 
HETATM   30  O   UNK N   1      29.650  14.247   1.861  0.00  0.00    -0.265 OA
BRANCH  29  31
HETATM   31  O   UNK N   1      28.684  14.850   3.782  0.00  0.00    -0.321 OA
BRANCH  31  32
HETATM   32  C   UNK N   1      27.365  15.075   3.432  0.00  0.00     0.174 C 
HETATM   33  C   UNK N   1      27.063  16.568   3.372  0.00  0.00     0.034 C 
ENDBRANCH  31  32
ENDBRANCH  29  31
ENDBRANCH   5  29
TORSDOF 10
ENDMDL
MODEL 6
REMARK VINA RESULT:      -6.3     14.865     18.216
REMARK  10 active torsions:
REMARK  status: ('A' for Active; 'I' for Inactive)
REMARK    1  A    between atoms: C_3  and  O_4 
REMARK    2  A    between atoms: C_7  and  C_8 
REMARK    3  A    between atoms: C_11  and  C_12 
REMARK    4  A    between atoms: C_12  and  O_14 
REMARK    5  A    between atoms: O_14  and  C_15 
REMARK    6  A    between atoms: C_17  and  C_18 
REMARK    7  A    between atoms: C_18  and  O_20 
REMARK    8  A    between atoms: O_20  and  C_21 
REMARK    9  A    between atoms: C_24  and  C_25 
REMARK   10  A    between atoms: C_28  and  O_29 
ROOT
HETATM    1  C   UNK N   1      26.672  25.660  -6.022  0.00  0.00    -0.009 C 
HETATM    2  C   UNK N   1      25.635  25.347  -7.065  0.00  0.00     0.171 C 
HETATM    3  O   UNK N   1      25.224  24.150  -6.475  0.00  0.00    -0.369 OA
HETATM    4  C   UNK N   1      26.025  24.790  -8.477  0.00  0.00     0.135 C 
HETATM    5  C   UNK N   1      26.440  23.339  -8.108  0.00  0.00     0.135 C 
HETATM    6  C   UNK N   1      26.468  23.437  -6.561  0.00  0.00     0.171 C 
HETATM    7  C   UNK N   1      27.212  24.469  -5.714  0.00  0.00    -0.009 C 
ENDROOT
BRANCH   1   8
HETATM    8  C   UNK N   1      26.697  26.956  -5.246  0.00  0.00    -0.026 A 
HETATM    9  C   UNK N   1      27.273  28.100  -5.828  0.00  0.00     0.015 A 
HETATM   10  C   UNK N   1      27.091  29.369  -5.257  0.00  0.00     0.037 A 
HETATM   11  C   UNK N   1      26.312  29.513  -4.107  0.00  0.00     0.065 A 
HETATM   12  C   UNK N   1      25.751  28.390  -3.507  0.00  0.00     0.037 A 
HETATM   13  C   UNK N   1      25.938  27.131  -4.081  0.00  0.00     0.015 A 
BRANCH  11  14
HETATM   14  O   UNK N   1      26.094  30.733  -3.584  0.00  0.00    -0.361 OA
HETATM   15  H   UNK N   1      26.459  31.495  -3.985  0.00  0.00     0.217 HD
ENDBRANCH  11  14
ENDBRANCH   1   8
BRANCH   7  16
HETATM   16  C   UNK N   1      28.173  24.012  -4.621  0.00  0.00    -0.026 A 
HETATM   17  C   UNK N   1      27.664  23.937  -3.311  0.00  0.00     0.015 A 
HETATM   18  C   UNK N   1      28.464  23.532  -2.243  0.00  0.00     0.037 A 
HETATM   19  C   UNK N   1      29.794  23.187  -2.467  0.00  0.00     0.065 A 
HETATM   20  C   UNK N   1      30.315  23.232  -3.762  0.00  0.00     0.037 A 
HETATM   21  C   UNK N   1      29.505  23.632  -4.831  0.00  0.00     0.015 A 
BRANCH  19  22
HETATM   22  O   UNK N   1      30.570  22.813  -1.437  0.00  0.00    -0.361 OA
HETATM   23  H   UNK N   1      30.655  21.907  -1.212  0.00  0.00     0.217 HD
ENDBRANCH  19  22
ENDBRANCH   7  16
BRANCH   4  24
HETATM   24  C   UNK N   1      26.879  25.582  -9.443  0.00  0.00     0.266 C 
HETATM   25  O   UNK N   1      28.031  25.864  -9.148  0.00  0.00    -0.265 OA
BRANCH  24  26
HETATM   26  O   UNK N   1      26.346  26.087 -10.594  0.00  0.00    -0.321 OA
BRANCH  26  27
HETATM   27  C   UNK N   1      25.217  25.563 -11.201  0.00  0.00     0.174 C 
HETATM   28  C   UNK N   1      24.080  26.563 -11.187  0.00  0.00     0.034 C 
ENDBRANCH  26  27
ENDBRANCH  24  26
ENDBRANCH   4  24
BRANCH   5  29
HETATM   29  C   UNK N   1      27.513  22.480  -8.805  0.00  0.00     0.266 C 
HETATM   30  O   UNK N   1      28.661  22.549  -8.382  0.00  0.00    -0.265 OA
BRANCH  29  31
HETATM   31  O   UNK N   1      27.230  21.669  -9.853  0.00  0.00    -0.321 OA
BRANCH  31  32
HETATM   32  C   UNK N   1      25.937  21.312 -10.188  0.00  0.00     0.174 C 
HETATM   33  C   UNK N   1      25.811  21.047 -11.684  0.00  0.00     0.034 C 
ENDBRANCH  31  32
ENDBRANCH  29  31
ENDBRANCH   5  29
TORSDOF 10
ENDMDL
MODEL 7
REMARK VINA RESULT:      -6.3      8.318     12.874
REMARK  10 active torsions:
REMARK  status: ('A' for Active; 'I' for Inactive)
REMARK    1  A    between atoms: C_3  and  O_4 
REMARK    2  A    between atoms: C_7  and  C_8 
REMARK    3  A    between atoms: C_11  and  C_12 
REMARK    4  A    between atoms: C_12  and  O_14 
REMARK    5  A    between atoms: O_14  and  C_15 
REMARK    6  A    between atoms: C_17  and  C_18 
REMARK    7  A    between atoms: C_18  and  O_20 
REMARK    8  A    between atoms: O_20  and  C_21 
REMARK    9  A    between atoms: C_24  and  C_25 
REMARK   10  A    between atoms: C_28  and  O_29 
ROOT
HETATM    1  C   UNK N   1      21.180  17.426   4.451  0.00  0.00    -0.009 C 
HETATM    2  C   UNK N   1      20.177  17.026   5.498  0.00  0.00     0.171 C 
HETATM    3  O   UNK N   1      20.971  17.408   6.581  0.00  0.00    -0.369 OA
HETATM    4  C   UNK N   1      19.948  15.527   5.892  0.00  0.00     0.135 C 
HETATM    5  C   UNK N   1      21.252  15.238   6.687  0.00  0.00     0.135 C 
HETATM    6  C   UNK N   1      22.072  16.513   6.360  0.00  0.00     0.171 C 
HETATM    7  C   UNK N   1      22.370  17.091   4.978  0.00  0.00    -0.009 C 
ENDROOT
BRANCH   1   8
HETATM    8  C   UNK N   1      20.863  18.385   3.328  0.00  0.00    -0.026 A 
HETATM    9  C   UNK N   1      21.251  19.733   3.439  0.00  0.00     0.015 A 
HETATM   10  C   UNK N   1      21.208  20.590   2.329  0.00  0.00     0.037 A 
HETATM   11  C   UNK N   1      20.796  20.104   1.086  0.00  0.00     0.065 A 
HETATM   12  C   UNK N   1      20.389  18.779   0.962  0.00  0.00     0.037 A 
HETATM   13  C   UNK N   1      20.435  17.933   2.073  0.00  0.00     0.015 A 
BRANCH  11  14
HETATM   14  O   UNK N   1      20.800  20.908   0.008  0.00  0.00    -0.361 OA
HETATM   15  H   UNK N   1      20.271  21.680  -0.012  0.00  0.00     0.217 HD
ENDBRANCH  11  14
ENDBRANCH   1   8
BRANCH   7  16
HETATM   16  C   UNK N   1      23.810  17.371   4.560  0.00  0.00    -0.026 A 
HETATM   17  C   UNK N   1      24.342  18.629   4.900  0.00  0.00     0.015 A 
HETATM   18  C   UNK N   1      25.648  18.981   4.562  0.00  0.00     0.037 A 
HETATM   19  C   UNK N   1      26.453  18.074   3.877  0.00  0.00     0.065 A 
HETATM   20  C   UNK N   1      25.955  16.811   3.550  0.00  0.00     0.037 A 
HETATM   21  C   UNK N   1      24.645  16.461   3.899  0.00  0.00     0.015 A 
BRANCH  19  22
HETATM   22  O   UNK N   1      27.706  18.417   3.536  0.00  0.00    -0.361 OA
HETATM   23  H   UNK N   1      28.439  17.991   3.934  0.00  0.00     0.217 HD
ENDBRANCH  19  22
ENDBRANCH   7  16
BRANCH   4  24
HETATM   24  C   UNK N   1      19.445  14.504   4.897  0.00  0.00     0.266 C 
HETATM   25  O   UNK N   1      18.274  14.156   4.919  0.00  0.00    -0.265 OA
BRANCH  24  26
HETATM   26  O   UNK N   1      20.308  13.876   4.046  0.00  0.00    -0.321 OA
BRANCH  26  27
HETATM   27  C   UNK N   1      20.450  14.226   2.714  0.00  0.00     0.174 C 
HETATM   28  C   UNK N   1      21.907  14.438   2.361  0.00  0.00     0.034 C 
ENDBRANCH  26  27
ENDBRANCH  24  26
ENDBRANCH   4  24
BRANCH   5  29
HETATM   29  C   UNK N   1      21.999  13.892   6.776  0.00  0.00     0.266 C 
HETATM   30  O   UNK N   1      23.018  13.760   6.107  0.00  0.00    -0.265 OA
BRANCH  29  31
HETATM   31  O   UNK N   1      21.570  12.870   7.555  0.00  0.00    -0.321 OA
BRANCH  31  32
HETATM   32  C   UNK N   1      22.086  12.631   8.815  0.00  0.00     0.174 C 
HETATM   33  C   UNK N   1      21.118  13.089   9.900  0.00  0.00     0.034 C 
ENDBRANCH  31  32
ENDBRANCH  29  31
ENDBRANCH   5  29
TORSDOF 10
ENDMDL
MODEL 8
REMARK VINA RESULT:      -6.2     10.694     13.184
REMARK  10 active torsions:
REMARK  status: ('A' for Active; 'I' for Inactive)
REMARK    1  A    between atoms: C_3  and  O_4 
REMARK    2  A    between atoms: C_7  and  C_8 
REMARK    3  A    between atoms: C_11  and  C_12 
REMARK    4  A    between atoms: C_12  and  O_14 
REMARK    5  A    between atoms: O_14  and  C_15 
REMARK    6  A    between atoms: C_17  and  C_18 
REMARK    7  A    between atoms: C_18  and  O_20 
REMARK    8  A    between atoms: O_20  and  C_21 
REMARK    9  A    between atoms: C_24  and  C_25 
REMARK   10  A    between atoms: C_28  and  O_29 
ROOT
HETATM    1  C   UNK N   1      21.528  13.555   5.715  0.00  0.00    -0.009 C 
HETATM    2  C   UNK N   1      21.924  14.677   4.795  0.00  0.00     0.171 C 
HETATM    3  O   UNK N   1      23.071  15.024   5.512  0.00  0.00    -0.369 OA
HETATM    4  C   UNK N   1      21.199  16.065   4.826  0.00  0.00     0.135 C 
HETATM    5  C   UNK N   1      21.746  16.645   6.161  0.00  0.00     0.135 C 
HETATM    6  C   UNK N   1      22.441  15.390   6.750  0.00  0.00     0.171 C 
HETATM    7  C   UNK N   1      21.833  14.003   6.945  0.00  0.00    -0.009 C 
ENDROOT
BRANCH   1   8
HETATM    8  C   UNK N   1      21.293  12.141   5.238  0.00  0.00    -0.026 A 
HETATM    9  C   UNK N   1      22.390  11.354   4.839  0.00  0.00     0.015 A 
HETATM   10  C   UNK N   1      22.251   9.973   4.637  0.00  0.00     0.037 A 
HETATM   11  C   UNK N   1      21.018   9.354   4.853  0.00  0.00     0.065 A 
HETATM   12  C   UNK N   1      19.918  10.120   5.229  0.00  0.00     0.037 A 
HETATM   13  C   UNK N   1      20.065  11.494   5.427  0.00  0.00     0.015 A 
BRANCH  11  14
HETATM   14  O   UNK N   1      20.892   8.024   4.709  0.00  0.00    -0.361 OA
HETATM   15  H   UNK N   1      20.212   7.665   4.174  0.00  0.00     0.217 HD
ENDBRANCH  11  14
ENDBRANCH   1   8
BRANCH   7  16
HETATM   16  C   UNK N   1      21.873  13.335   8.316  0.00  0.00    -0.026 A 
HETATM   17  C   UNK N   1      20.840  13.657   9.216  0.00  0.00     0.015 A 
HETATM   18  C   UNK N   1      20.789  13.100  10.493  0.00  0.00     0.037 A 
HETATM   19  C   UNK N   1      21.774  12.202  10.896  0.00  0.00     0.065 A 
HETATM   20  C   UNK N   1      22.797  11.851  10.012  0.00  0.00     0.037 A 
HETATM   21  C   UNK N   1      22.838  12.408   8.728  0.00  0.00     0.015 A 
BRANCH  19  22
HETATM   22  O   UNK N   1      21.736  11.678  12.131  0.00  0.00    -0.361 OA
HETATM   23  H   UNK N   1      21.303  12.132  12.826  0.00  0.00     0.217 HD
ENDBRANCH  19  22
ENDBRANCH   7  16
BRANCH   4  24
HETATM   24  C   UNK N   1      19.727  16.208   4.505  0.00  0.00     0.266 C 
HETATM   25  O   UNK N   1      18.978  15.252   4.637  0.00  0.00    -0.265 OA
BRANCH  24  26
HETATM   26  O   UNK N   1      19.241  17.361   3.958  0.00  0.00    -0.321 OA
BRANCH  26  27
HETATM   27  C   UNK N   1      19.816  17.983   2.862  0.00  0.00     0.174 C 
HETATM   28  C   UNK N   1      20.381  19.335   3.241  0.00  0.00     0.034 C 
ENDBRANCH  26  27
ENDBRANCH  24  26
ENDBRANCH   4  24
BRANCH   5  29
HETATM   29  C   UNK N   1      21.007  17.592   7.126  0.00  0.00     0.266 C 
HETATM   30  O   UNK N   1      21.001  18.788   6.858  0.00  0.00    -0.265 OA
BRANCH  29  31
HETATM   31  O   UNK N   1      20.378  17.151   8.242  0.00  0.00    -0.321 OA
BRANCH  31  32
HETATM   32  C   UNK N   1      19.074  16.691   8.226  0.00  0.00     0.174 C 
HETATM   33  C   UNK N   1      18.241  17.371   9.307  0.00  0.00     0.034 C 
ENDBRANCH  31  32
ENDBRANCH  29  31
ENDBRANCH   5  29
TORSDOF 10
ENDMDL
MODEL 9
REMARK VINA RESULT:      -6.2      2.186      5.085
REMARK  10 active torsions:
REMARK  status: ('A' for Active; 'I' for Inactive)
REMARK    1  A    between atoms: C_3  and  O_4 
REMARK    2  A    between atoms: C_7  and  C_8 
REMARK    3  A    between atoms: C_11  and  C_12 
REMARK    4  A    between atoms: C_12  and  O_14 
REMARK    5  A    between atoms: O_14  and  C_15 
REMARK    6  A    between atoms: C_17  and  C_18 
REMARK    7  A    between atoms: C_18  and  O_20 
REMARK    8  A    between atoms: O_20  and  C_21 
REMARK    9  A    between atoms: C_24  and  C_25 
REMARK   10  A    between atoms: C_28  and  O_29 
ROOT
HETATM    1  C   UNK N   1      31.039  16.905   5.299  0.00  0.00    -0.009 C 
HETATM    2  C   UNK N   1      32.319  17.562   4.862  0.00  0.00     0.171 C 
HETATM    3  O   UNK N   1      31.929  17.720   3.531  0.00  0.00    -0.369 OA
HETATM    4  C   UNK N   1      33.632  16.739   4.626  0.00  0.00     0.135 C 
HETATM    5  C   UNK N   1      33.275  16.006   3.303  0.00  0.00     0.135 C 
HETATM    6  C   UNK N   1      31.763  16.334   3.196  0.00  0.00     0.171 C 
HETATM    7  C   UNK N   1      30.694  16.119   4.265  0.00  0.00    -0.009 C 
ENDROOT
BRANCH   1   8
HETATM    8  C   UNK N   1      30.192  17.424   6.437  0.00  0.00    -0.026 A 
HETATM    9  C   UNK N   1      28.948  18.021   6.157  0.00  0.00     0.015 A 
HETATM   10  C   UNK N   1      28.026  18.280   7.181  0.00  0.00     0.037 A 
HETATM   11  C   UNK N   1      28.325  17.925   8.499  0.00  0.00     0.065 A 
HETATM   12  C   UNK N   1      29.558  17.352   8.796  0.00  0.00     0.037 A 
HETATM   13  C   UNK N   1      30.470  17.098   7.770  0.00  0.00     0.015 A 
BRANCH  11  14
HETATM   14  O   UNK N   1      27.424  18.126   9.476  0.00  0.00    -0.361 OA
HETATM   15  H   UNK N   1      27.014  17.400   9.902  0.00  0.00     0.217 HD
ENDBRANCH  11  14
ENDBRANCH   1   8
BRANCH   7  16
HETATM   16  C   UNK N   1      29.436  15.319   3.939  0.00  0.00    -0.026 A 
HETATM   17  C   UNK N   1      28.805  15.590   2.711  0.00  0.00     0.015 A 
HETATM   18  C   UNK N   1      27.650  14.912   2.323  0.00  0.00     0.037 A 
HETATM   19  C   UNK N   1      27.103  13.943   3.159  0.00  0.00     0.065 A 
HETATM   20  C   UNK N   1      27.724  13.641   4.373  0.00  0.00     0.037 A 
HETATM   21  C   UNK N   1      28.889  14.319   4.753  0.00  0.00     0.015 A 
BRANCH  19  22
HETATM   22  O   UNK N   1      25.981  13.301   2.795  0.00  0.00    -0.361 OA
HETATM   23  H   UNK N   1      25.880  12.982   1.920  0.00  0.00     0.217 HD
ENDBRANCH  19  22
ENDBRANCH   7  16
BRANCH   4  24
HETATM   24  C   UNK N   1      34.307  15.969   5.740  0.00  0.00     0.266 C 
HETATM   25  O   UNK N   1      35.451  15.564   5.596  0.00  0.00    -0.265 OA
BRANCH  24  26
HETATM   26  O   UNK N   1      33.616  15.619   6.864  0.00  0.00    -0.321 OA
BRANCH  26  27
HETATM   27  C   UNK N   1      34.015  15.973   8.142  0.00  0.00     0.174 C 
HETATM   28  C   UNK N   1      34.112  17.477   8.283  0.00  0.00     0.034 C 
ENDBRANCH  26  27
ENDBRANCH  24  26
ENDBRANCH   4  24
BRANCH   5  29
HETATM   29  C   UNK N   1      33.752  14.607   2.865  0.00  0.00     0.266 C 
HETATM   30  O   UNK N   1      34.470  14.533   1.874  0.00  0.00    -0.265 OA
BRANCH  29  31
HETATM   31  O   UNK N   1      33.408  13.478   3.531  0.00  0.00    -0.321 OA
BRANCH  31  32
HETATM   32  C   UNK N   1      32.823  12.395   2.901  0.00  0.00     0.174 C 
HETATM   33  C   UNK N   1      31.485  12.780   2.280  0.00  0.00     0.034 C 
ENDBRANCH  31  32
ENDBRANCH  29  31
ENDBRANCH   5  29
TORSDOF 10
ENDMDL
