MODEL 1
REMARK VINA RESULT:      -5.5      0.000      0.000
REMARK  13 active torsions:
REMARK  status: ('A' for Active; 'I' for Inactive)
REMARK    1  A    between atoms: C_1  and  N_2 
REMARK    2  A    between atoms: N_2  and  C_13 
REMARK    3  A    between atoms: C_3  and  O_4 
REMARK    4  A    between atoms: C_5  and  O_6 
REMARK    5  A    between atoms: C_7  and  O_8 
REMARK    6  A    between atoms: C_10  and  C_9 
REMARK    7  A    between atoms: C_10  and  O_11 
REMARK    8  A    between atoms: C_13  and  C_14 
REMARK    9  A    between atoms: C_14  and  C_15 
REMARK   10  A    between atoms: C_16  and  C_15 
REMARK   11  A    between atoms: C_17  and  C_16 
REMARK   12  A    between atoms: C_18  and  C_17 
REMARK   13  A    between atoms: C_19  and  C_18 
ROOT
HETATM    1  C   UNK N   1      35.609  14.369  12.019  0.00  0.00     0.131 C 
HETATM    2  C   UNK N   1      35.710  15.782  11.348  0.00  0.00     0.175 C 
HETATM    3  C   UNK N   1      34.821  15.905  10.077  0.00  0.00     0.182 C 
HETATM    4  C   UNK N   1      33.629  14.934  10.132  0.00  0.00     0.180 C 
HETATM    5  C   UNK N   1      34.225  13.531  10.179  0.00  0.00    -0.027 C 
HETATM    6  C   UNK N   1      35.216  13.279  11.053  0.00  0.00     0.008 C 
ENDROOT
BRANCH   1   7
HETATM    7  N   UNK N   1      36.759  14.022  12.858  0.00  0.00    -0.411 N 
HETATM    8  H   UNK N   1      37.600  13.551  12.521  0.00  0.00     0.153 HD
BRANCH   7   9
HETATM    9  C   UNK N   1      36.540  14.438  14.241  0.00  0.00     0.114 C 
BRANCH   9  10
HETATM   10  C   UNK N   1      36.732  13.260  15.174  0.00  0.00     0.019 C 
BRANCH  10  11
HETATM   11  C   UNK N   1      35.404  12.826  15.765  0.00  0.00     0.002 C 
BRANCH  11  12
HETATM   12  C   UNK N   1      35.556  11.435  16.353  0.00  0.00     0.000 C 
BRANCH  12  13
HETATM   13  C   UNK N   1      34.583  10.463  15.708  0.00  0.00     0.000 C 
BRANCH  13  14
HETATM   14  C   UNK N   1      33.793  11.168  14.617  0.00  0.00    -0.000 C 
BRANCH  14  15
HETATM   15  C   UNK N   1      33.876  10.397  13.316  0.00  0.00    -0.005 C 
HETATM   16  C   UNK N   1      35.326  10.093  12.997  0.00  0.00     0.005 C 
ENDBRANCH  14  15
ENDBRANCH  13  14
ENDBRANCH  12  13
ENDBRANCH  11  12
ENDBRANCH  10  11
ENDBRANCH   9  10
ENDBRANCH   7   9
ENDBRANCH   1   7
BRANCH   2  17
HETATM   17  O   UNK N   1      37.020  16.121  10.996  0.00  0.00    -0.391 OA
HETATM   18  H   UNK N   1      37.915  15.863  11.265  0.00  0.00     0.210 HD
ENDBRANCH   2  17
BRANCH   3  19
HETATM   19  O   UNK N   1      34.407  17.227   9.904  0.00  0.00    -0.390 OA
HETATM   20  H   UNK N   1      34.915  17.873   9.390  0.00  0.00     0.210 HD
ENDBRANCH   3  19
BRANCH   5  21
HETATM   21  C   UNK N   1      33.825  12.484   9.187  0.00  0.00     0.201 C 
BRANCH  21  22
HETATM   22  O   UNK N   1      32.476  12.168   9.350  0.00  0.00    -0.397 OA
HETATM   23  H   UNK N   1      31.722  12.761   9.201  0.00  0.00     0.209 HD
ENDBRANCH  21  22
ENDBRANCH   5  21
BRANCH   4  24
HETATM   24  O   UNK N   1      32.816  15.091   9.007  0.00  0.00    -0.388 OA
HETATM   25  H   UNK N   1      31.956  14.651   8.919  0.00  0.00     0.210 HD
ENDBRANCH   4  24
TORSDOF 13
ENDMDL
MODEL 2
REMARK VINA RESULT:      -5.4      1.441      2.522
REMARK  13 active torsions:
REMARK  status: ('A' for Active; 'I' for Inactive)
REMARK    1  A    between atoms: C_1  and  N_2 
REMARK    2  A    between atoms: N_2  and  C_13 
REMARK    3  A    between atoms: C_3  and  O_4 
REMARK    4  A    between atoms: C_5  and  O_6 
REMARK    5  A    between atoms: C_7  and  O_8 
REMARK    6  A    between atoms: C_10  and  C_9 
REMARK    7  A    between atoms: C_10  and  O_11 
REMARK    8  A    between atoms: C_13  and  C_14 
REMARK    9  A    between atoms: C_14  and  C_15 
REMARK   10  A    between atoms: C_16  and  C_15 
REMARK   11  A    between atoms: C_17  and  C_16 
REMARK   12  A    between atoms: C_18  and  C_17 
REMARK   13  A    between atoms: C_19  and  C_18 
ROOT
HETATM    1  C   UNK N   1      35.543  14.485  11.982  0.00  0.00     0.131 C 
HETATM    2  C   UNK N   1      35.652  15.885  11.287  0.00  0.00     0.175 C 
HETATM    3  C   UNK N   1      34.782  15.983  10.002  0.00  0.00     0.182 C 
HETATM    4  C   UNK N   1      33.591  15.010  10.055  0.00  0.00     0.180 C 
HETATM    5  C   UNK N   1      34.190  13.610  10.136  0.00  0.00    -0.027 C 
HETATM    6  C   UNK N   1      35.167  13.377  11.029  0.00  0.00     0.008 C 
ENDROOT
BRANCH   1   7
HETATM    7  N   UNK N   1      36.682  14.155  12.844  0.00  0.00    -0.411 N 
HETATM    8  H   UNK N   1      37.481  13.590  12.556  0.00  0.00     0.153 HD
BRANCH   7   9
HETATM    9  C   UNK N   1      36.517  14.743  14.171  0.00  0.00     0.114 C 
BRANCH   9  10
HETATM   10  C   UNK N   1      36.854  13.719  15.236  0.00  0.00     0.019 C 
BRANCH  10  11
HETATM   11  C   UNK N   1      35.766  12.666  15.328  0.00  0.00     0.002 C 
BRANCH  11  12
HETATM   12  C   UNK N   1      34.767  13.080  16.392  0.00  0.00     0.000 C 
BRANCH  12  13
HETATM   13  C   UNK N   1      35.462  13.779  17.548  0.00  0.00     0.000 C 
BRANCH  13  14
HETATM   14  C   UNK N   1      35.132  13.075  18.855  0.00  0.00    -0.000 C 
BRANCH  14  15
HETATM   15  C   UNK N   1      35.454  11.599  18.761  0.00  0.00    -0.005 C 
HETATM   16  C   UNK N   1      35.129  10.924  20.079  0.00  0.00     0.005 C 
ENDBRANCH  14  15
ENDBRANCH  13  14
ENDBRANCH  12  13
ENDBRANCH  11  12
ENDBRANCH  10  11
ENDBRANCH   9  10
ENDBRANCH   7   9
ENDBRANCH   1   7
BRANCH   2  17
HETATM   17  O   UNK N   1      36.965  16.222  10.950  0.00  0.00    -0.391 OA
HETATM   18  H   UNK N   1      37.409  16.903  10.423  0.00  0.00     0.210 HD
ENDBRANCH   2  17
BRANCH   3  19
HETATM   19  O   UNK N   1      34.367  17.302   9.799  0.00  0.00    -0.390 OA
HETATM   20  H   UNK N   1      33.763  17.760  10.403  0.00  0.00     0.210 HD
ENDBRANCH   3  19
BRANCH   5  21
HETATM   21  C   UNK N   1      33.807  12.545   9.157  0.00  0.00     0.201 C 
BRANCH  21  22
HETATM   22  O   UNK N   1      32.454  12.235   9.298  0.00  0.00    -0.397 OA
HETATM   23  H   UNK N   1      31.706  12.838   9.159  0.00  0.00     0.209 HD
ENDBRANCH  21  22
ENDBRANCH   5  21
BRANCH   4  24
HETATM   24  O   UNK N   1      32.795  15.145   8.915  0.00  0.00    -0.388 OA
HETATM   25  H   UNK N   1      32.042  15.755   8.874  0.00  0.00     0.210 HD
ENDBRANCH   4  24
TORSDOF 13
ENDMDL
MODEL 3
REMARK VINA RESULT:      -5.3      3.569      7.120
REMARK  13 active torsions:
REMARK  status: ('A' for Active; 'I' for Inactive)
REMARK    1  A    between atoms: C_1  and  N_2 
REMARK    2  A    between atoms: N_2  and  C_13 
REMARK    3  A    between atoms: C_3  and  O_4 
REMARK    4  A    between atoms: C_5  and  O_6 
REMARK    5  A    between atoms: C_7  and  O_8 
REMARK    6  A    between atoms: C_10  and  C_9 
REMARK    7  A    between atoms: C_10  and  O_11 
REMARK    8  A    between atoms: C_13  and  C_14 
REMARK    9  A    between atoms: C_14  and  C_15 
REMARK   10  A    between atoms: C_16  and  C_15 
REMARK   11  A    between atoms: C_17  and  C_16 
REMARK   12  A    between atoms: C_18  and  C_17 
REMARK   13  A    between atoms: C_19  and  C_18 
ROOT
HETATM    1  C   UNK N   1      35.417  15.965  10.987  0.00  0.00     0.131 C 
HETATM    2  C   UNK N   1      34.402  14.986  11.672  0.00  0.00     0.175 C 
HETATM    3  C   UNK N   1      35.007  13.575  11.918  0.00  0.00     0.182 C 
HETATM    4  C   UNK N   1      36.539  13.636  12.042  0.00  0.00     0.180 C 
HETATM    5  C   UNK N   1      37.054  14.164  10.708  0.00  0.00    -0.027 C 
HETATM    6  C   UNK N   1      36.473  15.254  10.178  0.00  0.00     0.008 C 
ENDROOT
BRANCH   1   7
HETATM    7  N   UNK N   1      34.785  17.079  10.276  0.00  0.00    -0.411 N 
HETATM    8  H   UNK N   1      34.410  17.915  10.726  0.00  0.00     0.153 HD
BRANCH   7   9
HETATM    9  C   UNK N   1      34.763  16.833   8.836  0.00  0.00     0.114 C 
BRANCH   9  10
HETATM   10  C   UNK N   1      34.350  18.091   8.101  0.00  0.00     0.019 C 
BRANCH  10  11
HETATM   11  C   UNK N   1      32.856  18.322   8.234  0.00  0.00     0.002 C 
BRANCH  11  12
HETATM   12  C   UNK N   1      32.122  17.062   7.812  0.00  0.00     0.000 C 
BRANCH  12  13
HETATM   13  C   UNK N   1      30.621  17.231   7.967  0.00  0.00     0.000 C 
BRANCH  13  14
HETATM   14  C   UNK N   1      30.322  18.224   9.079  0.00  0.00    -0.000 C 
BRANCH  14  15
HETATM   15  C   UNK N   1      28.838  18.514   9.152  0.00  0.00    -0.005 C 
HETATM   16  C   UNK N   1      28.299  18.756   7.756  0.00  0.00     0.005 C 
ENDBRANCH  14  15
ENDBRANCH  13  14
ENDBRANCH  12  13
ENDBRANCH  11  12
ENDBRANCH  10  11
ENDBRANCH   9  10
ENDBRANCH   7   9
ENDBRANCH   1   7
BRANCH   2  17
HETATM   17  O   UNK N   1      33.222  14.831  10.940  0.00  0.00    -0.391 OA
HETATM   18  H   UNK N   1      32.491  15.396  10.647  0.00  0.00     0.210 HD
ENDBRANCH   2  17
BRANCH   3  19
HETATM   19  O   UNK N   1      34.418  12.985  13.039  0.00  0.00    -0.390 OA
HETATM   20  H   UNK N   1      34.448  12.030  13.206  0.00  0.00     0.210 HD
ENDBRANCH   3  19
BRANCH   5  21
HETATM   21  C   UNK N   1      38.087  13.416   9.924  0.00  0.00     0.201 C 
BRANCH  21  22
HETATM   22  O   UNK N   1      39.263  13.312  10.667  0.00  0.00    -0.397 OA
HETATM   23  H   UNK N   1      39.958  13.985  10.747  0.00  0.00     0.209 HD
ENDBRANCH  21  22
ENDBRANCH   5  21
BRANCH   4  24
HETATM   24  O   UNK N   1      37.062  12.368  12.310  0.00  0.00    -0.388 OA
HETATM   25  H   UNK N   1      36.691  11.784  12.990  0.00  0.00     0.210 HD
ENDBRANCH   4  24
TORSDOF 13
ENDMDL
MODEL 4
REMARK VINA RESULT:      -5.3     17.845     21.184
REMARK  13 active torsions:
REMARK  status: ('A' for Active; 'I' for Inactive)
REMARK    1  A    between atoms: C_1  and  N_2 
REMARK    2  A    between atoms: N_2  and  C_13 
REMARK    3  A    between atoms: C_3  and  O_4 
REMARK    4  A    between atoms: C_5  and  O_6 
REMARK    5  A    between atoms: C_7  and  O_8 
REMARK    6  A    between atoms: C_10  and  C_9 
REMARK    7  A    between atoms: C_10  and  O_11 
REMARK    8  A    between atoms: C_13  and  C_14 
REMARK    9  A    between atoms: C_14  and  C_15 
REMARK   10  A    between atoms: C_16  and  C_15 
REMARK   11  A    between atoms: C_17  and  C_16 
REMARK   12  A    between atoms: C_18  and  C_17 
REMARK   13  A    between atoms: C_19  and  C_18 
ROOT
HETATM    1  C   UNK N   1      30.397  23.646  -3.880  0.00  0.00     0.131 C 
HETATM    2  C   UNK N   1      31.066  22.986  -2.625  0.00  0.00     0.175 C 
HETATM    3  C   UNK N   1      31.599  21.554  -2.917  0.00  0.00     0.182 C 
HETATM    4  C   UNK N   1      31.931  21.373  -4.408  0.00  0.00     0.180 C 
HETATM    5  C   UNK N   1      30.621  21.571  -5.162  0.00  0.00    -0.027 C 
HETATM    6  C   UNK N   1      29.859  22.638  -4.865  0.00  0.00     0.008 C 
ENDROOT
BRANCH   1   7
HETATM    7  N   UNK N   1      29.448  24.715  -3.558  0.00  0.00    -0.411 N 
HETATM    8  H   UNK N   1      29.557  25.373  -2.785  0.00  0.00     0.153 HD
BRANCH   7   9
HETATM    9  C   UNK N   1      28.324  24.711  -4.491  0.00  0.00     0.114 C 
BRANCH   9  10
HETATM   10  C   UNK N   1      27.031  24.449  -3.744  0.00  0.00     0.019 C 
BRANCH  10  11
HETATM   11  C   UNK N   1      25.850  24.474  -4.696  0.00  0.00     0.002 C 
BRANCH  11  12
HETATM   12  C   UNK N   1      26.353  24.761  -6.099  0.00  0.00     0.000 C 
BRANCH  12  13
HETATM   13  C   UNK N   1      25.615  25.941  -6.709  0.00  0.00     0.000 C 
BRANCH  13  14
HETATM   14  C   UNK N   1      24.959  26.765  -5.613  0.00  0.00    -0.000 C 
BRANCH  14  15
HETATM   15  C   UNK N   1      25.855  27.913  -5.199  0.00  0.00    -0.005 C 
HETATM   16  C   UNK N   1      25.764  28.115  -3.700  0.00  0.00     0.005 C 
ENDBRANCH  14  15
ENDBRANCH  13  14
ENDBRANCH  12  13
ENDBRANCH  11  12
ENDBRANCH  10  11
ENDBRANCH   9  10
ENDBRANCH   7   9
ENDBRANCH   1   7
BRANCH   2  17
HETATM   17  O   UNK N   1      30.203  22.913  -1.528  0.00  0.00    -0.391 OA
HETATM   18  H   UNK N   1      29.460  22.358  -1.247  0.00  0.00     0.210 HD
ENDBRANCH   2  17
BRANCH   3  19
HETATM   19  O   UNK N   1      32.698  21.273  -2.102  0.00  0.00    -0.390 OA
HETATM   20  H   UNK N   1      32.923  20.374  -1.816  0.00  0.00     0.210 HD
ENDBRANCH   3  19
BRANCH   5  21
HETATM   21  C   UNK N   1      30.110  20.536  -6.115  0.00  0.00     0.201 C 
BRANCH  21  22
HETATM   22  O   UNK N   1      31.028  20.350  -7.150  0.00  0.00    -0.397 OA
HETATM   23  H   UNK N   1      31.230  19.513  -7.599  0.00  0.00     0.209 HD
ENDBRANCH  21  22
ENDBRANCH   5  21
BRANCH   4  24
HETATM   24  O   UNK N   1      32.453  20.099  -4.644  0.00  0.00    -0.388 OA
HETATM   25  H   UNK N   1      33.396  19.943  -4.804  0.00  0.00     0.210 HD
ENDBRANCH   4  24
TORSDOF 13
ENDMDL
MODEL 5
REMARK VINA RESULT:      -5.2      2.483      3.768
REMARK  13 active torsions:
REMARK  status: ('A' for Active; 'I' for Inactive)
REMARK    1  A    between atoms: C_1  and  N_2 
REMARK    2  A    between atoms: N_2  and  C_13 
REMARK    3  A    between atoms: C_3  and  O_4 
REMARK    4  A    between atoms: C_5  and  O_6 
REMARK    5  A    between atoms: C_7  and  O_8 
REMARK    6  A    between atoms: C_10  and  C_9 
REMARK    7  A    between atoms: C_10  and  O_11 
REMARK    8  A    between atoms: C_13  and  C_14 
REMARK    9  A    between atoms: C_14  and  C_15 
REMARK   10  A    between atoms: C_16  and  C_15 
REMARK   11  A    between atoms: C_17  and  C_16 
REMARK   12  A    between atoms: C_18  and  C_17 
REMARK   13  A    between atoms: C_19  and  C_18 
ROOT
HETATM    1  C   UNK N   1      33.831  15.769   9.670  0.00  0.00     0.131 C 
HETATM    2  C   UNK N   1      34.489  17.190   9.738  0.00  0.00     0.175 C 
HETATM    3  C   UNK N   1      34.879  17.735   8.334  0.00  0.00     0.182 C 
HETATM    4  C   UNK N   1      34.005  17.115   7.230  0.00  0.00     0.180 C 
HETATM    5  C   UNK N   1      34.275  15.615   7.266  0.00  0.00    -0.027 C 
HETATM    6  C   UNK N   1      34.244  14.981   8.451  0.00  0.00     0.008 C 
ENDROOT
BRANCH   1   7
HETATM    7  N   UNK N   1      33.925  15.007  10.919  0.00  0.00    -0.411 N 
HETATM    8  H   UNK N   1      33.476  15.274  11.796  0.00  0.00     0.153 HD
BRANCH   7   9
HETATM    9  C   UNK N   1      34.750  13.814  10.740  0.00  0.00     0.114 C 
BRANCH   9  10
HETATM   10  C   UNK N   1      36.010  13.925  11.575  0.00  0.00     0.019 C 
BRANCH  10  11
HETATM   11  C   UNK N   1      35.670  13.976  13.052  0.00  0.00     0.002 C 
BRANCH  11  12
HETATM   12  C   UNK N   1      36.471  12.913  13.780  0.00  0.00     0.000 C 
BRANCH  12  13
HETATM   13  C   UNK N   1      36.534  13.204  15.270  0.00  0.00     0.000 C 
BRANCH  13  14
HETATM   14  C   UNK N   1      35.144  13.098  15.878  0.00  0.00    -0.000 C 
BRANCH  14  15
HETATM   15  C   UNK N   1      35.229  12.723  17.342  0.00  0.00    -0.005 C 
HETATM   16  C   UNK N   1      35.218  13.979  18.190  0.00  0.00     0.005 C 
ENDBRANCH  14  15
ENDBRANCH  13  14
ENDBRANCH  12  13
ENDBRANCH  11  12
ENDBRANCH  10  11
ENDBRANCH   9  10
ENDBRANCH   7   9
ENDBRANCH   1   7
BRANCH   2  17
HETATM   17  O   UNK N   1      35.627  17.222  10.548  0.00  0.00    -0.391 OA
HETATM   18  H   UNK N   1      36.513  17.613  10.510  0.00  0.00     0.210 HD
ENDBRANCH   2  17
BRANCH   3  19
HETATM   19  O   UNK N   1      34.818  19.130   8.323  0.00  0.00    -0.390 OA
HETATM   20  H   UNK N   1      33.981  19.619   8.376  0.00  0.00     0.210 HD
ENDBRANCH   3  19
BRANCH   5  21
HETATM   21  C   UNK N   1      34.704  14.874   6.039  0.00  0.00     0.201 C 
BRANCH  21  22
HETATM   22  O   UNK N   1      36.022  15.204   5.721  0.00  0.00    -0.397 OA
HETATM   23  H   UNK N   1      36.423  16.086   5.766  0.00  0.00     0.209 HD
ENDBRANCH  21  22
ENDBRANCH   5  21
BRANCH   4  24
HETATM   24  O   UNK N   1      34.337  17.650   5.983  0.00  0.00    -0.388 OA
HETATM   25  H   UNK N   1      33.702  17.698   5.251  0.00  0.00     0.210 HD
ENDBRANCH   4  24
TORSDOF 13
ENDMDL
MODEL 6
REMARK VINA RESULT:      -5.1      6.600      8.690
REMARK  13 active torsions:
REMARK  status: ('A' for Active; 'I' for Inactive)
REMARK    1  A    between atoms: C_1  and  N_2 
REMARK    2  A    between atoms: N_2  and  C_13 
REMARK    3  A    between atoms: C_3  and  O_4 
REMARK    4  A    between atoms: C_5  and  O_6 
REMARK    5  A    between atoms: C_7  and  O_8 
REMARK    6  A    between atoms: C_10  and  C_9 
REMARK    7  A    between atoms: C_10  and  O_11 
REMARK    8  A    between atoms: C_13  and  C_14 
REMARK    9  A    between atoms: C_14  and  C_15 
REMARK   10  A    between atoms: C_16  and  C_15 
REMARK   11  A    between atoms: C_17  and  C_16 
REMARK   12  A    between atoms: C_18  and  C_17 
REMARK   13  A    between atoms: C_19  and  C_18 
ROOT
HETATM    1  C   UNK N   1      30.748  16.940   8.510  0.00  0.00     0.131 C 
HETATM    2  C   UNK N   1      29.686  17.747   9.333  0.00  0.00     0.175 C 
HETATM    3  C   UNK N   1      28.416  18.085   8.501  0.00  0.00     0.182 C 
HETATM    4  C   UNK N   1      28.204  17.069   7.366  0.00  0.00     0.180 C 
HETATM    5  C   UNK N   1      29.426  17.180   6.461  0.00  0.00    -0.027 C 
HETATM    6  C   UNK N   1      30.648  17.172   7.022  0.00  0.00     0.008 C 
ENDROOT
BRANCH   1   7
HETATM    7  N   UNK N   1      32.114  17.048   9.029  0.00  0.00    -0.411 N 
HETATM    8  H   UNK N   1      32.372  16.929  10.009  0.00  0.00     0.153 HD
BRANCH   7   9
HETATM    9  C   UNK N   1      33.057  17.350   7.955  0.00  0.00     0.114 C 
BRANCH   9  10
HETATM   10  C   UNK N   1      34.222  16.381   8.000  0.00  0.00     0.019 C 
BRANCH  10  11
HETATM   11  C   UNK N   1      34.539  15.862   6.610  0.00  0.00     0.002 C 
BRANCH  11  12
HETATM   12  C   UNK N   1      33.628  14.689   6.301  0.00  0.00     0.000 C 
BRANCH  12  13
HETATM   13  C   UNK N   1      32.775  14.971   5.076  0.00  0.00     0.000 C 
BRANCH  13  14
HETATM   14  C   UNK N   1      33.658  15.417   3.921  0.00  0.00    -0.000 C 
BRANCH  14  15
HETATM   15  C   UNK N   1      32.963  16.481   3.098  0.00  0.00    -0.005 C 
HETATM   16  C   UNK N   1      32.693  17.696   3.964  0.00  0.00     0.005 C 
ENDBRANCH  14  15
ENDBRANCH  13  14
ENDBRANCH  12  13
ENDBRANCH  11  12
ENDBRANCH  10  11
ENDBRANCH   9  10
ENDBRANCH   7   9
ENDBRANCH   1   7
BRANCH   2  17
HETATM   17  O   UNK N   1      30.196  18.941   9.851  0.00  0.00    -0.391 OA
HETATM   18  H   UNK N   1      30.467  19.805   9.504  0.00  0.00     0.210 HD
ENDBRANCH   2  17
BRANCH   3  19
HETATM   19  O   UNK N   1      27.300  18.171   9.336  0.00  0.00    -0.390 OA
HETATM   20  H   UNK N   1      27.225  17.672  10.164  0.00  0.00     0.210 HD
ENDBRANCH   3  19
BRANCH   5  21
HETATM   21  C   UNK N   1      29.285  17.433   4.993  0.00  0.00     0.201 C 
BRANCH  21  22
HETATM   22  O   UNK N   1      28.899  18.756   4.774  0.00  0.00    -0.397 OA
HETATM   23  H   UNK N   1      29.463  19.476   4.449  0.00  0.00     0.209 HD
ENDBRANCH  21  22
ENDBRANCH   5  21
BRANCH   4  24
HETATM   24  O   UNK N   1      27.035  17.359   6.659  0.00  0.00    -0.388 OA
HETATM   25  H   UNK N   1      26.998  17.361   5.689  0.00  0.00     0.210 HD
ENDBRANCH   4  24
TORSDOF 13
ENDMDL
MODEL 7
REMARK VINA RESULT:      -5.1      3.785      7.428
REMARK  13 active torsions:
REMARK  status: ('A' for Active; 'I' for Inactive)
REMARK    1  A    between atoms: C_1  and  N_2 
REMARK    2  A    between atoms: N_2  and  C_13 
REMARK    3  A    between atoms: C_3  and  O_4 
REMARK    4  A    between atoms: C_5  and  O_6 
REMARK    5  A    between atoms: C_7  and  O_8 
REMARK    6  A    between atoms: C_10  and  C_9 
REMARK    7  A    between atoms: C_10  and  O_11 
REMARK    8  A    between atoms: C_13  and  C_14 
REMARK    9  A    between atoms: C_14  and  C_15 
REMARK   10  A    between atoms: C_16  and  C_15 
REMARK   11  A    between atoms: C_17  and  C_16 
REMARK   12  A    between atoms: C_18  and  C_17 
REMARK   13  A    between atoms: C_19  and  C_18 
ROOT
HETATM    1  C   UNK N   1      35.326  15.969  10.991  0.00  0.00     0.131 C 
HETATM    2  C   UNK N   1      34.347  14.933  11.643  0.00  0.00     0.175 C 
HETATM    3  C   UNK N   1      35.002  13.535  11.838  0.00  0.00     0.182 C 
HETATM    4  C   UNK N   1      36.531  13.645  11.962  0.00  0.00     0.180 C 
HETATM    5  C   UNK N   1      37.023  14.237  10.646  0.00  0.00    -0.027 C 
HETATM    6  C   UNK N   1      36.404  15.325  10.155  0.00  0.00     0.008 C 
ENDROOT
BRANCH   1   7
HETATM    7  N   UNK N   1      34.653  17.085  10.320  0.00  0.00    -0.411 N 
HETATM    8  H   UNK N   1      34.122  17.813  10.799  0.00  0.00     0.153 HD
BRANCH   7   9
HETATM    9  C   UNK N   1      34.845  17.015   8.874  0.00  0.00     0.114 C 
BRANCH   9  10
HETATM   10  C   UNK N   1      33.781  17.833   8.169  0.00  0.00     0.019 C 
BRANCH  10  11
HETATM   11  C   UNK N   1      32.407  17.519   8.731  0.00  0.00     0.002 C 
BRANCH  11  12
HETATM   12  C   UNK N   1      31.439  17.313   7.580  0.00  0.00     0.000 C 
BRANCH  12  13
HETATM   13  C   UNK N   1      32.152  16.739   6.367  0.00  0.00     0.000 C 
BRANCH  13  14
HETATM   14  C   UNK N   1      31.527  17.285   5.092  0.00  0.00    -0.000 C 
BRANCH  14  15
HETATM   15  C   UNK N   1      32.597  17.610   4.071  0.00  0.00    -0.005 C 
HETATM   16  C   UNK N   1      32.287  16.900   2.768  0.00  0.00     0.005 C 
ENDBRANCH  14  15
ENDBRANCH  13  14
ENDBRANCH  12  13
ENDBRANCH  11  12
ENDBRANCH  10  11
ENDBRANCH   9  10
ENDBRANCH   7   9
ENDBRANCH   1   7
BRANCH   2  17
HETATM   17  O   UNK N   1      33.171  14.762  10.907  0.00  0.00    -0.391 OA
HETATM   18  H   UNK N   1      32.282  14.410  11.065  0.00  0.00     0.210 HD
ENDBRANCH   2  17
BRANCH   3  19
HETATM   19  O   UNK N   1      34.437  12.886  12.938  0.00  0.00    -0.390 OA
HETATM   20  H   UNK N   1      33.844  12.123  12.850  0.00  0.00     0.210 HD
ENDBRANCH   3  19
BRANCH   5  21
HETATM   21  C   UNK N   1      38.080  13.555   9.835  0.00  0.00     0.201 C 
BRANCH  21  22
HETATM   22  O   UNK N   1      39.224  13.363  10.611  0.00  0.00    -0.397 OA
HETATM   23  H   UNK N   1      39.598  12.511  10.886  0.00  0.00     0.209 HD
ENDBRANCH  21  22
ENDBRANCH   5  21
BRANCH   4  24
HETATM   24  O   UNK N   1      37.098  12.388  12.184  0.00  0.00    -0.388 OA
HETATM   25  H   UNK N   1      37.876  12.259  12.749  0.00  0.00     0.210 HD
ENDBRANCH   4  24
TORSDOF 13
ENDMDL
MODEL 8
REMARK VINA RESULT:      -5.1     14.009     15.724
REMARK  13 active torsions:
REMARK  status: ('A' for Active; 'I' for Inactive)
REMARK    1  A    between atoms: C_1  and  N_2 
REMARK    2  A    between atoms: N_2  and  C_13 
REMARK    3  A    between atoms: C_3  and  O_4 
REMARK    4  A    between atoms: C_5  and  O_6 
REMARK    5  A    between atoms: C_7  and  O_8 
REMARK    6  A    between atoms: C_10  and  C_9 
REMARK    7  A    between atoms: C_10  and  O_11 
REMARK    8  A    between atoms: C_13  and  C_14 
REMARK    9  A    between atoms: C_14  and  C_15 
REMARK   10  A    between atoms: C_16  and  C_15 
REMARK   11  A    between atoms: C_17  and  C_16 
REMARK   12  A    between atoms: C_18  and  C_17 
REMARK   13  A    between atoms: C_19  and  C_18 
ROOT
HETATM    1  C   UNK N   1      20.969  17.428   4.547  0.00  0.00     0.131 C 
HETATM    2  C   UNK N   1      21.787  18.759   4.424  0.00  0.00     0.175 C 
HETATM    3  C   UNK N   1      21.638  19.424   3.026  0.00  0.00     0.182 C 
HETATM    4  C   UNK N   1      20.312  19.028   2.355  0.00  0.00     0.180 C 
HETATM    5  C   UNK N   1      20.360  17.515   2.176  0.00  0.00    -0.027 C 
HETATM    6  C   UNK N   1      20.730  16.752   3.219  0.00  0.00     0.008 C 
ENDROOT
BRANCH   1   7
HETATM    7  N   UNK N   1      21.460  16.519   5.587  0.00  0.00    -0.411 N 
HETATM    8  H   UNK N   1      22.184  15.813   5.444  0.00  0.00     0.153 HD
BRANCH   7   9
HETATM    9  C   UNK N   1      20.774  16.758   6.854  0.00  0.00     0.114 C 
BRANCH   9  10
HETATM   10  C   UNK N   1      20.430  15.438   7.514  0.00  0.00     0.019 C 
BRANCH  10  11
HETATM   11  C   UNK N   1      20.734  15.488   9.000  0.00  0.00     0.002 C 
BRANCH  11  12
HETATM   12  C   UNK N   1      20.540  14.104   9.591  0.00  0.00     0.000 C 
BRANCH  12  13
HETATM   13  C   UNK N   1      21.877  13.450   9.893  0.00  0.00     0.000 C 
BRANCH  13  14
HETATM   14  C   UNK N   1      21.683  12.294  10.862  0.00  0.00    -0.000 C 
BRANCH  14  15
HETATM   15  C   UNK N   1      22.952  12.035  11.645  0.00  0.00    -0.005 C 
HETATM   16  C   UNK N   1      24.153  12.190  10.733  0.00  0.00     0.005 C 
ENDBRANCH  14  15
ENDBRANCH  13  14
ENDBRANCH  12  13
ENDBRANCH  11  12
ENDBRANCH  10  11
ENDBRANCH   9  10
ENDBRANCH   7   9
ENDBRANCH   1   7
BRANCH   2  17
HETATM   17  O   UNK N   1      23.150  18.582   4.678  0.00  0.00    -0.391 OA
HETATM   18  H   UNK N   1      23.838  17.942   4.441  0.00  0.00     0.210 HD
ENDBRANCH   2  17
BRANCH   3  19
HETATM   19  O   UNK N   1      21.773  20.810   3.133  0.00  0.00    -0.390 OA
HETATM   20  H   UNK N   1      22.172  21.240   3.906  0.00  0.00     0.210 HD
ENDBRANCH   3  19
BRANCH   5  21
HETATM   21  C   UNK N   1      20.140  16.885   0.836  0.00  0.00     0.201 C 
BRANCH  21  22
HETATM   22  O   UNK N   1      18.816  17.072   0.436  0.00  0.00    -0.397 OA
HETATM   23  H   UNK N   1      18.194  17.728   0.789  0.00  0.00     0.209 HD
ENDBRANCH  21  22
ENDBRANCH   5  21
BRANCH   4  24
HETATM   24  O   UNK N   1      20.173  19.671   1.123  0.00  0.00    -0.388 OA
HETATM   25  H   UNK N   1      19.803  19.228   0.343  0.00  0.00     0.210 HD
ENDBRANCH   4  24
TORSDOF 13
ENDMDL
MODEL 9
REMARK VINA RESULT:      -5.0     13.384     16.068
REMARK  13 active torsions:
REMARK  status: ('A' for Active; 'I' for Inactive)
REMARK    1  A    between atoms: C_1  and  N_2 
REMARK    2  A    between atoms: N_2  and  C_13 
REMARK    3  A    between atoms: C_3  and  O_4 
REMARK    4  A    between atoms: C_5  and  O_6 
REMARK    5  A    between atoms: C_7  and  O_8 
REMARK    6  A    between atoms: C_10  and  C_9 
REMARK    7  A    between atoms: C_10  and  O_11 
REMARK    8  A    between atoms: C_13  and  C_14 
REMARK    9  A    between atoms: C_14  and  C_15 
REMARK   10  A    between atoms: C_16  and  C_15 
REMARK   11  A    between atoms: C_17  and  C_16 
REMARK   12  A    between atoms: C_18  and  C_17 
REMARK   13  A    between atoms: C_19  and  C_18 
ROOT
HETATM    1  C   UNK N   1      22.399  17.719   4.313  0.00  0.00     0.131 C 
HETATM    2  C   UNK N   1      21.077  17.109   4.894  0.00  0.00     0.175 C 
HETATM    3  C   UNK N   1      19.819  17.524   4.079  0.00  0.00     0.182 C 
HETATM    4  C   UNK N   1      20.181  17.860   2.622  0.00  0.00     0.180 C 
HETATM    5  C   UNK N   1      21.138  19.045   2.684  0.00  0.00    -0.027 C 
HETATM    6  C   UNK N   1      22.173  18.995   3.539  0.00  0.00     0.008 C 
ENDROOT
BRANCH   1   7
HETATM    7  N   UNK N   1      23.493  17.809   5.284  0.00  0.00    -0.411 N 
HETATM    8  H   UNK N   1      23.686  18.625   5.865  0.00  0.00     0.153 HD
BRANCH   7   9
HETATM    9  C   UNK N   1      24.270  16.572   5.307  0.00  0.00     0.114 C 
BRANCH   9  10
HETATM   10  C   UNK N   1      25.747  16.886   5.182  0.00  0.00     0.019 C 
BRANCH  10  11
HETATM   11  C   UNK N   1      26.083  17.319   3.767  0.00  0.00     0.002 C 
BRANCH  11  12
HETATM   12  C   UNK N   1      26.999  18.528   3.826  0.00  0.00     0.000 C 
BRANCH  12  13
HETATM   13  C   UNK N   1      26.258  19.790   3.421  0.00  0.00     0.000 C 
BRANCH  13  14
HETATM   14  C   UNK N   1      25.742  20.509   4.658  0.00  0.00    -0.000 C 
BRANCH  14  15
HETATM   15  C   UNK N   1      26.771  20.468   5.767  0.00  0.00    -0.005 C 
HETATM   16  C   UNK N   1      26.542  21.628   6.716  0.00  0.00     0.005 C 
ENDBRANCH  14  15
ENDBRANCH  13  14
ENDBRANCH  12  13
ENDBRANCH  11  12
ENDBRANCH  10  11
ENDBRANCH   9  10
ENDBRANCH   7   9
ENDBRANCH   1   7
BRANCH   2  17
HETATM   17  O   UNK N   1      20.863  17.455   6.231  0.00  0.00    -0.391 OA
HETATM   18  H   UNK N   1      20.480  18.202   6.716  0.00  0.00     0.210 HD
ENDBRANCH   2  17
BRANCH   3  19
HETATM   19  O   UNK N   1      18.843  16.527   4.156  0.00  0.00    -0.390 OA
HETATM   20  H   UNK N   1      18.336  16.230   3.384  0.00  0.00     0.210 HD
ENDBRANCH   3  19
BRANCH   5  21
HETATM   21  C   UNK N   1      20.867  20.302   1.918  0.00  0.00     0.201 C 
BRANCH  21  22
HETATM   22  O   UNK N   1      20.766  20.016   0.556  0.00  0.00    -0.397 OA
HETATM   23  H   UNK N   1      20.994  19.177   0.124  0.00  0.00     0.209 HD
ENDBRANCH  21  22
ENDBRANCH   5  21
BRANCH   4  24
HETATM   24  O   UNK N   1      19.034  18.184   1.893  0.00  0.00    -0.388 OA
HETATM   25  H   UNK N   1      19.062  18.734   1.095  0.00  0.00     0.210 HD
ENDBRANCH   4  24
TORSDOF 13
ENDMDL
