MODEL 1
REMARK VINA RESULT:      -6.8      0.000      0.000
REMARK  16 active torsions:
REMARK  status: ('A' for Active; 'I' for Inactive)
REMARK    1  A    between atoms: C_3  and  O_4 
REMARK    2  A    between atoms: C_7  and  C_8 
REMARK    3  A    between atoms: C_9  and  C_10 
REMARK    4  A    between atoms: C_10  and  O_12 
REMARK    5  A    between atoms: C_13  and  O_12 
REMARK    6  A    between atoms: C_13  and  C_14 
REMARK    7  A    between atoms: C_13  and  C_18 
REMARK    8  A    between atoms: C_14  and  C_15 
REMARK    9  A    between atoms: C_15  and  O_16 
REMARK   10  A    between atoms: C_18  and  C_19 
REMARK   11  A    between atoms: C_18  and  O_22 
REMARK   12  A    between atoms: C_19  and  O_20 
REMARK   13  A    between atoms: O_22  and  C_23 
REMARK   14  A    between atoms: C_23  and  C_25 
REMARK   15  A    between atoms: C_26  and  C_27 
REMARK   16  A    between atoms: C_30  and  O_31 
ROOT
HETATM    1  C   UNK N   1      29.836  22.847  -5.001  0.00  0.00     0.182 C 
ENDROOT
BRANCH   1   2
HETATM    2  O   UNK N   1      29.401  21.660  -5.580  0.00  0.00    -0.309 OA
BRANCH   2   3
HETATM    3  C   UNK N   1      29.957  21.001  -6.627  0.00  0.00     0.283 C 
HETATM    4  O   UNK N   1      30.423  19.880  -6.493  0.00  0.00    -0.260 OA
BRANCH   3   5
HETATM    5  C   UNK N   1      30.090  21.716  -7.909  0.00  0.00     0.083 C 
HETATM    6  C   UNK N   1      29.101  22.030  -8.760  0.00  0.00     0.017 C 
BRANCH   6   7
HETATM    7  C   UNK N   1      27.654  22.053  -8.469  0.00  0.00    -0.036 A 
HETATM    8  C   UNK N   1      26.972  20.835  -8.378  0.00  0.00     0.014 A 
HETATM    9  C   UNK N   1      25.585  20.813  -8.216  0.00  0.00     0.037 A 
HETATM   10  C   UNK N   1      24.869  22.013  -8.162  0.00  0.00     0.065 A 
HETATM   11  C   UNK N   1      25.541  23.233  -8.257  0.00  0.00     0.037 A 
HETATM   12  C   UNK N   1      26.928  23.254  -8.417  0.00  0.00     0.014 A 
BRANCH  10  13
HETATM   13  O   UNK N   1      23.534  21.990  -8.027  0.00  0.00    -0.361 OA
HETATM   14  H   UNK N   1      23.003  22.619  -8.476  0.00  0.00     0.217 HD
ENDBRANCH  10  13
ENDBRANCH   6   7
ENDBRANCH   3   5
ENDBRANCH   2   3
ENDBRANCH   1   2
BRANCH   1  15
HETATM   15  C   UNK N   1      29.970  22.646  -3.481  0.00  0.00     0.145 C 
BRANCH  15  16
HETATM   16  C   UNK N   1      31.052  21.681  -3.046  0.00  0.00     0.141 C 
HETATM   17  O   UNK N   1      31.929  22.019  -2.266  0.00  0.00    -0.650 OA
BRANCH  16  18
HETATM   18  O   UNK N   1      31.070  20.439  -3.562  0.00  0.00    -0.776 OA
HETATM   19  H   UNK N   1      30.400  19.871  -3.889  0.00  0.00     0.167 HD
ENDBRANCH  16  18
ENDBRANCH  15  16
ENDBRANCH   1  15
BRANCH   1  20
HETATM   20  C   UNK N   1      28.910  24.067  -5.305  0.00  0.00     0.259 C 
BRANCH  20  21
HETATM   21  C   UNK N   1      29.581  25.206  -6.031  0.00  0.00     0.173 C 
HETATM   22  O   UNK N   1      29.732  25.142  -7.239  0.00  0.00    -0.648 OA
BRANCH  21  23
HETATM   23  O   UNK N   1      30.046  26.280  -5.361  0.00  0.00    -0.774 OA
HETATM   24  H   UNK N   1      30.241  27.176  -5.170  0.00  0.00     0.167 HD
ENDBRANCH  21  23
ENDBRANCH  20  21
BRANCH  20  25
HETATM   25  O   UNK N   1      28.254  24.551  -4.176  0.00  0.00    -0.299 OA
BRANCH  25  26
HETATM   26  C   UNK N   1      26.931  24.480  -3.867  0.00  0.00     0.283 C 
HETATM   27  O   UNK N   1      26.612  24.438  -2.686  0.00  0.00    -0.260 OA
BRANCH  26  28
HETATM   28  C   UNK N   1      25.872  24.481  -4.903  0.00  0.00     0.083 C 
HETATM   29  C   UNK N   1      25.399  25.596  -5.490  0.00  0.00     0.017 C 
BRANCH  29  30
HETATM   30  C   UNK N   1      25.960  26.939  -5.250  0.00  0.00    -0.036 A 
HETATM   31  C   UNK N   1      25.580  27.647  -4.103  0.00  0.00     0.014 A 
HETATM   32  C   UNK N   1      26.087  28.930  -3.869  0.00  0.00     0.037 A 
HETATM   33  C   UNK N   1      26.977  29.507  -4.778  0.00  0.00     0.065 A 
HETATM   34  C   UNK N   1      27.366  28.799  -5.921  0.00  0.00     0.037 A 
HETATM   35  C   UNK N   1      26.859  27.516  -6.157  0.00  0.00     0.014 A 
BRANCH  33  36
HETATM   36  O   UNK N   1      27.463  30.738  -4.555  0.00  0.00    -0.361 OA
HETATM   37  H   UNK N   1      28.181  31.172  -4.970  0.00  0.00     0.217 HD
ENDBRANCH  33  36
ENDBRANCH  29  30
ENDBRANCH  26  28
ENDBRANCH  25  26
ENDBRANCH  20  25
ENDBRANCH   1  20
TORSDOF 16
ENDMDL
MODEL 2
REMARK VINA RESULT:      -6.8     10.727     14.186
REMARK  16 active torsions:
REMARK  status: ('A' for Active; 'I' for Inactive)
REMARK    1  A    between atoms: C_3  and  O_4 
REMARK    2  A    between atoms: C_7  and  C_8 
REMARK    3  A    between atoms: C_9  and  C_10 
REMARK    4  A    between atoms: C_10  and  O_12 
REMARK    5  A    between atoms: C_13  and  O_12 
REMARK    6  A    between atoms: C_13  and  C_14 
REMARK    7  A    between atoms: C_13  and  C_18 
REMARK    8  A    between atoms: C_14  and  C_15 
REMARK    9  A    between atoms: C_15  and  O_16 
REMARK   10  A    between atoms: C_18  and  C_19 
REMARK   11  A    between atoms: C_18  and  O_22 
REMARK   12  A    between atoms: C_19  and  O_20 
REMARK   13  A    between atoms: O_22  and  C_23 
REMARK   14  A    between atoms: C_23  and  C_25 
REMARK   15  A    between atoms: C_26  and  C_27 
REMARK   16  A    between atoms: C_30  and  O_31 
ROOT
HETATM    1  C   UNK N   1      21.902  19.608   2.693  0.00  0.00     0.182 C 
ENDROOT
BRANCH   1   2
HETATM    2  O   UNK N   1      22.933  20.175   3.433  0.00  0.00    -0.309 OA
BRANCH   2   3
HETATM    3  C   UNK N   1      24.170  19.662   3.650  0.00  0.00     0.283 C 
HETATM    4  O   UNK N   1      24.375  18.868   4.555  0.00  0.00    -0.260 OA
BRANCH   3   5
HETATM    5  C   UNK N   1      25.289  20.172   2.838  0.00  0.00     0.083 C 
HETATM    6  C   UNK N   1      26.506  20.525   3.279  0.00  0.00     0.017 C 
BRANCH   6   7
HETATM    7  C   UNK N   1      27.119  20.168   4.574  0.00  0.00    -0.036 A 
HETATM    8  C   UNK N   1      27.768  18.935   4.686  0.00  0.00     0.014 A 
HETATM    9  C   UNK N   1      28.264  18.508   5.921  0.00  0.00     0.037 A 
HETATM   10  C   UNK N   1      28.095  19.308   7.055  0.00  0.00     0.065 A 
HETATM   11  C   UNK N   1      27.444  20.539   6.952  0.00  0.00     0.037 A 
HETATM   12  C   UNK N   1      26.951  20.965   5.717  0.00  0.00     0.014 A 
BRANCH  10  13
HETATM   13  O   UNK N   1      28.553  18.888   8.245  0.00  0.00    -0.361 OA
HETATM   14  H   UNK N   1      28.030  18.325   8.780  0.00  0.00     0.217 HD
ENDBRANCH  10  13
ENDBRANCH   6   7
ENDBRANCH   3   5
ENDBRANCH   2   3
ENDBRANCH   1   2
BRANCH   1  15
HETATM   15  C   UNK N   1      20.843  20.686   2.397  0.00  0.00     0.145 C 
BRANCH  15  16
HETATM   16  C   UNK N   1      20.699  21.074   0.942  0.00  0.00     0.141 C 
HETATM   17  O   UNK N   1      20.586  22.243   0.604  0.00  0.00    -0.650 OA
BRANCH  16  18
HETATM   18  O   UNK N   1      20.654  20.109   0.006  0.00  0.00    -0.776 OA
HETATM   19  H   UNK N   1      21.019  19.247  -0.045  0.00  0.00     0.167 HD
ENDBRANCH  16  18
ENDBRANCH  15  16
ENDBRANCH   1  15
BRANCH   1  20
HETATM   20  C   UNK N   1      21.239  18.376   3.386  0.00  0.00     0.259 C 
BRANCH  20  21
HETATM   21  C   UNK N   1      20.085  17.768   2.629  0.00  0.00     0.173 C 
HETATM   22  O   UNK N   1      20.214  17.510   1.444  0.00  0.00    -0.648 OA
BRANCH  21  23
HETATM   23  O   UNK N   1      18.903  17.534   3.233  0.00  0.00    -0.774 OA
HETATM   24  H   UNK N   1      18.293  17.301   3.905  0.00  0.00     0.167 HD
ENDBRANCH  21  23
ENDBRANCH  20  21
BRANCH  20  25
HETATM   25  O   UNK N   1      20.857  18.628   4.702  0.00  0.00    -0.299 OA
BRANCH  25  26
HETATM   26  C   UNK N   1      21.209  17.957   5.831  0.00  0.00     0.283 C 
HETATM   27  O   UNK N   1      21.922  18.527   6.647  0.00  0.00    -0.260 OA
BRANCH  26  28
HETATM   28  C   UNK N   1      20.737  16.583   6.119  0.00  0.00     0.083 C 
HETATM   29  C   UNK N   1      21.456  15.474   5.863  0.00  0.00     0.017 C 
BRANCH  29  30
HETATM   30  C   UNK N   1      22.846  15.505   5.371  0.00  0.00    -0.036 A 
HETATM   31  C   UNK N   1      23.898  15.600   6.291  0.00  0.00     0.014 A 
HETATM   32  C   UNK N   1      25.222  15.651   5.843  0.00  0.00     0.037 A 
HETATM   33  C   UNK N   1      25.498  15.603   4.473  0.00  0.00     0.065 A 
HETATM   34  C   UNK N   1      24.450  15.500   3.552  0.00  0.00     0.037 A 
HETATM   35  C   UNK N   1      23.126  15.450   3.999  0.00  0.00     0.014 A 
BRANCH  33  36
HETATM   36  O   UNK N   1      26.768  15.653   4.042  0.00  0.00    -0.361 OA
HETATM   37  H   UNK N   1      27.120  16.097   3.296  0.00  0.00     0.217 HD
ENDBRANCH  33  36
ENDBRANCH  29  30
ENDBRANCH  26  28
ENDBRANCH  25  26
ENDBRANCH  20  25
ENDBRANCH   1  20
TORSDOF 16
ENDMDL
MODEL 3
REMARK VINA RESULT:      -6.7     16.492     20.925
REMARK  16 active torsions:
REMARK  status: ('A' for Active; 'I' for Inactive)
REMARK    1  A    between atoms: C_3  and  O_4 
REMARK    2  A    between atoms: C_7  and  C_8 
REMARK    3  A    between atoms: C_9  and  C_10 
REMARK    4  A    between atoms: C_10  and  O_12 
REMARK    5  A    between atoms: C_13  and  O_12 
REMARK    6  A    between atoms: C_13  and  C_14 
REMARK    7  A    between atoms: C_13  and  C_18 
REMARK    8  A    between atoms: C_14  and  C_15 
REMARK    9  A    between atoms: C_15  and  O_16 
REMARK   10  A    between atoms: C_18  and  C_19 
REMARK   11  A    between atoms: C_18  and  O_22 
REMARK   12  A    between atoms: C_19  and  O_20 
REMARK   13  A    between atoms: O_22  and  C_23 
REMARK   14  A    between atoms: C_23  and  C_25 
REMARK   15  A    between atoms: C_26  and  C_27 
REMARK   16  A    between atoms: C_30  and  O_31 
ROOT
HETATM    1  C   UNK N   1      34.452  14.149   9.211  0.00  0.00     0.182 C 
ENDROOT
BRANCH   1   2
HETATM    2  O   UNK N   1      33.120  14.388   8.894  0.00  0.00    -0.309 OA
BRANCH   2   3
HETATM    3  C   UNK N   1      32.612  14.748   7.688  0.00  0.00     0.283 C 
HETATM    4  O   UNK N   1      31.859  14.009   7.073  0.00  0.00    -0.260 OA
BRANCH   3   5
HETATM    5  C   UNK N   1      33.081  16.008   7.082  0.00  0.00     0.083 C 
HETATM    6  C   UNK N   1      32.352  17.112   6.859  0.00  0.00     0.017 C 
BRANCH   6   7
HETATM    7  C   UNK N   1      31.048  17.452   7.463  0.00  0.00    -0.036 A 
HETATM    8  C   UNK N   1      31.036  18.086   8.709  0.00  0.00     0.014 A 
HETATM    9  C   UNK N   1      29.828  18.326   9.367  0.00  0.00     0.037 A 
HETATM   10  C   UNK N   1      28.624  17.913   8.790  0.00  0.00     0.065 A 
HETATM   11  C   UNK N   1      28.627  17.274   7.548  0.00  0.00     0.037 A 
HETATM   12  C   UNK N   1      29.836  17.038   6.890  0.00  0.00     0.014 A 
BRANCH  10  13
HETATM   13  O   UNK N   1      27.465  18.125   9.433  0.00  0.00    -0.361 OA
HETATM   14  H   UNK N   1      26.729  17.566   9.275  0.00  0.00     0.217 HD
ENDBRANCH  10  13
ENDBRANCH   6   7
ENDBRANCH   3   5
ENDBRANCH   2   3
ENDBRANCH   1   2
BRANCH   1  15
HETATM   15  C   UNK N   1      34.725  12.636   9.128  0.00  0.00     0.145 C 
BRANCH  15  16
HETATM   16  C   UNK N   1      33.660  11.749   9.736  0.00  0.00     0.141 C 
HETATM   17  O   UNK N   1      33.928  10.949  10.619  0.00  0.00    -0.650 OA
BRANCH  16  18
HETATM   18  O   UNK N   1      32.402  11.815   9.264  0.00  0.00    -0.776 OA
HETATM   19  H   UNK N   1      32.035  11.737   8.405  0.00  0.00     0.167 HD
ENDBRANCH  16  18
ENDBRANCH  15  16
ENDBRANCH   1  15
BRANCH   1  20
HETATM   20  C   UNK N   1      34.868  14.695  10.614  0.00  0.00     0.259 C 
BRANCH  20  21
HETATM   21  C   UNK N   1      35.318  16.135  10.624  0.00  0.00     0.173 C 
HETATM   22  O   UNK N   1      36.453  16.407  10.977  0.00  0.00    -0.648 OA
BRANCH  21  23
HETATM   23  O   UNK N   1      34.474  17.129  10.281  0.00  0.00    -0.774 OA
HETATM   24  H   UNK N   1      34.014  17.739   9.739  0.00  0.00     0.167 HD
ENDBRANCH  21  23
ENDBRANCH  20  21
BRANCH  20  25
HETATM   25  O   UNK N   1      35.818  13.901  11.251  0.00  0.00    -0.299 OA
BRANCH  25  26
HETATM   26  C   UNK N   1      35.709  13.222  12.425  0.00  0.00     0.283 C 
HETATM   27  O   UNK N   1      34.767  13.484  13.161  0.00  0.00    -0.260 OA
BRANCH  26  28
HETATM   28  C   UNK N   1      36.667  12.165  12.823  0.00  0.00     0.083 C 
HETATM   29  C   UNK N   1      37.132  12.008  14.076  0.00  0.00     0.017 C 
BRANCH  29  30
HETATM   30  C   UNK N   1      36.653  12.801  15.223  0.00  0.00    -0.036 A 
HETATM   31  C   UNK N   1      35.712  12.245  16.099  0.00  0.00     0.014 A 
HETATM   32  C   UNK N   1      35.232  12.989  17.181  0.00  0.00     0.037 A 
HETATM   33  C   UNK N   1      35.694  14.291  17.394  0.00  0.00     0.065 A 
HETATM   34  C   UNK N   1      36.640  14.848  16.526  0.00  0.00     0.037 A 
HETATM   35  C   UNK N   1      37.120  14.104  15.443  0.00  0.00     0.014 A 
BRANCH  33  36
HETATM   36  O   UNK N   1      35.232  15.007  18.432  0.00  0.00    -0.361 OA
HETATM   37  H   UNK N   1      35.545  15.033  19.314  0.00  0.00     0.217 HD
ENDBRANCH  33  36
ENDBRANCH  29  30
ENDBRANCH  26  28
ENDBRANCH  25  26
ENDBRANCH  20  25
ENDBRANCH   1  20
TORSDOF 16
ENDMDL
MODEL 4
REMARK VINA RESULT:      -6.7     14.721     17.252
REMARK  16 active torsions:
REMARK  status: ('A' for Active; 'I' for Inactive)
REMARK    1  A    between atoms: C_3  and  O_4 
REMARK    2  A    between atoms: C_7  and  C_8 
REMARK    3  A    between atoms: C_9  and  C_10 
REMARK    4  A    between atoms: C_10  and  O_12 
REMARK    5  A    between atoms: C_13  and  O_12 
REMARK    6  A    between atoms: C_13  and  C_14 
REMARK    7  A    between atoms: C_13  and  C_18 
REMARK    8  A    between atoms: C_14  and  C_15 
REMARK    9  A    between atoms: C_15  and  O_16 
REMARK   10  A    between atoms: C_18  and  C_19 
REMARK   11  A    between atoms: C_18  and  O_22 
REMARK   12  A    between atoms: C_19  and  O_20 
REMARK   13  A    between atoms: O_22  and  C_23 
REMARK   14  A    between atoms: C_23  and  C_25 
REMARK   15  A    between atoms: C_26  and  C_27 
REMARK   16  A    between atoms: C_30  and  O_31 
ROOT
HETATM    1  C   UNK N   1      20.653  15.832   7.172  0.00  0.00     0.182 C 
ENDROOT
BRANCH   1   2
HETATM    2  O   UNK N   1      19.495  16.122   6.459  0.00  0.00    -0.309 OA
BRANCH   2   3
HETATM    3  C   UNK N   1      18.822  15.304   5.612  0.00  0.00     0.283 C 
HETATM    4  O   UNK N   1      17.657  15.521   5.315  0.00  0.00    -0.260 OA
BRANCH   3   5
HETATM    5  C   UNK N   1      19.495  14.078   5.145  0.00  0.00     0.083 C 
HETATM    6  C   UNK N   1      19.881  13.802   3.891  0.00  0.00     0.017 C 
BRANCH   6   7
HETATM    7  C   UNK N   1      20.044  14.762   2.781  0.00  0.00    -0.036 A 
HETATM    8  C   UNK N   1      20.640  15.998   3.051  0.00  0.00     0.014 A 
HETATM    9  C   UNK N   1      20.714  16.978   2.058  0.00  0.00     0.037 A 
HETATM   10  C   UNK N   1      20.173  16.732   0.793  0.00  0.00     0.065 A 
HETATM   11  C   UNK N   1      19.571  15.503   0.516  0.00  0.00     0.037 A 
HETATM   12  C   UNK N   1      19.501  14.523   1.509  0.00  0.00     0.014 A 
BRANCH  10  13
HETATM   13  O   UNK N   1      20.225  17.682  -0.154  0.00  0.00    -0.361 OA
HETATM   14  H   UNK N   1      19.816  17.543  -0.985  0.00  0.00     0.217 HD
ENDBRANCH  10  13
ENDBRANCH   6   7
ENDBRANCH   3   5
ENDBRANCH   2   3
ENDBRANCH   1   2
BRANCH   1  15
HETATM   15  C   UNK N   1      20.380  16.023   8.675  0.00  0.00     0.145 C 
BRANCH  15  16
HETATM   16  C   UNK N   1      19.037  16.629   9.020  0.00  0.00     0.141 C 
HETATM   17  O   UNK N   1      18.110  15.937   9.411  0.00  0.00    -0.650 OA
BRANCH  16  18
HETATM   18  O   UNK N   1      18.850  17.950   8.850  0.00  0.00    -0.776 OA
HETATM   19  H   UNK N   1      18.328  18.453   8.256  0.00  0.00     0.167 HD
ENDBRANCH  16  18
ENDBRANCH  15  16
ENDBRANCH   1  15
BRANCH   1  20
HETATM   20  C   UNK N   1      21.886  16.685   6.735  0.00  0.00     0.259 C 
BRANCH  20  21
HETATM   21  C   UNK N   1      21.561  18.092   6.299  0.00  0.00     0.173 C 
HETATM   22  O   UNK N   1      21.912  18.476   5.196  0.00  0.00    -0.648 OA
BRANCH  21  23
HETATM   23  O   UNK N   1      20.915  18.942   7.122  0.00  0.00    -0.774 OA
HETATM   24  H   UNK N   1      20.229  19.484   7.459  0.00  0.00     0.167 HD
ENDBRANCH  21  23
ENDBRANCH  20  21
BRANCH  20  25
HETATM   25  O   UNK N   1      22.668  16.061   5.766  0.00  0.00    -0.299 OA
BRANCH  25  26
HETATM   26  C   UNK N   1      23.552  15.038   5.917  0.00  0.00     0.283 C 
HETATM   27  O   UNK N   1      24.557  15.234   6.587  0.00  0.00    -0.260 OA
BRANCH  26  28
HETATM   28  C   UNK N   1      23.325  13.699   5.326  0.00  0.00     0.083 C 
HETATM   29  C   UNK N   1      23.208  12.570   6.049  0.00  0.00     0.017 C 
BRANCH  29  30
HETATM   30  C   UNK N   1      23.178  12.552   7.524  0.00  0.00    -0.036 A 
HETATM   31  C   UNK N   1      21.948  12.639   8.187  0.00  0.00     0.014 A 
HETATM   32  C   UNK N   1      21.901  12.643   9.585  0.00  0.00     0.037 A 
HETATM   33  C   UNK N   1      23.084  12.558  10.324  0.00  0.00     0.065 A 
HETATM   34  C   UNK N   1      24.315  12.463   9.665  0.00  0.00     0.037 A 
HETATM   35  C   UNK N   1      24.362  12.460   8.267  0.00  0.00     0.014 A 
BRANCH  33  36
HETATM   36  O   UNK N   1      23.040  12.563  11.666  0.00  0.00    -0.361 OA
HETATM   37  H   UNK N   1      22.444  13.010  12.234  0.00  0.00     0.217 HD
ENDBRANCH  33  36
ENDBRANCH  29  30
ENDBRANCH  26  28
ENDBRANCH  25  26
ENDBRANCH  20  25
ENDBRANCH   1  20
TORSDOF 16
ENDMDL
MODEL 5
REMARK VINA RESULT:      -6.6     16.318     20.825
REMARK  16 active torsions:
REMARK  status: ('A' for Active; 'I' for Inactive)
REMARK    1  A    between atoms: C_3  and  O_4 
REMARK    2  A    between atoms: C_7  and  C_8 
REMARK    3  A    between atoms: C_9  and  C_10 
REMARK    4  A    between atoms: C_10  and  O_12 
REMARK    5  A    between atoms: C_13  and  O_12 
REMARK    6  A    between atoms: C_13  and  C_14 
REMARK    7  A    between atoms: C_13  and  C_18 
REMARK    8  A    between atoms: C_14  and  C_15 
REMARK    9  A    between atoms: C_15  and  O_16 
REMARK   10  A    between atoms: C_18  and  C_19 
REMARK   11  A    between atoms: C_18  and  O_22 
REMARK   12  A    between atoms: C_19  and  O_20 
REMARK   13  A    between atoms: O_22  and  C_23 
REMARK   14  A    between atoms: C_23  and  C_25 
REMARK   15  A    between atoms: C_26  and  C_27 
REMARK   16  A    between atoms: C_30  and  O_31 
ROOT
HETATM    1  C   UNK N   1      34.314  14.491   9.380  0.00  0.00     0.182 C 
ENDROOT
BRANCH   1   2
HETATM    2  O   UNK N   1      33.954  14.282   8.053  0.00  0.00    -0.309 OA
BRANCH   2   3
HETATM    3  C   UNK N   1      32.887  14.803   7.398  0.00  0.00     0.283 C 
HETATM    4  O   UNK N   1      31.827  14.200   7.334  0.00  0.00    -0.260 OA
BRANCH   3   5
HETATM    5  C   UNK N   1      33.069  16.069   6.664  0.00  0.00     0.083 C 
HETATM    6  C   UNK N   1      32.176  17.063   6.542  0.00  0.00     0.017 C 
BRANCH   6   7
HETATM    7  C   UNK N   1      30.975  17.284   7.371  0.00  0.00    -0.036 A 
HETATM    8  C   UNK N   1      29.726  16.958   6.834  0.00  0.00     0.014 A 
HETATM    9  C   UNK N   1      28.556  17.254   7.538  0.00  0.00     0.037 A 
HETATM   10  C   UNK N   1      28.630  17.895   8.778  0.00  0.00     0.065 A 
HETATM   11  C   UNK N   1      29.873  18.228   9.320  0.00  0.00     0.037 A 
HETATM   12  C   UNK N   1      31.042  17.930   8.615  0.00  0.00     0.014 A 
BRANCH  10  13
HETATM   13  O   UNK N   1      27.505  18.197   9.445  0.00  0.00    -0.361 OA
HETATM   14  H   UNK N   1      27.551  18.578  10.300  0.00  0.00     0.217 HD
ENDBRANCH  10  13
ENDBRANCH   6   7
ENDBRANCH   3   5
ENDBRANCH   2   3
ENDBRANCH   1   2
BRANCH   1  15
HETATM   15  C   UNK N   1      35.482  15.494   9.432  0.00  0.00     0.145 C 
BRANCH  15  16
HETATM   16  C   UNK N   1      35.149  16.847  10.022  0.00  0.00     0.141 C 
HETATM   17  O   UNK N   1      35.131  17.855   9.331  0.00  0.00    -0.650 OA
BRANCH  16  18
HETATM   18  O   UNK N   1      34.911  16.948  11.342  0.00  0.00    -0.776 OA
HETATM   19  H   UNK N   1      34.170  16.740  11.877  0.00  0.00     0.167 HD
ENDBRANCH  16  18
ENDBRANCH  15  16
ENDBRANCH   1  15
BRANCH   1  20
HETATM   20  C   UNK N   1      34.695  13.180  10.138  0.00  0.00     0.259 C 
BRANCH  20  21
HETATM   21  C   UNK N   1      33.934  11.953   9.703  0.00  0.00     0.173 C 
HETATM   22  O   UNK N   1      34.530  10.901   9.545  0.00  0.00    -0.648 OA
BRANCH  21  23
HETATM   23  O   UNK N   1      32.610  12.009   9.455  0.00  0.00    -0.774 OA
HETATM   24  H   UNK N   1      31.754  11.727   9.197  0.00  0.00     0.167 HD
ENDBRANCH  21  23
ENDBRANCH  20  21
BRANCH  20  25
HETATM   25  O   UNK N   1      34.628  13.310  11.523  0.00  0.00    -0.299 OA
BRANCH  25  26
HETATM   26  C   UNK N   1      35.639  13.536  12.405  0.00  0.00     0.283 C 
HETATM   27  O   UNK N   1      35.690  14.624  12.963  0.00  0.00    -0.260 OA
BRANCH  26  28
HETATM   28  C   UNK N   1      36.653  12.507  12.732  0.00  0.00     0.083 C 
HETATM   29  C   UNK N   1      37.138  12.299  13.970  0.00  0.00     0.017 C 
BRANCH  29  30
HETATM   30  C   UNK N   1      36.632  12.997  15.166  0.00  0.00    -0.036 A 
HETATM   31  C   UNK N   1      35.575  12.435  15.893  0.00  0.00     0.014 A 
HETATM   32  C   UNK N   1      35.069  13.092  17.019  0.00  0.00     0.037 A 
HETATM   33  C   UNK N   1      35.620  14.311  17.424  0.00  0.00     0.065 A 
HETATM   34  C   UNK N   1      36.682  14.871  16.705  0.00  0.00     0.037 A 
HETATM   35  C   UNK N   1      37.188  14.215  15.578  0.00  0.00     0.014 A 
BRANCH  33  36
HETATM   36  O   UNK N   1      35.134  14.943  18.504  0.00  0.00    -0.361 OA
HETATM   37  H   UNK N   1      34.246  15.010  18.797  0.00  0.00     0.217 HD
ENDBRANCH  33  36
ENDBRANCH  29  30
ENDBRANCH  26  28
ENDBRANCH  25  26
ENDBRANCH  20  25
ENDBRANCH   1  20
TORSDOF 16
ENDMDL
MODEL 6
REMARK VINA RESULT:      -6.6      1.204      6.339
REMARK  16 active torsions:
REMARK  status: ('A' for Active; 'I' for Inactive)
REMARK    1  A    between atoms: C_3  and  O_4 
REMARK    2  A    between atoms: C_7  and  C_8 
REMARK    3  A    between atoms: C_9  and  C_10 
REMARK    4  A    between atoms: C_10  and  O_12 
REMARK    5  A    between atoms: C_13  and  O_12 
REMARK    6  A    between atoms: C_13  and  C_14 
REMARK    7  A    between atoms: C_13  and  C_18 
REMARK    8  A    between atoms: C_14  and  C_15 
REMARK    9  A    between atoms: C_15  and  O_16 
REMARK   10  A    between atoms: C_18  and  C_19 
REMARK   11  A    between atoms: C_18  and  O_22 
REMARK   12  A    between atoms: C_19  and  O_20 
REMARK   13  A    between atoms: O_22  and  C_23 
REMARK   14  A    between atoms: C_23  and  C_25 
REMARK   15  A    between atoms: C_26  and  C_27 
REMARK   16  A    between atoms: C_30  and  O_31 
ROOT
HETATM    1  C   UNK N   1      29.047  24.022  -3.861  0.00  0.00     0.182 C 
ENDROOT
BRANCH   1   2
HETATM    2  O   UNK N   1      27.730  23.821  -4.258  0.00  0.00    -0.309 OA
BRANCH   2   3
HETATM    3  C   UNK N   1      26.650  24.579  -3.941  0.00  0.00     0.283 C 
HETATM    4  O   UNK N   1      26.515  25.052  -2.823  0.00  0.00    -0.260 OA
BRANCH   3   5
HETATM    5  C   UNK N   1      25.582  24.724  -4.947  0.00  0.00     0.083 C 
HETATM    6  C   UNK N   1      25.186  25.861  -5.539  0.00  0.00     0.017 C 
BRANCH   6   7
HETATM    7  C   UNK N   1      25.927  27.137  -5.595  0.00  0.00    -0.036 A 
HETATM    8  C   UNK N   1      26.879  27.311  -6.604  0.00  0.00     0.014 A 
HETATM    9  C   UNK N   1      27.680  28.455  -6.628  0.00  0.00     0.037 A 
HETATM   10  C   UNK N   1      27.545  29.424  -5.630  0.00  0.00     0.065 A 
HETATM   11  C   UNK N   1      26.600  29.256  -4.616  0.00  0.00     0.037 A 
HETATM   12  C   UNK N   1      25.798  28.113  -4.595  0.00  0.00     0.014 A 
BRANCH  10  13
HETATM   13  O   UNK N   1      28.330  30.513  -5.642  0.00  0.00    -0.361 OA
HETATM   14  H   UNK N   1      28.867  30.716  -4.902  0.00  0.00     0.217 HD
ENDBRANCH  10  13
ENDBRANCH   6   7
ENDBRANCH   3   5
ENDBRANCH   2   3
ENDBRANCH   1   2
BRANCH   1  15
HETATM   15  C   UNK N   1      29.685  25.098  -4.759  0.00  0.00     0.145 C 
BRANCH  15  16
HETATM   16  C   UNK N   1      30.260  26.293  -4.032  0.00  0.00     0.141 C 
HETATM   17  O   UNK N   1      30.071  27.432  -4.432  0.00  0.00    -0.650 OA
BRANCH  16  18
HETATM   18  O   UNK N   1      31.031  26.094  -2.948  0.00  0.00    -0.776 OA
HETATM   19  H   UNK N   1      30.872  26.159  -2.027  0.00  0.00     0.167 HD
ENDBRANCH  16  18
ENDBRANCH  15  16
ENDBRANCH   1  15
BRANCH   1  20
HETATM   20  C   UNK N   1      29.911  22.721  -3.882  0.00  0.00     0.259 C 
BRANCH  20  21
HETATM   21  C   UNK N   1      30.720  22.478  -2.632  0.00  0.00     0.173 C 
HETATM   22  O   UNK N   1      30.596  23.231  -1.681  0.00  0.00    -0.648 OA
BRANCH  21  23
HETATM   23  O   UNK N   1      31.601  21.460  -2.561  0.00  0.00    -0.774 OA
HETATM   24  H   UNK N   1      32.032  20.657  -2.780  0.00  0.00     0.167 HD
ENDBRANCH  21  23
ENDBRANCH  20  21
BRANCH  20  25
HETATM   25  O   UNK N   1      30.735  22.628  -5.001  0.00  0.00    -0.299 OA
BRANCH  25  26
HETATM   26  C   UNK N   1      30.899  21.578  -5.850  0.00  0.00     0.283 C 
HETATM   27  O   UNK N   1      30.622  20.456  -5.446  0.00  0.00    -0.260 OA
BRANCH  26  28
HETATM   28  C   UNK N   1      31.369  21.751  -7.244  0.00  0.00     0.083 C 
HETATM   29  C   UNK N   1      30.549  21.950  -8.292  0.00  0.00     0.017 C 
BRANCH  29  30
HETATM   30  C   UNK N   1      29.092  22.134  -8.158  0.00  0.00    -0.036 A 
HETATM   31  C   UNK N   1      28.578  23.419  -7.942  0.00  0.00     0.014 A 
HETATM   32  C   UNK N   1      27.201  23.610  -7.792  0.00  0.00     0.037 A 
HETATM   33  C   UNK N   1      26.332  22.517  -7.862  0.00  0.00     0.065 A 
HETATM   34  C   UNK N   1      26.840  21.233  -8.086  0.00  0.00     0.037 A 
HETATM   35  C   UNK N   1      28.218  21.041  -8.235  0.00  0.00     0.014 A 
BRANCH  33  36
HETATM   36  O   UNK N   1      25.010  22.700  -7.717  0.00  0.00    -0.361 OA
HETATM   37  H   UNK N   1      24.498  22.697  -6.933  0.00  0.00     0.217 HD
ENDBRANCH  33  36
ENDBRANCH  29  30
ENDBRANCH  26  28
ENDBRANCH  25  26
ENDBRANCH  20  25
ENDBRANCH   1  20
TORSDOF 16
ENDMDL
MODEL 7
REMARK VINA RESULT:      -6.6     10.867     13.935
REMARK  16 active torsions:
REMARK  status: ('A' for Active; 'I' for Inactive)
REMARK    1  A    between atoms: C_3  and  O_4 
REMARK    2  A    between atoms: C_7  and  C_8 
REMARK    3  A    between atoms: C_9  and  C_10 
REMARK    4  A    between atoms: C_10  and  O_12 
REMARK    5  A    between atoms: C_13  and  O_12 
REMARK    6  A    between atoms: C_13  and  C_14 
REMARK    7  A    between atoms: C_13  and  C_18 
REMARK    8  A    between atoms: C_14  and  C_15 
REMARK    9  A    between atoms: C_15  and  O_16 
REMARK   10  A    between atoms: C_18  and  C_19 
REMARK   11  A    between atoms: C_18  and  O_22 
REMARK   12  A    between atoms: C_19  and  O_20 
REMARK   13  A    between atoms: O_22  and  C_23 
REMARK   14  A    between atoms: C_23  and  C_25 
REMARK   15  A    between atoms: C_26  and  C_27 
REMARK   16  A    between atoms: C_30  and  O_31 
ROOT
HETATM    1  C   UNK N   1      21.187  19.097   3.784  0.00  0.00     0.182 C 
ENDROOT
BRANCH   1   2
HETATM    2  O   UNK N   1      22.456  19.536   4.146  0.00  0.00    -0.309 OA
BRANCH   2   3
HETATM    3  C   UNK N   1      23.646  19.113   3.651  0.00  0.00     0.283 C 
HETATM    4  O   UNK N   1      24.027  17.964   3.812  0.00  0.00    -0.260 OA
BRANCH   3   5
HETATM    5  C   UNK N   1      24.525  20.107   3.009  0.00  0.00     0.083 C 
HETATM    6  C   UNK N   1      25.635  20.653   3.529  0.00  0.00     0.017 C 
BRANCH   6   7
HETATM    7  C   UNK N   1      26.416  20.153   4.677  0.00  0.00    -0.036 A 
HETATM    8  C   UNK N   1      26.346  20.853   5.886  0.00  0.00     0.014 A 
HETATM    9  C   UNK N   1      27.153  20.481   6.964  0.00  0.00     0.037 A 
HETATM   10  C   UNK N   1      28.050  19.417   6.832  0.00  0.00     0.065 A 
HETATM   11  C   UNK N   1      28.130  18.716   5.626  0.00  0.00     0.037 A 
HETATM   12  C   UNK N   1      27.321  19.087   4.550  0.00  0.00     0.014 A 
BRANCH  10  13
HETATM   13  O   UNK N   1      28.839  19.074   7.861  0.00  0.00    -0.361 OA
HETATM   14  H   UNK N   1      29.548  19.630   8.118  0.00  0.00     0.217 HD
ENDBRANCH  10  13
ENDBRANCH   6   7
ENDBRANCH   3   5
ENDBRANCH   2   3
ENDBRANCH   1   2
BRANCH   1  15
HETATM   15  C   UNK N   1      20.850  17.821   4.579  0.00  0.00     0.145 C 
BRANCH  15  16
HETATM   16  C   UNK N   1      21.354  17.793   6.005  0.00  0.00     0.141 C 
HETATM   17  O   UNK N   1      21.994  16.845   6.434  0.00  0.00    -0.650 OA
BRANCH  16  18
HETATM   18  O   UNK N   1      21.055  18.814   6.828  0.00  0.00    -0.776 OA
HETATM   19  H   UNK N   1      21.486  19.620   7.032  0.00  0.00     0.167 HD
ENDBRANCH  16  18
ENDBRANCH  15  16
ENDBRANCH   1  15
BRANCH   1  20
HETATM   20  C   UNK N   1      21.030  18.835   2.253  0.00  0.00     0.259 C 
BRANCH  20  21
HETATM   21  C   UNK N   1      20.835  20.075   1.416  0.00  0.00     0.173 C 
HETATM   22  O   UNK N   1      20.717  21.157   1.964  0.00  0.00    -0.648 OA
BRANCH  21  23
HETATM   23  O   UNK N   1      20.757  20.001   0.072  0.00  0.00    -0.774 OA
HETATM   24  H   UNK N   1      20.385  19.875  -0.779  0.00  0.00     0.167 HD
ENDBRANCH  21  23
ENDBRANCH  20  21
BRANCH  20  25
HETATM   25  O   UNK N   1      20.037  17.905   1.955  0.00  0.00    -0.299 OA
BRANCH  25  26
HETATM   26  C   UNK N   1      20.033  16.946   0.991  0.00  0.00     0.283 C 
HETATM   27  O   UNK N   1      20.560  17.200  -0.084  0.00  0.00    -0.260 OA
BRANCH  26  28
HETATM   28  C   UNK N   1      19.445  15.604   1.209  0.00  0.00     0.083 C 
HETATM   29  C   UNK N   1      20.172  14.488   1.404  0.00  0.00     0.017 C 
BRANCH  29  30
HETATM   30  C   UNK N   1      21.641  14.492   1.536  0.00  0.00    -0.036 A 
HETATM   31  C   UNK N   1      22.225  15.010   2.699  0.00  0.00     0.014 A 
HETATM   32  C   UNK N   1      23.617  15.040   2.834  0.00  0.00     0.037 A 
HETATM   33  C   UNK N   1      24.429  14.548   1.809  0.00  0.00     0.065 A 
HETATM   34  C   UNK N   1      23.849  14.022   0.649  0.00  0.00     0.037 A 
HETATM   35  C   UNK N   1      22.457  13.993   0.512  0.00  0.00     0.014 A 
BRANCH  33  36
HETATM   36  O   UNK N   1      25.765  14.578   1.937  0.00  0.00    -0.361 OA
HETATM   37  H   UNK N   1      26.318  15.295   2.178  0.00  0.00     0.217 HD
ENDBRANCH  33  36
ENDBRANCH  29  30
ENDBRANCH  26  28
ENDBRANCH  25  26
ENDBRANCH  20  25
ENDBRANCH   1  20
TORSDOF 16
ENDMDL
MODEL 8
REMARK VINA RESULT:      -6.6     17.162     21.579
REMARK  16 active torsions:
REMARK  status: ('A' for Active; 'I' for Inactive)
REMARK    1  A    between atoms: C_3  and  O_4 
REMARK    2  A    between atoms: C_7  and  C_8 
REMARK    3  A    between atoms: C_9  and  C_10 
REMARK    4  A    between atoms: C_10  and  O_12 
REMARK    5  A    between atoms: C_13  and  O_12 
REMARK    6  A    between atoms: C_13  and  C_14 
REMARK    7  A    between atoms: C_13  and  C_18 
REMARK    8  A    between atoms: C_14  and  C_15 
REMARK    9  A    between atoms: C_15  and  O_16 
REMARK   10  A    between atoms: C_18  and  C_19 
REMARK   11  A    between atoms: C_18  and  O_22 
REMARK   12  A    between atoms: C_19  and  O_20 
REMARK   13  A    between atoms: O_22  and  C_23 
REMARK   14  A    between atoms: C_23  and  C_25 
REMARK   15  A    between atoms: C_26  and  C_27 
REMARK   16  A    between atoms: C_30  and  O_31 
ROOT
HETATM    1  C   UNK N   1      34.438  13.740  10.994  0.00  0.00     0.182 C 
ENDROOT
BRANCH   1   2
HETATM    2  O   UNK N   1      34.688  14.256  12.261  0.00  0.00    -0.309 OA
BRANCH   2   3
HETATM    3  C   UNK N   1      35.114  13.579  13.357  0.00  0.00     0.283 C 
HETATM    4  O   UNK N   1      34.407  12.743  13.898  0.00  0.00    -0.260 OA
BRANCH   3   5
HETATM    5  C   UNK N   1      36.409  13.957  13.950  0.00  0.00     0.083 C 
HETATM    6  C   UNK N   1      36.801  13.760  15.218  0.00  0.00     0.017 C 
BRANCH   6   7
HETATM    7  C   UNK N   1      36.198  12.837  16.200  0.00  0.00    -0.036 A 
HETATM    8  C   UNK N   1      35.530  13.380  17.302  0.00  0.00     0.014 A 
HETATM    9  C   UNK N   1      35.042  12.547  18.311  0.00  0.00     0.037 A 
HETATM   10  C   UNK N   1      35.237  11.165  18.232  0.00  0.00     0.065 A 
HETATM   11  C   UNK N   1      35.907  10.615  17.138  0.00  0.00     0.037 A 
HETATM   12  C   UNK N   1      36.392  11.449  16.128  0.00  0.00     0.014 A 
BRANCH  10  13
HETATM   13  O   UNK N   1      34.786  10.367  19.213  0.00  0.00    -0.361 OA
HETATM   14  H   UNK N   1      35.217   9.556  19.397  0.00  0.00     0.217 HD
ENDBRANCH  10  13
ENDBRANCH   6   7
ENDBRANCH   3   5
ENDBRANCH   2   3
ENDBRANCH   1   2
BRANCH   1  15
HETATM   15  C   UNK N   1      35.431  12.597  10.711  0.00  0.00     0.145 C 
BRANCH  15  16
HETATM   16  C   UNK N   1      34.832  11.209  10.681  0.00  0.00     0.141 C 
HETATM   17  O   UNK N   1      35.278  10.339   9.949  0.00  0.00    -0.650 OA
BRANCH  16  18
HETATM   18  O   UNK N   1      33.758  10.940  11.447  0.00  0.00    -0.776 OA
HETATM   19  H   UNK N   1      32.960  11.401  11.615  0.00  0.00     0.167 HD
ENDBRANCH  16  18
ENDBRANCH  15  16
ENDBRANCH   1  15
BRANCH   1  20
HETATM   20  C   UNK N   1      34.509  14.810   9.858  0.00  0.00     0.259 C 
BRANCH  20  21
HETATM   21  C   UNK N   1      35.287  16.054  10.208  0.00  0.00     0.173 C 
HETATM   22  O   UNK N   1      36.494  15.984  10.364  0.00  0.00    -0.648 OA
BRANCH  21  23
HETATM   23  O   UNK N   1      34.663  17.237  10.382  0.00  0.00    -0.774 OA
HETATM   24  H   UNK N   1      34.551  18.152  10.549  0.00  0.00     0.167 HD
ENDBRANCH  21  23
ENDBRANCH  20  21
BRANCH  20  25
HETATM   25  O   UNK N   1      33.258  15.161   9.359  0.00  0.00    -0.299 OA
BRANCH  25  26
HETATM   26  C   UNK N   1      32.812  15.115   8.074  0.00  0.00     0.283 C 
HETATM   27  O   UNK N   1      32.100  14.177   7.740  0.00  0.00    -0.260 OA
BRANCH  26  28
HETATM   28  C   UNK N   1      33.133  16.169   7.084  0.00  0.00     0.083 C 
HETATM   29  C   UNK N   1      32.315  17.196   6.790  0.00  0.00     0.017 C 
BRANCH  29  30
HETATM   30  C   UNK N   1      31.050  17.454   7.503  0.00  0.00    -0.036 A 
HETATM   31  C   UNK N   1      29.843  17.019   6.941  0.00  0.00     0.014 A 
HETATM   32  C   UNK N   1      28.632  17.271   7.592  0.00  0.00     0.037 A 
HETATM   33  C   UNK N   1      28.623  17.957   8.811  0.00  0.00     0.065 A 
HETATM   34  C   UNK N   1      29.828  18.386   9.380  0.00  0.00     0.037 A 
HETATM   35  C   UNK N   1      31.040  18.135   8.727  0.00  0.00     0.014 A 
BRANCH  33  36
HETATM   36  O   UNK N   1      27.461  18.202   9.436  0.00  0.00    -0.361 OA
HETATM   37  H   UNK N   1      26.702  18.647   9.115  0.00  0.00     0.217 HD
ENDBRANCH  33  36
ENDBRANCH  29  30
ENDBRANCH  26  28
ENDBRANCH  25  26
ENDBRANCH  20  25
ENDBRANCH   1  20
TORSDOF 16
ENDMDL
MODEL 9
REMARK VINA RESULT:      -6.6      2.026      6.807
REMARK  16 active torsions:
REMARK  status: ('A' for Active; 'I' for Inactive)
REMARK    1  A    between atoms: C_3  and  O_4 
REMARK    2  A    between atoms: C_7  and  C_8 
REMARK    3  A    between atoms: C_9  and  C_10 
REMARK    4  A    between atoms: C_10  and  O_12 
REMARK    5  A    between atoms: C_13  and  O_12 
REMARK    6  A    between atoms: C_13  and  C_14 
REMARK    7  A    between atoms: C_13  and  C_18 
REMARK    8  A    between atoms: C_14  and  C_15 
REMARK    9  A    between atoms: C_15  and  O_16 
REMARK   10  A    between atoms: C_18  and  C_19 
REMARK   11  A    between atoms: C_18  and  O_22 
REMARK   12  A    between atoms: C_19  and  O_20 
REMARK   13  A    between atoms: O_22  and  C_23 
REMARK   14  A    between atoms: C_23  and  C_25 
REMARK   15  A    between atoms: C_26  and  C_27 
REMARK   16  A    between atoms: C_30  and  O_31 
ROOT
HETATM    1  C   UNK N   1      28.814  23.760  -4.604  0.00  0.00     0.182 C 
ENDROOT
BRANCH   1   2
HETATM    2  O   UNK N   1      27.864  24.770  -4.502  0.00  0.00    -0.309 OA
BRANCH   2   3
HETATM    3  C   UNK N   1      26.537  24.631  -4.258  0.00  0.00     0.283 C 
HETATM    4  O   UNK N   1      26.133  24.143  -3.214  0.00  0.00    -0.260 OA
BRANCH   3   5
HETATM    5  C   UNK N   1      25.591  24.981  -5.333  0.00  0.00     0.083 C 
HETATM    6  C   UNK N   1      25.180  26.213  -5.673  0.00  0.00     0.017 C 
BRANCH   6   7
HETATM    7  C   UNK N   1      25.818  27.493  -5.307  0.00  0.00    -0.036 A 
HETATM    8  C   UNK N   1      26.831  27.992  -6.132  0.00  0.00     0.014 A 
HETATM    9  C   UNK N   1      27.537  29.141  -5.766  0.00  0.00     0.037 A 
HETATM   10  C   UNK N   1      27.245  29.786  -4.560  0.00  0.00     0.065 A 
HETATM   11  C   UNK N   1      26.239  29.290  -3.728  0.00  0.00     0.037 A 
HETATM   12  C   UNK N   1      25.532  28.144  -4.097  0.00  0.00     0.014 A 
BRANCH  10  13
HETATM   13  O   UNK N   1      27.938  30.877  -4.199  0.00  0.00    -0.361 OA
HETATM   14  H   UNK N   1      28.869  30.835  -4.107  0.00  0.00     0.217 HD
ENDBRANCH  10  13
ENDBRANCH   6   7
ENDBRANCH   3   5
ENDBRANCH   2   3
ENDBRANCH   1   2
BRANCH   1  15
HETATM   15  C   UNK N   1      29.874  23.953  -3.503  0.00  0.00     0.145 C 
BRANCH  15  16
HETATM   16  C   UNK N   1      29.591  23.243  -2.197  0.00  0.00     0.141 C 
HETATM   17  O   UNK N   1      30.497  22.872  -1.467  0.00  0.00    -0.650 OA
BRANCH  16  18
HETATM   18  O   UNK N   1      28.317  22.980  -1.856  0.00  0.00    -0.776 OA
HETATM   19  H   UNK N   1      27.737  23.342  -1.215  0.00  0.00     0.167 HD
ENDBRANCH  16  18
ENDBRANCH  15  16
ENDBRANCH   1  15
BRANCH   1  20
HETATM   20  C   UNK N   1      29.499  23.685  -6.005  0.00  0.00     0.259 C 
BRANCH  20  21
HETATM   21  C   UNK N   1      29.568  24.996  -6.747  0.00  0.00     0.173 C 
HETATM   22  O   UNK N   1      30.594  25.653  -6.712  0.00  0.00    -0.648 OA
BRANCH  21  23
HETATM   23  O   UNK N   1      28.502  25.468  -7.424  0.00  0.00    -0.774 OA
HETATM   24  H   UNK N   1      27.643  25.807  -7.579  0.00  0.00     0.167 HD
ENDBRANCH  21  23
ENDBRANCH  20  21
BRANCH  20  25
HETATM   25  O   UNK N   1      28.953  22.705  -6.830  0.00  0.00    -0.299 OA
BRANCH  25  26
HETATM   26  C   UNK N   1      29.523  21.552  -7.272  0.00  0.00     0.283 C 
HETATM   27  O   UNK N   1      28.981  20.491  -6.992  0.00  0.00    -0.260 OA
BRANCH  26  28
HETATM   28  C   UNK N   1      30.752  21.541  -8.101  0.00  0.00     0.083 C 
HETATM   29  C   UNK N   1      31.998  21.531  -7.593  0.00  0.00     0.017 C 
BRANCH  29  30
HETATM   30  C   UNK N   1      32.285  21.417  -6.151  0.00  0.00    -0.036 A 
HETATM   31  C   UNK N   1      32.085  20.190  -5.506  0.00  0.00     0.014 A 
HETATM   32  C   UNK N   1      32.332  20.067  -4.135  0.00  0.00     0.037 A 
HETATM   33  C   UNK N   1      32.785  21.169  -3.405  0.00  0.00     0.065 A 
HETATM   34  C   UNK N   1      32.995  22.395  -4.048  0.00  0.00     0.037 A 
HETATM   35  C   UNK N   1      32.746  22.519  -5.419  0.00  0.00     0.014 A 
BRANCH  33  36
HETATM   36  O   UNK N   1      33.022  21.053  -2.089  0.00  0.00    -0.361 OA
HETATM   37  H   UNK N   1      33.816  21.209  -1.617  0.00  0.00     0.217 HD
ENDBRANCH  33  36
ENDBRANCH  29  30
ENDBRANCH  26  28
ENDBRANCH  25  26
ENDBRANCH  20  25
ENDBRANCH   1  20
TORSDOF 16
ENDMDL
