MODEL 1
REMARK VINA RESULT:      -6.2      0.000      0.000
REMARK  11 active torsions:
REMARK  status: ('A' for Active; 'I' for Inactive)
REMARK    1  A    between atoms: C_2  and  C_3 
REMARK    2  A    between atoms: C_3  and  C_4 
REMARK    3  A    between atoms: C_4  and  C_5 
REMARK    4  A    between atoms: C_5  and  C_6 
REMARK    5  A    between atoms: C_6  and  C_7 
REMARK    6  A    between atoms: C_7  and  C_8 
REMARK    7  A    between atoms: C_8  and  C_9 
REMARK    8  A    between atoms: C_9  and  C_10 
REMARK    9  A    between atoms: C_10  and  C_12 
REMARK   10  A    between atoms: C_12  and  C_13 
REMARK       I    between atoms: C_13  and  N_15 
REMARK   11  A    between atoms: C_16  and  N_15 
ROOT
HETATM    1  C   UNK N   1      35.807  15.566  10.542  0.00  0.00     0.181 C 
ENDROOT
BRANCH   1   2
HETATM    2  C   UNK N   1      34.986  14.747  11.504  0.00  0.00     0.135 C 
HETATM    3  O   UNK N   1      33.764  14.796  11.460  0.00  0.00    -0.297 OA
BRANCH   2   4
HETATM    4  C   UNK N   1      35.676  13.905  12.543  0.00  0.00     0.079 C 
BRANCH   4   5
HETATM    5  C   UNK N   1      36.393  14.766  13.576  0.00  0.00     0.007 C 
BRANCH   5   6
HETATM    6  C   UNK N   1      36.642  14.025  14.875  0.00  0.00     0.000 C 
BRANCH   6   7
HETATM    7  C   UNK N   1      35.476  13.079  15.096  0.00  0.00     0.000 C 
BRANCH   7   8
HETATM    8  C   UNK N   1      35.529  12.469  16.480  0.00  0.00     0.000 C 
BRANCH   8   9
HETATM    9  C   UNK N   1      35.081  13.502  17.494  0.00  0.00     0.000 C 
BRANCH   9  10
HETATM   10  C   UNK N   1      35.240  12.943  18.893  0.00  0.00    -0.000 C 
BRANCH  10  11
HETATM   11  C   UNK N   1      35.238  11.429  18.840  0.00  0.00    -0.005 C 
HETATM   12  C   UNK N   1      36.178  10.889  19.896  0.00  0.00     0.005 C 
ENDBRANCH  10  11
ENDBRANCH   9  10
ENDBRANCH   8   9
ENDBRANCH   7   8
ENDBRANCH   6   7
ENDBRANCH   5   6
ENDBRANCH   4   5
ENDBRANCH   2   4
ENDBRANCH   1   2
BRANCH   1  13
HETATM   13  C   UNK N   1      35.069  16.725   9.914  0.00  0.00     0.225 C 
HETATM   14  O   UNK N   1      35.512  17.864  10.001  0.00  0.00    -0.273 OA
HETATM   15  N   UNK N   1      33.913  16.492   9.243  0.00  0.00    -0.347 N 
HETATM   16  H   UNK N   1      33.560  15.573   9.217  0.00  0.00     0.163 HD
BRANCH  15  17
HETATM   17  C   UNK N   1      33.173  17.538   8.562  0.00  0.00     0.178 A 
HETATM   18  C   UNK N   1      33.498  17.588   7.113  0.00  0.00     0.240 A 
HETATM   19  N   UNK N   1      32.452  17.378   6.316  0.00  0.00    -0.359 N 
HETATM   20  O   UNK N   1      34.610  17.817   6.672  0.00  0.00    -0.271 OA
HETATM   21  C   UNK N   1      31.248  17.152   7.055  0.00  0.00     0.125 A 
HETATM   22  H   UNK N   1      32.501  17.378   5.332  0.00  0.00     0.162 HD
HETATM   23  C   UNK N   1      31.677  17.196   8.533  0.00  0.00     0.054 A 
ENDBRANCH  15  17
ENDBRANCH   1  13
TORSDOF 11
ENDMDL
MODEL 2
REMARK VINA RESULT:      -5.9     18.120     21.091
REMARK  11 active torsions:
REMARK  status: ('A' for Active; 'I' for Inactive)
REMARK    1  A    between atoms: C_2  and  C_3 
REMARK    2  A    between atoms: C_3  and  C_4 
REMARK    3  A    between atoms: C_4  and  C_5 
REMARK    4  A    between atoms: C_5  and  C_6 
REMARK    5  A    between atoms: C_6  and  C_7 
REMARK    6  A    between atoms: C_7  and  C_8 
REMARK    7  A    between atoms: C_8  and  C_9 
REMARK    8  A    between atoms: C_9  and  C_10 
REMARK    9  A    between atoms: C_10  and  C_12 
REMARK   10  A    between atoms: C_12  and  C_13 
REMARK       I    between atoms: C_13  and  N_15 
REMARK   11  A    between atoms: C_16  and  N_15 
ROOT
HETATM    1  C   UNK N   1      29.632  24.150  -3.395  0.00  0.00     0.181 C 
ENDROOT
BRANCH   1   2
HETATM    2  C   UNK N   1      30.109  22.937  -2.638  0.00  0.00     0.135 C 
HETATM    3  O   UNK N   1      30.362  23.023  -1.445  0.00  0.00    -0.297 OA
BRANCH   2   4
HETATM    4  C   UNK N   1      30.314  21.637  -3.369  0.00  0.00     0.079 C 
BRANCH   4   5
HETATM    5  C   UNK N   1      31.160  21.826  -4.623  0.00  0.00     0.007 C 
BRANCH   5   6
HETATM    6  C   UNK N   1      30.725  20.919  -5.757  0.00  0.00     0.000 C 
BRANCH   6   7
HETATM    7  C   UNK N   1      29.409  21.451  -6.292  0.00  0.00     0.000 C 
BRANCH   7   8
HETATM    8  C   UNK N   1      28.982  20.693  -7.531  0.00  0.00     0.000 C 
BRANCH   8   9
HETATM    9  C   UNK N   1      27.707  21.309  -8.073  0.00  0.00     0.000 C 
BRANCH   9  10
HETATM   10  C   UNK N   1      27.235  22.403  -7.139  0.00  0.00    -0.000 C 
BRANCH  10  11
HETATM   11  C   UNK N   1      25.740  22.591  -7.287  0.00  0.00    -0.005 C 
HETATM   12  C   UNK N   1      25.098  21.261  -7.624  0.00  0.00     0.005 C 
ENDBRANCH  10  11
ENDBRANCH   9  10
ENDBRANCH   8   9
ENDBRANCH   7   8
ENDBRANCH   6   7
ENDBRANCH   5   6
ENDBRANCH   4   5
ENDBRANCH   2   4
ENDBRANCH   1   2
BRANCH   1  13
HETATM   13  C   UNK N   1      28.143  24.397  -3.312  0.00  0.00     0.225 C 
HETATM   14  O   UNK N   1      27.438  23.701  -2.593  0.00  0.00    -0.273 OA
HETATM   15  N   UNK N   1      27.595  25.404  -4.037  0.00  0.00    -0.347 N 
HETATM   16  H   UNK N   1      28.178  25.926  -4.635  0.00  0.00     0.163 HD
BRANCH  15  17
HETATM   17  C   UNK N   1      26.186  25.746  -3.971  0.00  0.00     0.178 A 
HETATM   18  C   UNK N   1      25.982  27.172  -3.608  0.00  0.00     0.240 A 
HETATM   19  N   UNK N   1      25.330  27.877  -4.531  0.00  0.00    -0.359 N 
HETATM   20  O   UNK N   1      26.352  27.668  -2.560  0.00  0.00    -0.271 OA
HETATM   21  C   UNK N   1      24.977  27.083  -5.667  0.00  0.00     0.125 A 
HETATM   22  H   UNK N   1      25.117  28.835  -4.442  0.00  0.00     0.162 HD
HETATM   23  C   UNK N   1      25.561  25.688  -5.372  0.00  0.00     0.054 A 
ENDBRANCH  15  17
ENDBRANCH   1  13
TORSDOF 11
ENDMDL
MODEL 3
REMARK VINA RESULT:      -5.8     17.606     21.237
REMARK  11 active torsions:
REMARK  status: ('A' for Active; 'I' for Inactive)
REMARK    1  A    between atoms: C_2  and  C_3 
REMARK    2  A    between atoms: C_3  and  C_4 
REMARK    3  A    between atoms: C_4  and  C_5 
REMARK    4  A    between atoms: C_5  and  C_6 
REMARK    5  A    between atoms: C_6  and  C_7 
REMARK    6  A    between atoms: C_7  and  C_8 
REMARK    7  A    between atoms: C_8  and  C_9 
REMARK    8  A    between atoms: C_9  and  C_10 
REMARK    9  A    between atoms: C_10  and  C_12 
REMARK   10  A    between atoms: C_12  and  C_13 
REMARK       I    between atoms: C_13  and  N_15 
REMARK   11  A    between atoms: C_16  and  N_15 
ROOT
HETATM    1  C   UNK N   1      28.235  25.459  -3.770  0.00  0.00     0.181 C 
ENDROOT
BRANCH   1   2
HETATM    2  C   UNK N   1      27.106  24.482  -3.568  0.00  0.00     0.135 C 
HETATM    3  O   UNK N   1      27.032  23.840  -2.529  0.00  0.00    -0.297 OA
BRANCH   2   4
HETATM    4  C   UNK N   1      26.099  24.271  -4.667  0.00  0.00     0.079 C 
BRANCH   4   5
HETATM    5  C   UNK N   1      26.588  24.840  -5.993  0.00  0.00     0.007 C 
BRANCH   5   6
HETATM    6  C   UNK N   1      25.544  25.702  -6.674  0.00  0.00     0.000 C 
BRANCH   6   7
HETATM    7  C   UNK N   1      24.882  26.554  -5.606  0.00  0.00     0.000 C 
BRANCH   7   8
HETATM    8  C   UNK N   1      25.642  27.845  -5.396  0.00  0.00     0.000 C 
BRANCH   8   9
HETATM    9  C   UNK N   1      25.703  28.147  -3.912  0.00  0.00     0.000 C 
BRANCH   9  10
HETATM   10  C   UNK N   1      26.556  29.377  -3.680  0.00  0.00    -0.000 C 
BRANCH  10  11
HETATM   11  C   UNK N   1      27.520  29.122  -2.539  0.00  0.00    -0.005 C 
HETATM   12  C   UNK N   1      28.472  30.292  -2.415  0.00  0.00     0.005 C 
ENDBRANCH  10  11
ENDBRANCH   9  10
ENDBRANCH   8   9
ENDBRANCH   7   8
ENDBRANCH   6   7
ENDBRANCH   5   6
ENDBRANCH   4   5
ENDBRANCH   2   4
ENDBRANCH   1   2
BRANCH   1  13
HETATM   13  C   UNK N   1      29.613  24.840  -3.743  0.00  0.00     0.225 C 
HETATM   14  O   UNK N   1      30.557  25.446  -3.250  0.00  0.00    -0.273 OA
HETATM   15  N   UNK N   1      29.796  23.600  -4.264  0.00  0.00    -0.347 N 
HETATM   16  H   UNK N   1      29.029  23.149  -4.686  0.00  0.00     0.163 HD
BRANCH  15  17
HETATM   17  C   UNK N   1      31.072  22.910  -4.227  0.00  0.00     0.178 A 
HETATM   18  C   UNK N   1      31.200  22.055  -3.018  0.00  0.00     0.240 A 
HETATM   19  N   UNK N   1      31.368  20.761  -3.286  0.00  0.00    -0.359 N 
HETATM   20  O   UNK N   1      31.175  22.479  -1.877  0.00  0.00    -0.271 OA
HETATM   21  C   UNK N   1      31.386  20.499  -4.693  0.00  0.00     0.125 A 
HETATM   22  H   UNK N   1      31.468  20.065  -2.596  0.00  0.00     0.162 HD
HETATM   23  C   UNK N   1      31.145  21.870  -5.353  0.00  0.00     0.054 A 
ENDBRANCH  15  17
ENDBRANCH   1  13
TORSDOF 11
ENDMDL
MODEL 4
REMARK VINA RESULT:      -5.7     17.160     20.859
REMARK  11 active torsions:
REMARK  status: ('A' for Active; 'I' for Inactive)
REMARK    1  A    between atoms: C_2  and  C_3 
REMARK    2  A    between atoms: C_3  and  C_4 
REMARK    3  A    between atoms: C_4  and  C_5 
REMARK    4  A    between atoms: C_5  and  C_6 
REMARK    5  A    between atoms: C_6  and  C_7 
REMARK    6  A    between atoms: C_7  and  C_8 
REMARK    7  A    between atoms: C_8  and  C_9 
REMARK    8  A    between atoms: C_9  and  C_10 
REMARK    9  A    between atoms: C_10  and  C_12 
REMARK   10  A    between atoms: C_12  and  C_13 
REMARK       I    between atoms: C_13  and  N_15 
REMARK   11  A    between atoms: C_16  and  N_15 
ROOT
HETATM    1  C   UNK N   1      29.378  24.425  -3.138  0.00  0.00     0.181 C 
ENDROOT
BRANCH   1   2
HETATM    2  C   UNK N   1      27.943  24.170  -3.524  0.00  0.00     0.135 C 
HETATM    3  O   UNK N   1      27.097  24.004  -2.657  0.00  0.00    -0.297 OA
BRANCH   2   4
HETATM    4  C   UNK N   1      27.570  24.079  -4.980  0.00  0.00     0.079 C 
BRANCH   4   5
HETATM    5  C   UNK N   1      26.094  24.387  -5.200  0.00  0.00     0.007 C 
BRANCH   5   6
HETATM    6  C   UNK N   1      25.806  24.867  -6.609  0.00  0.00     0.000 C 
BRANCH   6   7
HETATM    7  C   UNK N   1      25.763  26.384  -6.579  0.00  0.00     0.000 C 
BRANCH   7   8
HETATM    8  C   UNK N   1      24.759  26.876  -5.559  0.00  0.00     0.000 C 
BRANCH   8   9
HETATM    9  C   UNK N   1      25.368  28.026  -4.781  0.00  0.00     0.000 C 
BRANCH   9  10
HETATM   10  C   UNK N   1      25.875  27.523  -3.446  0.00  0.00    -0.000 C 
BRANCH  10  11
HETATM   11  C   UNK N   1      27.150  28.252  -3.076  0.00  0.00    -0.005 C 
HETATM   12  C   UNK N   1      28.264  27.820  -4.005  0.00  0.00     0.005 C 
ENDBRANCH  10  11
ENDBRANCH   9  10
ENDBRANCH   8   9
ENDBRANCH   7   8
ENDBRANCH   6   7
ENDBRANCH   5   6
ENDBRANCH   4   5
ENDBRANCH   2   4
ENDBRANCH   1   2
BRANCH   1  13
HETATM   13  C   UNK N   1      30.148  23.189  -2.735  0.00  0.00     0.225 C 
HETATM   14  O   UNK N   1      30.299  22.909  -1.552  0.00  0.00    -0.273 OA
HETATM   15  N   UNK N   1      30.666  22.384  -3.697  0.00  0.00    -0.347 N 
HETATM   16  H   UNK N   1      30.562  22.650  -4.639  0.00  0.00     0.163 HD
BRANCH  15  17
HETATM   17  C   UNK N   1      31.368  21.150  -3.398  0.00  0.00     0.178 A 
HETATM   18  C   UNK N   1      31.740  20.415  -4.635  0.00  0.00     0.240 A 
HETATM   19  N   UNK N   1      33.052  20.236  -4.784  0.00  0.00    -0.359 N 
HETATM   20  O   UNK N   1      30.935  19.991  -5.443  0.00  0.00    -0.271 OA
HETATM   21  C   UNK N   1      33.800  20.800  -3.703  0.00  0.00     0.125 A 
HETATM   22  H   UNK N   1      33.459  19.769  -5.549  0.00  0.00     0.162 HD
HETATM   23  C   UNK N   1      32.745  21.457  -2.792  0.00  0.00     0.054 A 
ENDBRANCH  15  17
ENDBRANCH   1  13
TORSDOF 11
ENDMDL
MODEL 5
REMARK VINA RESULT:      -5.7      1.620      2.493
REMARK  11 active torsions:
REMARK  status: ('A' for Active; 'I' for Inactive)
REMARK    1  A    between atoms: C_2  and  C_3 
REMARK    2  A    between atoms: C_3  and  C_4 
REMARK    3  A    between atoms: C_4  and  C_5 
REMARK    4  A    between atoms: C_5  and  C_6 
REMARK    5  A    between atoms: C_6  and  C_7 
REMARK    6  A    between atoms: C_7  and  C_8 
REMARK    7  A    between atoms: C_8  and  C_9 
REMARK    8  A    between atoms: C_9  and  C_10 
REMARK    9  A    between atoms: C_10  and  C_12 
REMARK   10  A    between atoms: C_12  and  C_13 
REMARK       I    between atoms: C_13  and  N_15 
REMARK   11  A    between atoms: C_16  and  N_15 
ROOT
HETATM    1  C   UNK N   1      35.640  16.298  10.742  0.00  0.00     0.181 C 
ENDROOT
BRANCH   1   2
HETATM    2  C   UNK N   1      35.212  14.862  10.582  0.00  0.00     0.135 C 
HETATM    3  O   UNK N   1      34.983  14.413   9.468  0.00  0.00    -0.297 OA
BRANCH   2   4
HETATM    4  C   UNK N   1      35.025  14.001  11.803  0.00  0.00     0.079 C 
BRANCH   4   5
HETATM    5  C   UNK N   1      35.866  14.497  12.973  0.00  0.00     0.007 C 
BRANCH   5   6
HETATM    6  C   UNK N   1      36.379  13.364  13.839  0.00  0.00     0.000 C 
BRANCH   6   7
HETATM    7  C   UNK N   1      35.378  13.151  14.960  0.00  0.00     0.000 C 
BRANCH   7   8
HETATM    8  C   UNK N   1      35.810  12.015  15.862  0.00  0.00     0.000 C 
BRANCH   8   9
HETATM    9  C   UNK N   1      35.204  10.722  15.353  0.00  0.00     0.000 C 
BRANCH   9  10
HETATM   10  C   UNK N   1      33.838  11.000  14.760  0.00  0.00    -0.000 C 
BRANCH  10  11
HETATM   11  C   UNK N   1      33.771  10.445  13.353  0.00  0.00    -0.005 C 
HETATM   12  C   UNK N   1      34.941   9.513  13.123  0.00  0.00     0.005 C 
ENDBRANCH  10  11
ENDBRANCH   9  10
ENDBRANCH   8   9
ENDBRANCH   7   8
ENDBRANCH   6   7
ENDBRANCH   5   6
ENDBRANCH   4   5
ENDBRANCH   2   4
ENDBRANCH   1   2
BRANCH   1  13
HETATM   13  C   UNK N   1      34.969  17.263   9.792  0.00  0.00     0.225 C 
HETATM   14  O   UNK N   1      35.525  18.306   9.472  0.00  0.00    -0.273 OA
HETATM   15  N   UNK N   1      33.746  16.959   9.289  0.00  0.00    -0.347 N 
HETATM   16  H   UNK N   1      33.306  16.131   9.589  0.00  0.00     0.163 HD
BRANCH  15  17
HETATM   17  C   UNK N   1      33.059  17.800   8.327  0.00  0.00     0.178 A 
HETATM   18  C   UNK N   1      33.403  17.433   6.929  0.00  0.00     0.240 A 
HETATM   19  N   UNK N   1      32.358  17.049   6.198  0.00  0.00    -0.359 N 
HETATM   20  O   UNK N   1      34.528  17.489   6.467  0.00  0.00    -0.271 OA
HETATM   21  C   UNK N   1      31.137  17.081   6.942  0.00  0.00     0.125 A 
HETATM   22  H   UNK N   1      32.420  16.774   5.254  0.00  0.00     0.162 HD
HETATM   23  C   UNK N   1      31.550  17.519   8.360  0.00  0.00     0.054 A 
ENDBRANCH  15  17
ENDBRANCH   1  13
TORSDOF 11
ENDMDL
MODEL 6
REMARK VINA RESULT:      -5.7      4.385     10.211
REMARK  11 active torsions:
REMARK  status: ('A' for Active; 'I' for Inactive)
REMARK    1  A    between atoms: C_2  and  C_3 
REMARK    2  A    between atoms: C_3  and  C_4 
REMARK    3  A    between atoms: C_4  and  C_5 
REMARK    4  A    between atoms: C_5  and  C_6 
REMARK    5  A    between atoms: C_6  and  C_7 
REMARK    6  A    between atoms: C_7  and  C_8 
REMARK    7  A    between atoms: C_8  and  C_9 
REMARK    8  A    between atoms: C_9  and  C_10 
REMARK    9  A    between atoms: C_10  and  C_12 
REMARK   10  A    between atoms: C_12  and  C_13 
REMARK       I    between atoms: C_13  and  N_15 
REMARK   11  A    between atoms: C_16  and  N_15 
ROOT
HETATM    1  C   UNK N   1      32.166  17.592   7.370  0.00  0.00     0.181 C 
ENDROOT
BRANCH   1   2
HETATM    2  C   UNK N   1      31.209  17.407   8.518  0.00  0.00     0.135 C 
HETATM    3  O   UNK N   1      31.051  16.298   9.009  0.00  0.00    -0.297 OA
BRANCH   2   4
HETATM    4  C   UNK N   1      30.418  18.583   9.026  0.00  0.00     0.079 C 
BRANCH   4   5
HETATM    5  C   UNK N   1      28.918  18.316   8.973  0.00  0.00     0.007 C 
BRANCH   5   6
HETATM    6  C   UNK N   1      28.296  18.760   7.665  0.00  0.00     0.000 C 
BRANCH   6   7
HETATM    7  C   UNK N   1      27.930  17.513   6.882  0.00  0.00     0.000 C 
BRANCH   7   8
HETATM    8  C   UNK N   1      27.526  17.862   5.466  0.00  0.00     0.000 C 
BRANCH   8   9
HETATM    9  C   UNK N   1      28.231  19.138   5.051  0.00  0.00     0.000 C 
BRANCH   9  10
HETATM   10  C   UNK N   1      27.287  19.998   4.236  0.00  0.00    -0.000 C 
BRANCH  10  11
HETATM   11  C   UNK N   1      26.308  20.695   5.157  0.00  0.00    -0.005 C 
HETATM   12  C   UNK N   1      27.061  21.641   6.068  0.00  0.00     0.005 C 
ENDBRANCH  10  11
ENDBRANCH   9  10
ENDBRANCH   8   9
ENDBRANCH   7   8
ENDBRANCH   6   7
ENDBRANCH   5   6
ENDBRANCH   4   5
ENDBRANCH   2   4
ENDBRANCH   1   2
BRANCH   1  13
HETATM   13  C   UNK N   1      33.593  17.197   7.671  0.00  0.00     0.225 C 
HETATM   14  O   UNK N   1      34.527  17.801   7.158  0.00  0.00    -0.273 OA
HETATM   15  N   UNK N   1      33.832  16.168   8.523  0.00  0.00    -0.347 N 
HETATM   16  H   UNK N   1      33.064  15.675   8.894  0.00  0.00     0.163 HD
BRANCH  15  17
HETATM   17  C   UNK N   1      35.170  15.761   8.912  0.00  0.00     0.178 A 
HETATM   18  C   UNK N   1      35.556  16.326  10.230  0.00  0.00     0.240 A 
HETATM   19  N   UNK N   1      35.828  15.406  11.154  0.00  0.00    -0.359 N 
HETATM   20  O   UNK N   1      35.639  17.518  10.463  0.00  0.00    -0.271 OA
HETATM   21  C   UNK N   1      35.683  14.076  10.650  0.00  0.00     0.125 A 
HETATM   22  H   UNK N   1      36.098  15.618  12.078  0.00  0.00     0.162 HD
HETATM   23  C   UNK N   1      35.203  14.253   9.197  0.00  0.00     0.054 A 
ENDBRANCH  15  17
ENDBRANCH   1  13
TORSDOF 11
ENDMDL
MODEL 7
REMARK VINA RESULT:      -5.5      1.388      1.934
REMARK  11 active torsions:
REMARK  status: ('A' for Active; 'I' for Inactive)
REMARK    1  A    between atoms: C_2  and  C_3 
REMARK    2  A    between atoms: C_3  and  C_4 
REMARK    3  A    between atoms: C_4  and  C_5 
REMARK    4  A    between atoms: C_5  and  C_6 
REMARK    5  A    between atoms: C_6  and  C_7 
REMARK    6  A    between atoms: C_7  and  C_8 
REMARK    7  A    between atoms: C_8  and  C_9 
REMARK    8  A    between atoms: C_9  and  C_10 
REMARK    9  A    between atoms: C_10  and  C_12 
REMARK   10  A    between atoms: C_12  and  C_13 
REMARK       I    between atoms: C_13  and  N_15 
REMARK   11  A    between atoms: C_16  and  N_15 
ROOT
HETATM    1  C   UNK N   1      35.547  15.810  10.894  0.00  0.00     0.181 C 
ENDROOT
BRANCH   1   2
HETATM    2  C   UNK N   1      36.170  14.666  10.138  0.00  0.00     0.135 C 
HETATM    3  O   UNK N   1      35.969  14.544   8.938  0.00  0.00    -0.297 OA
BRANCH   2   4
HETATM    4  C   UNK N   1      37.004  13.652  10.877  0.00  0.00     0.079 C 
BRANCH   4   5
HETATM    5  C   UNK N   1      36.390  13.298  12.226  0.00  0.00     0.007 C 
BRANCH   5   6
HETATM    6  C   UNK N   1      35.415  12.141  12.133  0.00  0.00     0.000 C 
BRANCH   6   7
HETATM    7  C   UNK N   1      34.632  12.093  13.432  0.00  0.00     0.000 C 
BRANCH   7   8
HETATM    8  C   UNK N   1      34.662  10.703  14.030  0.00  0.00     0.000 C 
BRANCH   8   9
HETATM    9  C   UNK N   1      34.531  10.809  15.536  0.00  0.00     0.000 C 
BRANCH   9  10
HETATM   10  C   UNK N   1      35.688  11.615  16.090  0.00  0.00    -0.000 C 
BRANCH  10  11
HETATM   11  C   UNK N   1      35.219  12.433  17.276  0.00  0.00    -0.005 C 
HETATM   12  C   UNK N   1      35.359  11.611  18.539  0.00  0.00     0.005 C 
ENDBRANCH  10  11
ENDBRANCH   9  10
ENDBRANCH   8   9
ENDBRANCH   7   8
ENDBRANCH   6   7
ENDBRANCH   5   6
ENDBRANCH   4   5
ENDBRANCH   2   4
ENDBRANCH   1   2
BRANCH   1  13
HETATM   13  C   UNK N   1      34.976  16.904  10.021  0.00  0.00     0.225 C 
HETATM   14  O   UNK N   1      35.572  17.965   9.886  0.00  0.00    -0.273 OA
HETATM   15  N   UNK N   1      33.799  16.695   9.378  0.00  0.00    -0.347 N 
HETATM   16  H   UNK N   1      33.323  15.847   9.531  0.00  0.00     0.163 HD
BRANCH  15  17
HETATM   17  C   UNK N   1      33.211  17.668   8.475  0.00  0.00     0.178 A 
HETATM   18  C   UNK N   1      33.581  17.400   7.061  0.00  0.00     0.240 A 
HETATM   19  N   UNK N   1      32.540  17.161   6.266  0.00  0.00    -0.359 N 
HETATM   20  O   UNK N   1      34.724  17.411   6.642  0.00  0.00    -0.271 OA
HETATM   21  C   UNK N   1      31.297  17.220   6.972  0.00  0.00     0.125 A 
HETATM   22  H   UNK N   1      32.617  16.966   5.304  0.00  0.00     0.162 HD
HETATM   23  C   UNK N   1      31.686  17.499   8.436  0.00  0.00     0.054 A 
ENDBRANCH  15  17
ENDBRANCH   1  13
TORSDOF 11
ENDMDL
MODEL 8
REMARK VINA RESULT:      -5.4      2.848      9.485
REMARK  11 active torsions:
REMARK  status: ('A' for Active; 'I' for Inactive)
REMARK    1  A    between atoms: C_2  and  C_3 
REMARK    2  A    between atoms: C_3  and  C_4 
REMARK    3  A    between atoms: C_4  and  C_5 
REMARK    4  A    between atoms: C_5  and  C_6 
REMARK    5  A    between atoms: C_6  and  C_7 
REMARK    6  A    between atoms: C_7  and  C_8 
REMARK    7  A    between atoms: C_8  and  C_9 
REMARK    8  A    between atoms: C_9  and  C_10 
REMARK    9  A    between atoms: C_10  and  C_12 
REMARK   10  A    between atoms: C_12  and  C_13 
REMARK       I    between atoms: C_13  and  N_15 
REMARK   11  A    between atoms: C_16  and  N_15 
ROOT
HETATM    1  C   UNK N   1      34.445  15.428  10.687  0.00  0.00     0.181 C 
ENDROOT
BRANCH   1   2
HETATM    2  C   UNK N   1      34.908  16.559   9.806  0.00  0.00     0.135 C 
HETATM    3  O   UNK N   1      35.577  17.468  10.279  0.00  0.00    -0.297 OA
BRANCH   2   4
HETATM    4  C   UNK N   1      34.506  16.586   8.356  0.00  0.00     0.079 C 
BRANCH   4   5
HETATM    5  C   UNK N   1      33.918  17.936   7.961  0.00  0.00     0.007 C 
BRANCH   5   6
HETATM    6  C   UNK N   1      32.455  18.062   8.336  0.00  0.00     0.000 C 
BRANCH   6   7
HETATM    7  C   UNK N   1      31.746  16.810   7.854  0.00  0.00     0.000 C 
BRANCH   7   8
HETATM    8  C   UNK N   1      30.714  17.143   6.800  0.00  0.00     0.000 C 
BRANCH   8   9
HETATM    9  C   UNK N   1      31.129  16.514   5.484  0.00  0.00     0.000 C 
BRANCH   9  10
HETATM   10  C   UNK N   1      31.569  17.596   4.521  0.00  0.00    -0.000 C 
BRANCH  10  11
HETATM   11  C   UNK N   1      32.836  17.164   3.813  0.00  0.00    -0.005 C 
HETATM   12  C   UNK N   1      33.560  16.139   4.659  0.00  0.00     0.005 C 
ENDBRANCH  10  11
ENDBRANCH   9  10
ENDBRANCH   8   9
ENDBRANCH   7   8
ENDBRANCH   6   7
ENDBRANCH   5   6
ENDBRANCH   4   5
ENDBRANCH   2   4
ENDBRANCH   1   2
BRANCH   1  13
HETATM   13  C   UNK N   1      35.559  14.657  11.358  0.00  0.00     0.225 C 
HETATM   14  O   UNK N   1      36.584  14.387  10.744  0.00  0.00    -0.273 OA
HETATM   15  N   UNK N   1      35.417  14.273  12.652  0.00  0.00    -0.347 N 
HETATM   16  H   UNK N   1      34.569  14.472  13.111  0.00  0.00     0.163 HD
BRANCH  15  17
HETATM   17  C   UNK N   1      36.460  13.582  13.387  0.00  0.00     0.178 A 
HETATM   18  C   UNK N   1      36.672  14.179  14.731  0.00  0.00     0.240 A 
HETATM   19  N   UNK N   1      36.455  13.335  15.738  0.00  0.00    -0.359 N 
HETATM   20  O   UNK N   1      37.030  15.327  14.918  0.00  0.00    -0.271 OA
HETATM   21  C   UNK N   1      36.064  12.037  15.280  0.00  0.00     0.125 A 
HETATM   22  H   UNK N   1      36.552  13.575  16.688  0.00  0.00     0.162 HD
HETATM   23  C   UNK N   1      36.002  12.162  13.746  0.00  0.00     0.054 A 
ENDBRANCH  15  17
ENDBRANCH   1  13
TORSDOF 11
ENDMDL
MODEL 9
REMARK VINA RESULT:      -5.4      1.481      2.218
REMARK  11 active torsions:
REMARK  status: ('A' for Active; 'I' for Inactive)
REMARK    1  A    between atoms: C_2  and  C_3 
REMARK    2  A    between atoms: C_3  and  C_4 
REMARK    3  A    between atoms: C_4  and  C_5 
REMARK    4  A    between atoms: C_5  and  C_6 
REMARK    5  A    between atoms: C_6  and  C_7 
REMARK    6  A    between atoms: C_7  and  C_8 
REMARK    7  A    between atoms: C_8  and  C_9 
REMARK    8  A    between atoms: C_9  and  C_10 
REMARK    9  A    between atoms: C_10  and  C_12 
REMARK   10  A    between atoms: C_12  and  C_13 
REMARK       I    between atoms: C_13  and  N_15 
REMARK   11  A    between atoms: C_16  and  N_15 
ROOT
HETATM    1  C   UNK N   1      34.178  15.048  10.455  0.00  0.00     0.181 C 
ENDROOT
BRANCH   1   2
HETATM    2  C   UNK N   1      35.627  15.356  10.732  0.00  0.00     0.135 C 
HETATM    3  O   UNK N   1      36.062  16.481  10.529  0.00  0.00    -0.297 OA
BRANCH   2   4
HETATM    4  C   UNK N   1      36.541  14.262  11.216  0.00  0.00     0.079 C 
BRANCH   4   5
HETATM    5  C   UNK N   1      35.973  13.560  12.444  0.00  0.00     0.007 C 
BRANCH   5   6
HETATM    6  C   UNK N   1      36.314  14.281  13.733  0.00  0.00     0.000 C 
BRANCH   6   7
HETATM    7  C   UNK N   1      36.599  13.228  14.788  0.00  0.00     0.000 C 
BRANCH   7   8
HETATM    8  C   UNK N   1      35.962  13.600  16.109  0.00  0.00     0.000 C 
BRANCH   8   9
HETATM    9  C   UNK N   1      35.300  12.372  16.703  0.00  0.00     0.000 C 
BRANCH   9  10
HETATM   10  C   UNK N   1      35.771  11.136  15.966  0.00  0.00    -0.000 C 
BRANCH  10  11
HETATM   11  C   UNK N   1      34.591  10.227  15.689  0.00  0.00    -0.005 C 
HETATM   12  C   UNK N   1      33.694  10.869  14.652  0.00  0.00     0.005 C 
ENDBRANCH  10  11
ENDBRANCH   9  10
ENDBRANCH   8   9
ENDBRANCH   7   8
ENDBRANCH   6   7
ENDBRANCH   5   6
ENDBRANCH   4   5
ENDBRANCH   2   4
ENDBRANCH   1   2
BRANCH   1  13
HETATM   13  C   UNK N   1      33.592  15.791   9.276  0.00  0.00     0.225 C 
HETATM   14  O   UNK N   1      33.302  15.193   8.248  0.00  0.00    -0.273 OA
HETATM   15  N   UNK N   1      33.382  17.128   9.371  0.00  0.00    -0.347 N 
HETATM   16  H   UNK N   1      33.656  17.591  10.195  0.00  0.00     0.163 HD
BRANCH  15  17
HETATM   17  C   UNK N   1      32.770  17.906   8.309  0.00  0.00     0.178 A 
HETATM   18  C   UNK N   1      33.434  17.670   7.001  0.00  0.00     0.240 A 
HETATM   19  N   UNK N   1      32.627  17.171   6.067  0.00  0.00    -0.359 N 
HETATM   20  O   UNK N   1      34.605  17.920   6.776  0.00  0.00    -0.271 OA
HETATM   21  C   UNK N   1      31.295  16.979   6.551  0.00  0.00     0.125 A 
HETATM   22  H   UNK N   1      32.914  16.959   5.149  0.00  0.00     0.162 HD
HETATM   23  C   UNK N   1      31.348  17.399   8.033  0.00  0.00     0.054 A 
ENDBRANCH  15  17
ENDBRANCH   1  13
TORSDOF 11
ENDMDL
