MODEL 1
REMARK VINA RESULT:      -5.5      0.000      0.000
REMARK  11 active torsions:
REMARK  status: ('A' for Active; 'I' for Inactive)
REMARK    1  A    between atoms: C_2  and  C_3 
REMARK    2  A    between atoms: C_3  and  C_4 
REMARK    3  A    between atoms: C_4  and  C_5 
REMARK    4  A    between atoms: C_5  and  C_6 
REMARK    5  A    between atoms: C_6  and  C_7 
REMARK    6  A    between atoms: C_7  and  C_8 
REMARK    7  A    between atoms: C_8  and  C_9 
REMARK    8  A    between atoms: C_9  and  C_10 
REMARK    9  A    between atoms: C_10  and  C_12 
REMARK   10  A    between atoms: C_12  and  C_13 
REMARK       I    between atoms: C_13  and  N_15 
REMARK   11  A    between atoms: C_16  and  N_15 
ROOT
HETATM    1  C   UNK N   1      28.413  17.905   9.081  0.00  0.00     0.135 C 
HETATM    2  O   UNK N   1      27.714  17.189   9.781  0.00  0.00    -0.297 OA
ENDROOT
BRANCH   1   3
HETATM    3  C   UNK N   1      27.912  18.391   7.760  0.00  0.00     0.079 C 
BRANCH   3   4
HETATM    4  C   UNK N   1      27.795  17.244   6.769  0.00  0.00     0.007 C 
BRANCH   4   5
HETATM    5  C   UNK N   1      28.942  17.294   5.772  0.00  0.00     0.000 C 
BRANCH   5   6
HETATM    6  C   UNK N   1      28.576  18.127   4.555  0.00  0.00     0.000 C 
BRANCH   6   7
HETATM    7  C   UNK N   1      27.211  17.721   4.025  0.00  0.00     0.000 C 
BRANCH   7   8
HETATM    8  C   UNK N   1      26.322  18.940   3.844  0.00  0.00     0.000 C 
BRANCH   8   9
HETATM    9  C   UNK N   1      27.075  20.216   4.173  0.00  0.00    -0.000 C 
BRANCH   9  10
HETATM   10  C   UNK N   1      26.378  20.928   5.312  0.00  0.00    -0.005 C 
HETATM   11  C   UNK N   1      27.408  21.551   6.229  0.00  0.00     0.005 C 
ENDBRANCH   9  10
ENDBRANCH   8   9
ENDBRANCH   7   8
ENDBRANCH   6   7
ENDBRANCH   5   6
ENDBRANCH   4   5
ENDBRANCH   3   4
ENDBRANCH   1   3
BRANCH   1  12
HETATM   12  C   UNK N   1      29.787  18.291   9.535  0.00  0.00     0.181 C 
BRANCH  12  13
HETATM   13  C   UNK N   1      30.867  17.385   9.011  0.00  0.00     0.225 C 
HETATM   14  O   UNK N   1      30.991  16.246   9.442  0.00  0.00    -0.273 OA
HETATM   15  N   UNK N   1      31.691  17.847   8.038  0.00  0.00    -0.347 N 
HETATM   16  H   UNK N   1      31.539  18.755   7.691  0.00  0.00     0.163 HD
BRANCH  15  17
HETATM   17  C   UNK N   1      32.784  17.074   7.487  0.00  0.00     0.186 A 
HETATM   18  C   UNK N   1      32.380  16.515   6.124  0.00  0.00     0.062 A 
HETATM   19  C   UNK N   1      33.331  17.143   5.090  0.00  0.00     0.181 A 
HETATM   20  O   UNK N   1      34.188  17.941   5.802  0.00  0.00    -0.320 OA
HETATM   21  C   UNK N   1      33.926  17.935   7.107  0.00  0.00     0.281 A 
HETATM   22  O   UNK N   1      34.582  18.587   7.902  0.00  0.00    -0.263 OA
ENDBRANCH  15  17
ENDBRANCH  12  13
ENDBRANCH   1  12
TORSDOF 11
ENDMDL
MODEL 2
REMARK VINA RESULT:      -5.5      6.688     10.272
REMARK  11 active torsions:
REMARK  status: ('A' for Active; 'I' for Inactive)
REMARK    1  A    between atoms: C_2  and  C_3 
REMARK    2  A    between atoms: C_3  and  C_4 
REMARK    3  A    between atoms: C_4  and  C_5 
REMARK    4  A    between atoms: C_5  and  C_6 
REMARK    5  A    between atoms: C_6  and  C_7 
REMARK    6  A    between atoms: C_7  and  C_8 
REMARK    7  A    between atoms: C_8  and  C_9 
REMARK    8  A    between atoms: C_9  and  C_10 
REMARK    9  A    between atoms: C_10  and  C_12 
REMARK   10  A    between atoms: C_12  and  C_13 
REMARK       I    between atoms: C_13  and  N_15 
REMARK   11  A    between atoms: C_16  and  N_15 
ROOT
HETATM    1  C   UNK N   1      35.462  14.352  12.044  0.00  0.00     0.135 C 
HETATM    2  O   UNK N   1      34.266  14.404  11.806  0.00  0.00    -0.297 OA
ENDROOT
BRANCH   1   3
HETATM    3  C   UNK N   1      35.962  13.600  13.235  0.00  0.00     0.079 C 
BRANCH   3   4
HETATM    4  C   UNK N   1      36.506  14.552  14.289  0.00  0.00     0.007 C 
BRANCH   4   5
HETATM    5  C   UNK N   1      36.880  13.783  15.546  0.00  0.00     0.000 C 
BRANCH   5   6
HETATM    6  C   UNK N   1      35.670  13.081  16.141  0.00  0.00     0.000 C 
BRANCH   6   7
HETATM    7  C   UNK N   1      36.004  11.635  16.471  0.00  0.00     0.000 C 
BRANCH   7   8
HETATM    8  C   UNK N   1      34.773  10.756  16.327  0.00  0.00     0.000 C 
BRANCH   8   9
HETATM    9  C   UNK N   1      34.762  10.053  14.982  0.00  0.00    -0.000 C 
BRANCH   9  10
HETATM   10  C   UNK N   1      33.751  10.723  14.077  0.00  0.00    -0.005 C 
HETATM   11  C   UNK N   1      33.972  10.274  12.648  0.00  0.00     0.005 C 
ENDBRANCH   9  10
ENDBRANCH   8   9
ENDBRANCH   7   8
ENDBRANCH   6   7
ENDBRANCH   5   6
ENDBRANCH   4   5
ENDBRANCH   3   4
ENDBRANCH   1   3
BRANCH   1  12
HETATM   12  C   UNK N   1      36.438  15.056  11.154  0.00  0.00     0.181 C 
BRANCH  12  13
HETATM   13  C   UNK N   1      35.894  15.350   9.782  0.00  0.00     0.225 C 
HETATM   14  O   UNK N   1      36.147  14.612   8.838  0.00  0.00    -0.273 OA
HETATM   15  N   UNK N   1      35.101  16.437   9.614  0.00  0.00    -0.347 N 
HETATM   16  H   UNK N   1      34.890  16.986  10.403  0.00  0.00     0.163 HD
BRANCH  15  17
HETATM   17  C   UNK N   1      34.553  16.832   8.334  0.00  0.00     0.186 A 
HETATM   18  C   UNK N   1      33.140  16.270   8.187  0.00  0.00     0.062 A 
HETATM   19  C   UNK N   1      32.193  17.479   8.088  0.00  0.00     0.181 A 
HETATM   20  O   UNK N   1      32.992  18.591   8.145  0.00  0.00    -0.320 OA
HETATM   21  C   UNK N   1      34.281  18.286   8.281  0.00  0.00     0.281 A 
HETATM   22  O   UNK N   1      35.145  19.143   8.352  0.00  0.00    -0.263 OA
ENDBRANCH  15  17
ENDBRANCH  12  13
ENDBRANCH   1  12
TORSDOF 11
ENDMDL
MODEL 3
REMARK VINA RESULT:      -5.3     11.325     13.791
REMARK  11 active torsions:
REMARK  status: ('A' for Active; 'I' for Inactive)
REMARK    1  A    between atoms: C_2  and  C_3 
REMARK    2  A    between atoms: C_3  and  C_4 
REMARK    3  A    between atoms: C_4  and  C_5 
REMARK    4  A    between atoms: C_5  and  C_6 
REMARK    5  A    between atoms: C_6  and  C_7 
REMARK    6  A    between atoms: C_7  and  C_8 
REMARK    7  A    between atoms: C_8  and  C_9 
REMARK    8  A    between atoms: C_9  and  C_10 
REMARK    9  A    between atoms: C_10  and  C_12 
REMARK   10  A    between atoms: C_12  and  C_13 
REMARK       I    between atoms: C_13  and  N_15 
REMARK   11  A    between atoms: C_16  and  N_15 
ROOT
HETATM    1  C   UNK N   1      29.577  26.795  -4.240  0.00  0.00     0.135 C 
HETATM    2  O   UNK N   1      30.491  26.534  -3.473  0.00  0.00    -0.297 OA
ENDROOT
BRANCH   1   3
HETATM    3  C   UNK N   1      29.096  28.202  -4.388  0.00  0.00     0.079 C 
BRANCH   3   4
HETATM    4  C   UNK N   1      28.688  28.487  -5.825  0.00  0.00     0.007 C 
BRANCH   4   5
HETATM    5  C   UNK N   1      27.211  28.843  -5.889  0.00  0.00     0.000 C 
BRANCH   5   6
HETATM    6  C   UNK N   1      26.616  28.969  -4.496  0.00  0.00     0.000 C 
BRANCH   6   7
HETATM    7  C   UNK N   1      25.509  27.948  -4.296  0.00  0.00     0.000 C 
BRANCH   7   8
HETATM    8  C   UNK N   1      25.138  27.296  -5.617  0.00  0.00     0.000 C 
BRANCH   8   9
HETATM    9  C   UNK N   1      25.232  25.784  -5.524  0.00  0.00    -0.000 C 
BRANCH   9  10
HETATM   10  C   UNK N   1      25.767  25.236  -6.829  0.00  0.00    -0.005 C 
HETATM   11  C   UNK N   1      26.000  23.746  -6.697  0.00  0.00     0.005 C 
ENDBRANCH   9  10
ENDBRANCH   8   9
ENDBRANCH   7   8
ENDBRANCH   6   7
ENDBRANCH   5   6
ENDBRANCH   4   5
ENDBRANCH   3   4
ENDBRANCH   1   3
BRANCH   1  12
HETATM   12  C   UNK N   1      28.919  25.705  -5.027  0.00  0.00     0.181 C 
BRANCH  12  13
HETATM   13  C   UNK N   1      28.933  24.371  -4.331  0.00  0.00     0.225 C 
HETATM   14  O   UNK N   1      27.940  23.962  -3.744  0.00  0.00    -0.273 OA
HETATM   15  N   UNK N   1      30.061  23.620  -4.382  0.00  0.00    -0.347 N 
HETATM   16  H   UNK N   1      30.827  23.964  -4.895  0.00  0.00     0.163 HD
BRANCH  15  17
HETATM   17  C   UNK N   1      30.196  22.340  -3.720  0.00  0.00     0.186 A 
HETATM   18  C   UNK N   1      31.216  21.482  -4.467  0.00  0.00     0.062 A 
HETATM   19  C   UNK N   1      32.380  21.231  -3.492  0.00  0.00     0.181 A 
HETATM   20  O   UNK N   1      32.033  21.855  -2.322  0.00  0.00    -0.320 OA
HETATM   21  C   UNK N   1      30.855  22.472  -2.402  0.00  0.00     0.281 A 
HETATM   22  O   UNK N   1      30.379  23.085  -1.461  0.00  0.00    -0.263 OA
ENDBRANCH  15  17
ENDBRANCH  12  13
ENDBRANCH   1  12
TORSDOF 11
ENDMDL
MODEL 4
REMARK VINA RESULT:      -5.3      6.265      9.956
REMARK  11 active torsions:
REMARK  status: ('A' for Active; 'I' for Inactive)
REMARK    1  A    between atoms: C_2  and  C_3 
REMARK    2  A    between atoms: C_3  and  C_4 
REMARK    3  A    between atoms: C_4  and  C_5 
REMARK    4  A    between atoms: C_5  and  C_6 
REMARK    5  A    between atoms: C_6  and  C_7 
REMARK    6  A    between atoms: C_7  and  C_8 
REMARK    7  A    between atoms: C_8  and  C_9 
REMARK    8  A    between atoms: C_9  and  C_10 
REMARK    9  A    between atoms: C_10  and  C_12 
REMARK   10  A    between atoms: C_12  and  C_13 
REMARK       I    between atoms: C_13  and  N_15 
REMARK   11  A    between atoms: C_16  and  N_15 
ROOT
HETATM    1  C   UNK N   1      34.877  14.694  11.497  0.00  0.00     0.135 C 
HETATM    2  O   UNK N   1      33.671  14.736  11.310  0.00  0.00    -0.297 OA
ENDROOT
BRANCH   1   3
HETATM    3  C   UNK N   1      35.437  13.897  12.629  0.00  0.00     0.079 C 
BRANCH   3   4
HETATM    4  C   UNK N   1      36.810  13.345  12.278  0.00  0.00     0.007 C 
BRANCH   4   5
HETATM    5  C   UNK N   1      37.158  12.183  13.194  0.00  0.00     0.000 C 
BRANCH   5   6
HETATM    6  C   UNK N   1      37.122  12.605  14.654  0.00  0.00     0.000 C 
BRANCH   6   7
HETATM    7  C   UNK N   1      36.664  11.451  15.530  0.00  0.00     0.000 C 
BRANCH   7   8
HETATM    8  C   UNK N   1      35.421  11.835  16.316  0.00  0.00     0.000 C 
BRANCH   8   9
HETATM    9  C   UNK N   1      34.215  11.948  15.403  0.00  0.00    -0.000 C 
BRANCH   9  10
HETATM   10  C   UNK N   1      33.829  10.569  14.912  0.00  0.00    -0.005 C 
HETATM   11  C   UNK N   1      33.850  10.545  13.398  0.00  0.00     0.005 C 
ENDBRANCH   9  10
ENDBRANCH   8   9
ENDBRANCH   7   8
ENDBRANCH   6   7
ENDBRANCH   5   6
ENDBRANCH   4   5
ENDBRANCH   3   4
ENDBRANCH   1   3
BRANCH   1  12
HETATM   12  C   UNK N   1      35.804  15.455  10.601  0.00  0.00     0.181 C 
BRANCH  12  13
HETATM   13  C   UNK N   1      35.157  16.638   9.935  0.00  0.00     0.225 C 
HETATM   14  O   UNK N   1      35.563  17.773  10.146  0.00  0.00    -0.273 OA
HETATM   15  N   UNK N   1      34.128  16.423   9.078  0.00  0.00    -0.347 N 
HETATM   16  H   UNK N   1      33.854  15.494   8.904  0.00  0.00     0.163 HD
BRANCH  15  17
HETATM   17  C   UNK N   1      33.412  17.489   8.410  0.00  0.00     0.186 A 
HETATM   18  C   UNK N   1      34.002  17.707   7.017  0.00  0.00     0.062 A 
HETATM   19  C   UNK N   1      32.885  17.379   6.010  0.00  0.00     0.181 A 
HETATM   20  O   UNK N   1      31.787  17.044   6.759  0.00  0.00    -0.320 OA
HETATM   21  C   UNK N   1      32.029  17.088   8.067  0.00  0.00     0.281 A 
HETATM   22  O   UNK N   1      31.174  16.819   8.894  0.00  0.00    -0.263 OA
ENDBRANCH  15  17
ENDBRANCH  12  13
ENDBRANCH   1  12
TORSDOF 11
ENDMDL
MODEL 5
REMARK VINA RESULT:      -5.2      6.881     10.381
REMARK  11 active torsions:
REMARK  status: ('A' for Active; 'I' for Inactive)
REMARK    1  A    between atoms: C_2  and  C_3 
REMARK    2  A    between atoms: C_3  and  C_4 
REMARK    3  A    between atoms: C_4  and  C_5 
REMARK    4  A    between atoms: C_5  and  C_6 
REMARK    5  A    between atoms: C_6  and  C_7 
REMARK    6  A    between atoms: C_7  and  C_8 
REMARK    7  A    between atoms: C_8  and  C_9 
REMARK    8  A    between atoms: C_9  and  C_10 
REMARK    9  A    between atoms: C_10  and  C_12 
REMARK   10  A    between atoms: C_12  and  C_13 
REMARK       I    between atoms: C_13  and  N_15 
REMARK   11  A    between atoms: C_16  and  N_15 
ROOT
HETATM    1  C   UNK N   1      35.619  14.251  12.564  0.00  0.00     0.135 C 
HETATM    2  O   UNK N   1      34.482  13.816  12.484  0.00  0.00    -0.297 OA
ENDROOT
BRANCH   1   3
HETATM    3  C   UNK N   1      36.689  13.450  13.231  0.00  0.00     0.079 C 
BRANCH   3   4
HETATM    4  C   UNK N   1      37.170  12.327  12.326  0.00  0.00     0.007 C 
BRANCH   4   5
HETATM    5  C   UNK N   1      36.653  10.988  12.832  0.00  0.00     0.000 C 
BRANCH   5   6
HETATM    6  C   UNK N   1      36.563  10.974  14.349  0.00  0.00     0.000 C 
BRANCH   6   7
HETATM    7  C   UNK N   1      35.279  10.295  14.798  0.00  0.00     0.000 C 
BRANCH   7   8
HETATM    8  C   UNK N   1      34.716  10.978  16.033  0.00  0.00     0.000 C 
BRANCH   8   9
HETATM    9  C   UNK N   1      34.571  12.472  15.809  0.00  0.00    -0.000 C 
BRANCH   9  10
HETATM   10  C   UNK N   1      34.968  13.206  17.073  0.00  0.00    -0.005 C 
HETATM   11  C   UNK N   1      35.249  12.207  18.174  0.00  0.00     0.005 C 
ENDBRANCH   9  10
ENDBRANCH   8   9
ENDBRANCH   7   8
ENDBRANCH   6   7
ENDBRANCH   5   6
ENDBRANCH   4   5
ENDBRANCH   3   4
ENDBRANCH   1   3
BRANCH   1  12
HETATM   12  C   UNK N   1      35.949  15.601  12.006  0.00  0.00     0.181 C 
BRANCH  12  13
HETATM   13  C   UNK N   1      35.693  15.718  10.529  0.00  0.00     0.225 C 
HETATM   14  O   UNK N   1      36.303  15.017   9.731  0.00  0.00    -0.273 OA
HETATM   15  N   UNK N   1      34.759  16.601  10.096  0.00  0.00    -0.347 N 
HETATM   16  H   UNK N   1      34.263  17.121  10.768  0.00  0.00     0.163 HD
BRANCH  15  17
HETATM   17  C   UNK N   1      34.458  16.820   8.697  0.00  0.00     0.186 A 
HETATM   18  C   UNK N   1      33.040  16.334   8.397  0.00  0.00     0.062 A 
HETATM   19  C   UNK N   1      32.234  17.571   7.961  0.00  0.00     0.181 A 
HETATM   20  O   UNK N   1      33.113  18.623   7.987  0.00  0.00    -0.320 OA
HETATM   21  C   UNK N   1      34.331  18.260   8.383  0.00  0.00     0.281 A 
HETATM   22  O   UNK N   1      35.248  19.059   8.472  0.00  0.00    -0.263 OA
ENDBRANCH  15  17
ENDBRANCH  12  13
ENDBRANCH   1  12
TORSDOF 11
ENDMDL
MODEL 6
REMARK VINA RESULT:      -5.2     11.160     13.265
REMARK  11 active torsions:
REMARK  status: ('A' for Active; 'I' for Inactive)
REMARK    1  A    between atoms: C_2  and  C_3 
REMARK    2  A    between atoms: C_3  and  C_4 
REMARK    3  A    between atoms: C_4  and  C_5 
REMARK    4  A    between atoms: C_5  and  C_6 
REMARK    5  A    between atoms: C_6  and  C_7 
REMARK    6  A    between atoms: C_7  and  C_8 
REMARK    7  A    between atoms: C_8  and  C_9 
REMARK    8  A    between atoms: C_9  and  C_10 
REMARK    9  A    between atoms: C_10  and  C_12 
REMARK   10  A    between atoms: C_12  and  C_13 
REMARK       I    between atoms: C_13  and  N_15 
REMARK   11  A    between atoms: C_16  and  N_15 
ROOT
HETATM    1  C   UNK N   1      28.054  24.337  -3.499  0.00  0.00     0.135 C 
HETATM    2  O   UNK N   1      28.886  25.166  -3.836  0.00  0.00    -0.297 OA
ENDROOT
BRANCH   1   3
HETATM    3  C   UNK N   1      26.728  24.277  -4.186  0.00  0.00     0.079 C 
BRANCH   3   4
HETATM    4  C   UNK N   1      26.893  24.387  -5.693  0.00  0.00     0.007 C 
BRANCH   4   5
HETATM    5  C   UNK N   1      25.592  24.854  -6.330  0.00  0.00     0.000 C 
BRANCH   5   6
HETATM    6  C   UNK N   1      25.630  26.345  -6.623  0.00  0.00     0.000 C 
BRANCH   6   7
HETATM    7  C   UNK N   1      24.743  27.100  -5.647  0.00  0.00     0.000 C 
BRANCH   7   8
HETATM    8  C   UNK N   1      25.584  27.903  -4.670  0.00  0.00     0.000 C 
BRANCH   8   9
HETATM    9  C   UNK N   1      26.958  28.194  -5.245  0.00  0.00    -0.000 C 
BRANCH   9  10
HETATM   10  C   UNK N   1      27.280  29.660  -5.052  0.00  0.00    -0.005 C 
HETATM   11  C   UNK N   1      28.437  30.048  -5.948  0.00  0.00     0.005 C 
ENDBRANCH   9  10
ENDBRANCH   8   9
ENDBRANCH   7   8
ENDBRANCH   6   7
ENDBRANCH   5   6
ENDBRANCH   4   5
ENDBRANCH   3   4
ENDBRANCH   1   3
BRANCH   1  12
HETATM   12  C   UNK N   1      28.350  23.384  -2.384  0.00  0.00     0.181 C 
BRANCH  12  13
HETATM   13  C   UNK N   1      29.756  22.849  -2.410  0.00  0.00     0.225 C 
HETATM   14  O   UNK N   1      30.496  22.990  -1.445  0.00  0.00    -0.273 OA
HETATM   15  N   UNK N   1      30.183  22.190  -3.515  0.00  0.00    -0.347 N 
HETATM   16  H   UNK N   1      29.548  22.063  -4.256  0.00  0.00     0.163 HD
BRANCH  15  17
HETATM   17  C   UNK N   1      31.524  21.665  -3.661  0.00  0.00     0.186 A 
HETATM   18  C   UNK N   1      31.470  20.307  -4.359  0.00  0.00     0.062 A 
HETATM   19  C   UNK N   1      32.225  20.465  -5.690  0.00  0.00     0.181 A 
HETATM   20  O   UNK N   1      32.674  21.759  -5.718  0.00  0.00    -0.320 OA
HETATM   21  C   UNK N   1      32.315  22.448  -4.637  0.00  0.00     0.281 A 
HETATM   22  O   UNK N   1      32.621  23.618  -4.482  0.00  0.00    -0.263 OA
ENDBRANCH  15  17
ENDBRANCH  12  13
ENDBRANCH   1  12
TORSDOF 11
ENDMDL
MODEL 7
REMARK VINA RESULT:      -5.1      2.922      4.326
REMARK  11 active torsions:
REMARK  status: ('A' for Active; 'I' for Inactive)
REMARK    1  A    between atoms: C_2  and  C_3 
REMARK    2  A    between atoms: C_3  and  C_4 
REMARK    3  A    between atoms: C_4  and  C_5 
REMARK    4  A    between atoms: C_5  and  C_6 
REMARK    5  A    between atoms: C_6  and  C_7 
REMARK    6  A    between atoms: C_7  and  C_8 
REMARK    7  A    between atoms: C_8  and  C_9 
REMARK    8  A    between atoms: C_9  and  C_10 
REMARK    9  A    between atoms: C_10  and  C_12 
REMARK   10  A    between atoms: C_12  and  C_13 
REMARK       I    between atoms: C_13  and  N_15 
REMARK   11  A    between atoms: C_16  and  N_15 
ROOT
HETATM    1  C   UNK N   1      33.527  17.711   6.985  0.00  0.00     0.135 C 
HETATM    2  O   UNK N   1      34.265  17.619   6.016  0.00  0.00    -0.297 OA
ENDROOT
BRANCH   1   3
HETATM    3  C   UNK N   1      32.103  17.269   6.894  0.00  0.00     0.079 C 
BRANCH   3   4
HETATM    4  C   UNK N   1      31.339  17.636   8.155  0.00  0.00     0.007 C 
BRANCH   4   5
HETATM    5  C   UNK N   1      29.841  17.533   7.910  0.00  0.00     0.000 C 
BRANCH   5   6
HETATM    6  C   UNK N   1      29.546  17.190   6.459  0.00  0.00     0.000 C 
BRANCH   6   7
HETATM    7  C   UNK N   1      28.244  17.836   6.014  0.00  0.00     0.000 C 
BRANCH   7   8
HETATM    8  C   UNK N   1      28.437  18.583   4.705  0.00  0.00     0.000 C 
BRANCH   8   9
HETATM    9  C   UNK N   1      27.921  20.006   4.810  0.00  0.00    -0.000 C 
BRANCH   9  10
HETATM   10  C   UNK N   1      27.554  20.299   6.249  0.00  0.00    -0.005 C 
HETATM   11  C   UNK N   1      26.832  21.627   6.330  0.00  0.00     0.005 C 
ENDBRANCH   9  10
ENDBRANCH   8   9
ENDBRANCH   7   8
ENDBRANCH   6   7
ENDBRANCH   5   6
ENDBRANCH   4   5
ENDBRANCH   3   4
ENDBRANCH   1   3
BRANCH   1  12
HETATM   12  C   UNK N   1      34.041  18.281   8.270  0.00  0.00     0.181 C 
BRANCH  12  13
HETATM   13  C   UNK N   1      34.822  17.295   9.095  0.00  0.00     0.225 C 
HETATM   14  O   UNK N   1      35.439  17.659  10.087  0.00  0.00    -0.273 OA
HETATM   15  N   UNK N   1      34.814  15.989   8.729  0.00  0.00    -0.347 N 
HETATM   16  H   UNK N   1      34.277  15.726   7.948  0.00  0.00     0.163 HD
BRANCH  15  17
HETATM   17  C   UNK N   1      35.557  14.962   9.429  0.00  0.00     0.186 A 
HETATM   18  C   UNK N   1      34.619  14.195  10.360  0.00  0.00     0.062 A 
HETATM   19  C   UNK N   1      34.593  12.740   9.859  0.00  0.00     0.181 A 
HETATM   20  O   UNK N   1      35.444  12.695   8.786  0.00  0.00    -0.320 OA
HETATM   21  C   UNK N   1      35.988  13.880   8.516  0.00  0.00     0.281 A 
HETATM   22  O   UNK N   1      36.770  14.039   7.594  0.00  0.00    -0.263 OA
ENDBRANCH  15  17
ENDBRANCH  12  13
ENDBRANCH   1  12
TORSDOF 11
ENDMDL
MODEL 8
REMARK VINA RESULT:      -5.1     11.764     14.289
REMARK  11 active torsions:
REMARK  status: ('A' for Active; 'I' for Inactive)
REMARK    1  A    between atoms: C_2  and  C_3 
REMARK    2  A    between atoms: C_3  and  C_4 
REMARK    3  A    between atoms: C_4  and  C_5 
REMARK    4  A    between atoms: C_5  and  C_6 
REMARK    5  A    between atoms: C_6  and  C_7 
REMARK    6  A    between atoms: C_7  and  C_8 
REMARK    7  A    between atoms: C_8  and  C_9 
REMARK    8  A    between atoms: C_9  and  C_10 
REMARK    9  A    between atoms: C_10  and  C_12 
REMARK   10  A    between atoms: C_12  and  C_13 
REMARK       I    between atoms: C_13  and  N_15 
REMARK   11  A    between atoms: C_16  and  N_15 
ROOT
HETATM    1  C   UNK N   1      26.763  25.128  -6.175  0.00  0.00     0.135 C 
HETATM    2  O   UNK N   1      27.836  24.868  -6.695  0.00  0.00    -0.297 OA
ENDROOT
BRANCH   1   3
HETATM    3  C   UNK N   1      26.008  26.354  -6.574  0.00  0.00     0.079 C 
BRANCH   3   4
HETATM    4  C   UNK N   1      24.817  26.581  -5.657  0.00  0.00     0.007 C 
BRANCH   4   5
HETATM    5  C   UNK N   1      24.945  27.924  -4.954  0.00  0.00     0.000 C 
BRANCH   5   6
HETATM    6  C   UNK N   1      25.799  27.807  -3.701  0.00  0.00     0.000 C 
BRANCH   6   7
HETATM    7  C   UNK N   1      26.514  29.118  -3.422  0.00  0.00     0.000 C 
BRANCH   7   8
HETATM    8  C   UNK N   1      27.896  29.120  -4.055  0.00  0.00     0.000 C 
BRANCH   8   9
HETATM    9  C   UNK N   1      27.952  30.072  -5.235  0.00  0.00    -0.000 C 
BRANCH   9  10
HETATM   10  C   UNK N   1      28.141  29.278  -6.509  0.00  0.00    -0.005 C 
HETATM   11  C   UNK N   1      29.189  28.208  -6.291  0.00  0.00     0.005 C 
ENDBRANCH   9  10
ENDBRANCH   8   9
ENDBRANCH   7   8
ENDBRANCH   6   7
ENDBRANCH   5   6
ENDBRANCH   4   5
ENDBRANCH   3   4
ENDBRANCH   1   3
BRANCH   1  12
HETATM   12  C   UNK N   1      26.200  24.227  -5.120  0.00  0.00     0.181 C 
BRANCH  12  13
HETATM   13  C   UNK N   1      27.084  24.096  -3.910  0.00  0.00     0.225 C 
HETATM   14  O   UNK N   1      26.643  24.309  -2.788  0.00  0.00    -0.273 OA
HETATM   15  N   UNK N   1      28.375  23.718  -4.083  0.00  0.00    -0.347 N 
HETATM   16  H   UNK N   1      28.684  23.519  -4.995  0.00  0.00     0.163 HD
BRANCH  15  17
HETATM   17  C   UNK N   1      29.321  23.594  -2.994  0.00  0.00     0.186 A 
HETATM   18  C   UNK N   1      29.903  22.181  -2.979  0.00  0.00     0.062 A 
HETATM   19  C   UNK N   1      31.412  22.324  -3.243  0.00  0.00     0.181 A 
HETATM   20  O   UNK N   1      31.649  23.668  -3.361  0.00  0.00    -0.320 OA
HETATM   21  C   UNK N   1      30.541  24.395  -3.235  0.00  0.00     0.281 A 
HETATM   22  O   UNK N   1      30.552  25.612  -3.313  0.00  0.00    -0.263 OA
ENDBRANCH  15  17
ENDBRANCH  12  13
ENDBRANCH   1  12
TORSDOF 11
ENDMDL
MODEL 9
REMARK VINA RESULT:      -5.1      8.162     10.342
REMARK  11 active torsions:
REMARK  status: ('A' for Active; 'I' for Inactive)
REMARK    1  A    between atoms: C_2  and  C_3 
REMARK    2  A    between atoms: C_3  and  C_4 
REMARK    3  A    between atoms: C_4  and  C_5 
REMARK    4  A    between atoms: C_5  and  C_6 
REMARK    5  A    between atoms: C_6  and  C_7 
REMARK    6  A    between atoms: C_7  and  C_8 
REMARK    7  A    between atoms: C_8  and  C_9 
REMARK    8  A    between atoms: C_9  and  C_10 
REMARK    9  A    between atoms: C_10  and  C_12 
REMARK   10  A    between atoms: C_12  and  C_13 
REMARK       I    between atoms: C_13  and  N_15 
REMARK   11  A    between atoms: C_16  and  N_15 
ROOT
HETATM    1  C   UNK N   1      20.443  15.263   8.389  0.00  0.00     0.135 C 
HETATM    2  O   UNK N   1      19.909  14.614   7.504  0.00  0.00    -0.297 OA
ENDROOT
BRANCH   1   3
HETATM    3  C   UNK N   1      21.271  14.581   9.430  0.00  0.00     0.079 C 
BRANCH   3   4
HETATM    4  C   UNK N   1      20.970  13.091   9.472  0.00  0.00     0.007 C 
BRANCH   4   5
HETATM    5  C   UNK N   1      21.590  12.466  10.712  0.00  0.00     0.000 C 
BRANCH   5   6
HETATM    6  C   UNK N   1      22.775  11.586  10.349  0.00  0.00     0.000 C 
BRANCH   6   7
HETATM    7  C   UNK N   1      24.073  12.225  10.813  0.00  0.00     0.000 C 
BRANCH   7   8
HETATM    8  C   UNK N   1      24.749  12.959   9.667  0.00  0.00     0.000 C 
BRANCH   8   9
HETATM    9  C   UNK N   1      24.445  12.292   8.339  0.00  0.00    -0.000 C 
BRANCH   9  10
HETATM   10  C   UNK N   1      24.952  13.167   7.213  0.00  0.00    -0.005 C 
HETATM   11  C   UNK N   1      24.134  14.439   7.149  0.00  0.00     0.005 C 
ENDBRANCH   9  10
ENDBRANCH   8   9
ENDBRANCH   7   8
ENDBRANCH   6   7
ENDBRANCH   5   6
ENDBRANCH   4   5
ENDBRANCH   3   4
ENDBRANCH   1   3
BRANCH   1  12
HETATM   12  C   UNK N   1      20.262  16.748   8.448  0.00  0.00     0.181 C 
BRANCH  12  13
HETATM   13  C   UNK N   1      20.765  17.462   7.224  0.00  0.00     0.225 C 
HETATM   14  O   UNK N   1      20.863  18.682   7.208  0.00  0.00    -0.273 OA
HETATM   15  N   UNK N   1      21.129  16.728   6.143  0.00  0.00    -0.347 N 
HETATM   16  H   UNK N   1      21.073  15.748   6.206  0.00  0.00     0.163 HD
BRANCH  15  17
HETATM   17  C   UNK N   1      21.594  17.313   4.903  0.00  0.00     0.186 A 
HETATM   18  C   UNK N   1      22.895  16.636   4.474  0.00  0.00     0.062 A 
HETATM   19  C   UNK N   1      22.607  15.940   3.132  0.00  0.00     0.181 A 
HETATM   20  O   UNK N   1      21.300  16.223   2.832  0.00  0.00    -0.320 OA
HETATM   21  C   UNK N   1      20.711  16.964   3.769  0.00  0.00     0.281 A 
HETATM   22  O   UNK N   1      19.546  17.315   3.680  0.00  0.00    -0.263 OA
ENDBRANCH  15  17
ENDBRANCH  12  13
ENDBRANCH   1  12
TORSDOF 11
ENDMDL
