REMARK  11 active torsions:
REMARK  status: ('A' for Active; 'I' for Inactive)
REMARK    1  A    between atoms: C_2  and  C_3 
REMARK    2  A    between atoms: C_3  and  C_4 
REMARK    3  A    between atoms: C_4  and  C_5 
REMARK    4  A    between atoms: C_5  and  C_6 
REMARK    5  A    between atoms: C_6  and  C_7 
REMARK    6  A    between atoms: C_7  and  C_8 
REMARK    7  A    between atoms: C_8  and  C_9 
REMARK    8  A    between atoms: C_9  and  C_10 
REMARK    9  A    between atoms: C_10  and  C_12 
REMARK   10  A    between atoms: C_12  and  C_13 
REMARK       I    between atoms: C_13  and  N_15 
REMARK   11  A    between atoms: C_16  and  N_15 
ROOT
HETATM    1  C   UNK N   1      -0.931  -2.305   0.226  0.00  0.00     0.135 C 
HETATM    2  O   UNK N   1      -1.316  -3.457   0.101  0.00  0.00    -0.297 OA
ENDROOT
BRANCH   1   3
HETATM    3  C   UNK N   1      -1.801  -1.168  -0.202  0.00  0.00     0.079 C 
BRANCH   3   4
HETATM    4  C   UNK N   1      -3.109  -1.164   0.573  0.00  0.00     0.007 C 
BRANCH   4   5
HETATM    5  C   UNK N   1      -4.270  -1.481  -0.357  0.00  0.00     0.000 C 
BRANCH   5   6
HETATM    6  C   UNK N   1      -4.359  -2.973  -0.634  0.00  0.00     0.000 C 
BRANCH   6   7
HETATM    7  C   UNK N   1      -5.034  -3.689   0.524  0.00  0.00     0.000 C 
BRANCH   7   8
HETATM    8  C   UNK N   1      -6.463  -4.060   0.164  0.00  0.00     0.000 C 
BRANCH   8   9
HETATM    9  C   UNK N   1      -7.371  -2.846   0.221  0.00  0.00    -0.000 C 
BRANCH   9  10
HETATM   10  C   UNK N   1      -8.775  -3.254  -0.171  0.00  0.00    -0.005 C 
HETATM   11  C   UNK N   1      -9.696  -2.056  -0.082  0.00  0.00     0.005 C 
ENDBRANCH   9  10
ENDBRANCH   8   9
ENDBRANCH   7   8
ENDBRANCH   6   7
ENDBRANCH   5   6
ENDBRANCH   4   5
ENDBRANCH   3   4
ENDBRANCH   1   3
BRANCH   1  12
HETATM   12  C   UNK N   1       0.424  -2.022   0.796  0.00  0.00     0.181 C 
BRANCH  12  13
HETATM   13  C   UNK N   1       1.550  -2.586  -0.027  0.00  0.00     0.225 C 
HETATM   14  O   UNK N   1       1.321  -3.213  -1.053  0.00  0.00    -0.273 OA
HETATM   15  N   UNK N   1       2.826  -2.370   0.378  0.00  0.00    -0.347 N 
HETATM   16  H   UNK N   1       2.973  -1.830   1.187  0.00  0.00     0.163 HD
BRANCH  15  17
HETATM   17  C   UNK N   1       3.982  -2.895  -0.318  0.00  0.00     0.186 A 
HETATM   18  C   UNK N   1       5.257  -2.353   0.326  0.00  0.00     0.062 A 
HETATM   19  C   UNK N   1       6.017  -3.567   0.889  0.00  0.00     0.181 A 
HETATM   20  O   UNK N   1       5.263  -4.666   0.569  0.00  0.00    -0.320 OA
HETATM   21  C   UNK N   1       4.148  -4.347  -0.085  0.00  0.00     0.281 A 
HETATM   22  O   UNK N   1       3.348  -5.191  -0.452  0.00  0.00    -0.263 OA
ENDBRANCH  15  17
ENDBRANCH  12  13
ENDBRANCH   1  12
TORSDOF 11
