MODEL 1
REMARK VINA RESULT:      -6.8      0.000      0.000
REMARK  6 active torsions:
REMARK  status: ('A' for Active; 'I' for Inactive)
REMARK    1  A    between atoms: C_7  and  N_8 
REMARK    2  A    between atoms: N_8  and  C_10 
REMARK    3  A    between atoms: N_17  and  C_18 
REMARK       I    between atoms: C_23  and  N_24 
REMARK    4  A    between atoms: N_24  and  C_25 
REMARK    5  A    between atoms: C_25  and  C_26 
REMARK    6  A    between atoms: C_26  and  O_27 
ROOT
HETATM    1  C   UNK N   1      23.740  18.267   4.391  0.00  0.00     0.152 A 
HETATM    2  N   UNK N   1      22.792  19.063   3.820  0.00  0.00    -0.174 N 
ATOM      3  HN  UNK N   1      23.091  19.802   3.184  1.00  0.00     0.186 HD
HETATM    4  C   UNK N   1      23.293  17.277   5.259  0.00  0.00     0.123 A 
HETATM    5  N   UNK N   1      23.983  16.349   5.945  0.00  0.00    -0.346 N 
ATOM      6  HN  UNK N   1      24.995  16.219   5.977  1.00  0.00     0.167 HD
HETATM    7  C   UNK N   1      23.026  15.621   6.589  0.00  0.00     0.185 A 
HETATM    8  N   UNK N   1      21.775  16.088   6.322  0.00  0.00    -0.323 N 
HETATM    9  C   UNK N   1      21.967  17.122   5.486  0.00  0.00     0.155 A 
HETATM   10  N   UNK N   1      21.027  17.913   4.906  0.00  0.00    -0.174 N 
HETATM   11  C   UNK N   1      21.455  18.906   4.068  0.00  0.00     0.681 A 
HETATM   12  N   UNK N   1      20.529  19.771   3.444  0.00  0.00    -0.224 N 
HETATM   13  H   UNK N   1      20.068  17.777   5.084  0.00  0.00     0.186 HD
HETATM   14  H   UNK N   1      19.563  19.671   3.613  0.00  0.00     0.177 HD
ENDROOT
BRANCH   1  15
HETATM   15  N   UNK N   1      24.999  18.409   4.115  0.00  0.00    -0.340 N 
ATOM     16  HN  UNK N   1      25.339  17.981   3.254  1.00  0.00     0.167 HD
BRANCH  15  17
HETATM   17  C   UNK N   1      25.955  19.117   4.920  0.00  0.00     0.035 A 
HETATM   18  C   UNK N   1      26.926  18.390   5.620  0.00  0.00     0.053 A 
HETATM   19  C   UNK N   1      27.884  19.055   6.399  0.00  0.00     0.036 A 
HETATM   20 Cl   UNK N   1      29.095  18.142   7.271  0.00  0.00    -0.084 Cl
HETATM   21  C   UNK N   1      27.879  20.449   6.483  0.00  0.00     0.024 A 
HETATM   22  C   UNK N   1      26.920  21.185   5.790  0.00  0.00     0.004 A 
HETATM   23  C   UNK N   1      25.968  20.524   5.015  0.00  0.00     0.029 A 
ENDBRANCH  15  17
ENDBRANCH   1  15
BRANCH  12  24
HETATM   24  C   UNK N   1      21.010  20.802   2.557  0.00  0.00     0.164 C 
BRANCH  24  25
HETATM   25  C   UNK N   1      20.900  20.374   1.113  0.00  0.00     0.184 C 
BRANCH  25  26
HETATM   26  O   UNK N   1      20.457  21.460   0.357  0.00  0.00    -0.399 OA
HETATM   27  H   UNK N   1      19.662  21.945   0.626  0.00  0.00     0.209 HD
ENDBRANCH  25  26
ENDBRANCH  24  25
ENDBRANCH  12  24
BRANCH   8  28
HETATM   28  C   UNK N   1      20.506  15.493   6.768  0.00  0.00     0.084 C 
HETATM   29  C   UNK N   1      20.348  15.507   8.279  0.00  0.00     0.032 C 
HETATM   30  C   UNK N   1      20.340  14.069   6.261  0.00  0.00     0.032 C 
ENDBRANCH   8  28
TORSDOF 6
ENDMDL
MODEL 2
REMARK VINA RESULT:      -6.7      2.392      5.693
REMARK  6 active torsions:
REMARK  status: ('A' for Active; 'I' for Inactive)
REMARK    1  A    between atoms: C_7  and  N_8 
REMARK    2  A    between atoms: N_8  and  C_10 
REMARK    3  A    between atoms: N_17  and  C_18 
REMARK       I    between atoms: C_23  and  N_24 
REMARK    4  A    between atoms: N_24  and  C_25 
REMARK    5  A    between atoms: C_25  and  C_26 
REMARK    6  A    between atoms: C_26  and  O_27 
ROOT
HETATM    1  C   UNK N   1      22.820  17.341   4.556  0.00  0.00     0.152 A 
HETATM    2  N   UNK N   1      22.274  18.370   3.848  0.00  0.00    -0.174 N 
ATOM      3  HN  UNK N   1      21.287  18.323   3.595  1.00  0.00     0.186 HD
HETATM    4  C   UNK N   1      24.170  17.441   4.873  0.00  0.00     0.123 A 
HETATM    5  N   UNK N   1      24.962  16.601   5.564  0.00  0.00    -0.346 N 
ATOM      6  HN  UNK N   1      24.715  15.697   5.967  1.00  0.00     0.167 HD
HETATM    7  C   UNK N   1      26.172  17.231   5.603  0.00  0.00     0.185 A 
HETATM    8  N   UNK N   1      26.139  18.423   4.946  0.00  0.00    -0.323 N 
HETATM    9  C   UNK N   1      24.876  18.534   4.501  0.00  0.00     0.155 A 
HETATM   10  N   UNK N   1      24.324  19.560   3.802  0.00  0.00    -0.174 N 
HETATM   11  C   UNK N   1      23.001  19.464   3.464  0.00  0.00     0.681 A 
HETATM   12  N   UNK N   1      22.370  20.492   2.727  0.00  0.00    -0.224 N 
HETATM   13  H   UNK N   1      24.858  20.347   3.547  0.00  0.00     0.186 HD
HETATM   14  H   UNK N   1      22.880  21.286   2.444  0.00  0.00     0.177 HD
ENDROOT
BRANCH   1  15
HETATM   15  N   UNK N   1      22.106  16.330   4.940  0.00  0.00    -0.340 N 
ATOM     16  HN  UNK N   1      21.851  15.643   4.231  1.00  0.00     0.167 HD
BRANCH  15  17
HETATM   17  C   UNK N   1      21.642  16.096   6.280  0.00  0.00     0.035 A 
HETATM   18  C   UNK N   1      20.862  17.074   6.910  0.00  0.00     0.053 A 
HETATM   19  C   UNK N   1      20.379  16.866   8.210  0.00  0.00     0.036 A 
HETATM   20 Cl   UNK N   1      19.406  18.091   8.993  0.00  0.00    -0.084 Cl
HETATM   21  C   UNK N   1      20.671  15.681   8.888  0.00  0.00     0.024 A 
HETATM   22  C   UNK N   1      21.444  14.699   8.272  0.00  0.00     0.004 A 
HETATM   23  C   UNK N   1      21.923  14.905   6.979  0.00  0.00     0.029 A 
ENDBRANCH  15  17
ENDBRANCH   1  15
BRANCH  12  24
HETATM   24  C   UNK N   1      20.972  20.368   2.394  0.00  0.00     0.164 C 
BRANCH  24  25
HETATM   25  C   UNK N   1      20.678  20.977   1.044  0.00  0.00     0.184 C 
BRANCH  25  26
HETATM   26  O   UNK N   1      20.649  19.959   0.091  0.00  0.00    -0.399 OA
HETATM   27  H   UNK N   1      21.187  19.162   0.217  0.00  0.00     0.209 HD
ENDBRANCH  25  26
ENDBRANCH  24  25
ENDBRANCH  12  24
BRANCH   8  28
HETATM   28  C   UNK N   1      27.229  19.408   4.866  0.00  0.00     0.084 C 
HETATM   29  C   UNK N   1      28.604  18.762   4.823  0.00  0.00     0.032 C 
HETATM   30  C   UNK N   1      27.180  20.402   6.016  0.00  0.00     0.032 C 
ENDBRANCH   8  28
TORSDOF 6
ENDMDL
MODEL 3
REMARK VINA RESULT:      -6.6      4.643      6.356
REMARK  6 active torsions:
REMARK  status: ('A' for Active; 'I' for Inactive)
REMARK    1  A    between atoms: C_7  and  N_8 
REMARK    2  A    between atoms: N_8  and  C_10 
REMARK    3  A    between atoms: N_17  and  C_18 
REMARK       I    between atoms: C_23  and  N_24 
REMARK    4  A    between atoms: N_24  and  C_25 
REMARK    5  A    between atoms: C_25  and  C_26 
REMARK    6  A    between atoms: C_26  and  O_27 
ROOT
HETATM    1  C   UNK N   1      21.124  16.982   7.071  0.00  0.00     0.152 A 
HETATM    2  N   UNK N   1      19.996  17.133   7.821  0.00  0.00    -0.174 N 
ATOM      3  HN  UNK N   1      19.445  17.984   7.711  1.00  0.00     0.186 HD
HETATM    4  C   UNK N   1      21.852  15.811   7.256  0.00  0.00     0.123 A 
HETATM    5  N   UNK N   1      22.979  15.388   6.657  0.00  0.00    -0.346 N 
ATOM      6  HN  UNK N   1      23.537  15.877   5.957  1.00  0.00     0.167 HD
HETATM    7  C   UNK N   1      23.207  14.155   7.196  0.00  0.00     0.185 A 
HETATM    8  N   UNK N   1      22.257  13.825   8.114  0.00  0.00    -0.323 N 
HETATM    9  C   UNK N   1      21.419  14.874   8.132  0.00  0.00     0.155 A 
HETATM   10  N   UNK N   1      20.289  15.028   8.871  0.00  0.00    -0.174 N 
HETATM   11  C   UNK N   1      19.576  16.185   8.714  0.00  0.00     0.681 A 
HETATM   12  N   UNK N   1      18.398  16.411   9.461  0.00  0.00    -0.224 N 
HETATM   13  H   UNK N   1      19.993  14.329   9.498  0.00  0.00     0.186 HD
HETATM   14  H   UNK N   1      18.082  15.739  10.108  0.00  0.00     0.177 HD
ENDROOT
BRANCH   1  15
HETATM   15  N   UNK N   1      21.486  17.876   6.205  0.00  0.00    -0.340 N 
ATOM     16  HN  UNK N   1      22.149  18.586   6.517  1.00  0.00     0.167 HD
BRANCH  15  17
HETATM   17  C   UNK N   1      21.033  17.951   4.844  0.00  0.00     0.035 A 
HETATM   18  C   UNK N   1      21.149  19.165   4.155  0.00  0.00     0.053 A 
HETATM   19  C   UNK N   1      20.732  19.265   2.820  0.00  0.00     0.036 A 
HETATM   20 Cl   UNK N   1      20.878  20.784   1.965  0.00  0.00    -0.084 Cl
HETATM   21  C   UNK N   1      20.199  18.154   2.164  0.00  0.00     0.024 A 
HETATM   22  C   UNK N   1      20.080  16.939   2.836  0.00  0.00     0.004 A 
HETATM   23  C   UNK N   1      20.496  16.839   4.164  0.00  0.00     0.029 A 
ENDBRANCH  15  17
ENDBRANCH   1  15
BRANCH  12  24
HETATM   24  C   UNK N   1      17.662  17.637   9.268  0.00  0.00     0.164 C 
BRANCH  24  25
HETATM   25  C   UNK N   1      17.414  18.338  10.582  0.00  0.00     0.184 C 
BRANCH  25  26
HETATM   26  O   UNK N   1      18.242  19.458  10.655  0.00  0.00    -0.399 OA
HETATM   27  H   UNK N   1      19.177  19.355  10.892  0.00  0.00     0.209 HD
ENDBRANCH  25  26
ENDBRANCH  24  25
ENDBRANCH  12  24
BRANCH   8  28
HETATM   28  C   UNK N   1      22.134  12.541   8.822  0.00  0.00     0.084 C 
HETATM   29  C   UNK N   1      22.413  12.661  10.311  0.00  0.00     0.032 C 
HETATM   30  C   UNK N   1      23.044  11.477   8.227  0.00  0.00     0.032 C 
ENDBRANCH   8  28
TORSDOF 6
ENDMDL
MODEL 4
REMARK VINA RESULT:      -6.5     12.395     15.509
REMARK  6 active torsions:
REMARK  status: ('A' for Active; 'I' for Inactive)
REMARK    1  A    between atoms: C_7  and  N_8 
REMARK    2  A    between atoms: N_8  and  C_10 
REMARK    3  A    between atoms: N_17  and  C_18 
REMARK       I    between atoms: C_23  and  N_24 
REMARK    4  A    between atoms: N_24  and  C_25 
REMARK    5  A    between atoms: C_25  and  C_26 
REMARK    6  A    between atoms: C_26  and  O_27 
ROOT
HETATM    1  C   UNK N   1      36.341  14.719  11.068  0.00  0.00     0.152 A 
HETATM    2  N   UNK N   1      35.327  15.186  10.286  0.00  0.00    -0.174 N 
ATOM      3  HN  UNK N   1      34.584  15.733  10.721  1.00  0.00     0.186 HD
HETATM    4  C   UNK N   1      37.329  13.969  10.439  0.00  0.00     0.123 A 
HETATM    5  N   UNK N   1      38.439  13.402  10.943  0.00  0.00    -0.346 N 
ATOM      6  HN  UNK N   1      38.751  13.393  11.914  1.00  0.00     0.167 HD
HETATM    7  C   UNK N   1      39.053  12.840   9.863  0.00  0.00     0.185 A 
HETATM    8  N   UNK N   1      38.342  13.041   8.719  0.00  0.00    -0.323 N 
HETATM    9  C   UNK N   1      37.269  13.752   9.104  0.00  0.00     0.155 A 
HETATM   10  N   UNK N   1      36.259  14.227   8.329  0.00  0.00    -0.174 N 
HETATM   11  C   UNK N   1      35.269  14.947   8.939  0.00  0.00     0.681 A 
HETATM   12  N   UNK N   1      34.185  15.459   8.191  0.00  0.00    -0.224 N 
HETATM   13  H   UNK N   1      36.242  14.059   7.358  0.00  0.00     0.186 HD
HETATM   14  H   UNK N   1      34.129  15.296   7.221  0.00  0.00     0.177 HD
ENDROOT
BRANCH   1  15
HETATM   15  N   UNK N   1      36.395  14.985  12.336  0.00  0.00    -0.340 N 
ATOM     16  HN  UNK N   1      36.706  15.920  12.603  1.00  0.00     0.167 HD
BRANCH  15  17
HETATM   17  C   UNK N   1      36.057  14.077  13.395  0.00  0.00     0.035 A 
HETATM   18  C   UNK N   1      35.176  13.021  13.130  0.00  0.00     0.053 A 
HETATM   19  C   UNK N   1      34.841  12.107  14.140  0.00  0.00     0.036 A 
HETATM   20 Cl   UNK N   1      33.740  10.790  13.804  0.00  0.00    -0.084 Cl
HETATM   21  C   UNK N   1      35.384  12.241  15.419  0.00  0.00     0.024 A 
HETATM   22  C   UNK N   1      36.263  13.286  15.696  0.00  0.00     0.004 A 
HETATM   23  C   UNK N   1      36.598  14.194  14.692  0.00  0.00     0.029 A 
ENDBRANCH  15  17
ENDBRANCH   1  15
BRANCH  12  24
HETATM   24  C   UNK N   1      33.161  16.222   8.860  0.00  0.00     0.164 C 
BRANCH  24  25
HETATM   25  C   UNK N   1      32.057  15.326   9.369  0.00  0.00     0.184 C 
BRANCH  25  26
HETATM   26  O   UNK N   1      32.275  15.069  10.722  0.00  0.00    -0.399 OA
HETATM   27  H   UNK N   1      32.695  15.742  11.281  0.00  0.00     0.209 HD
ENDBRANCH  25  26
ENDBRANCH  24  25
ENDBRANCH  12  24
BRANCH   8  28
HETATM   28  C   UNK N   1      38.748  12.658   7.358  0.00  0.00     0.084 C 
HETATM   29  C   UNK N   1      38.155  11.330   6.918  0.00  0.00     0.032 C 
HETATM   30  C   UNK N   1      40.260  12.603   7.213  0.00  0.00     0.032 C 
ENDBRANCH   8  28
TORSDOF 6
ENDMDL
MODEL 5
REMARK VINA RESULT:      -6.5     12.359     15.547
REMARK  6 active torsions:
REMARK  status: ('A' for Active; 'I' for Inactive)
REMARK    1  A    between atoms: C_7  and  N_8 
REMARK    2  A    between atoms: N_8  and  C_10 
REMARK    3  A    between atoms: N_17  and  C_18 
REMARK       I    between atoms: C_23  and  N_24 
REMARK    4  A    between atoms: N_24  and  C_25 
REMARK    5  A    between atoms: C_25  and  C_26 
REMARK    6  A    between atoms: C_26  and  O_27 
ROOT
HETATM    1  C   UNK N   1      36.686  13.652  11.357  0.00  0.00     0.152 A 
HETATM    2  N   UNK N   1      36.653  12.606  10.484  0.00  0.00    -0.174 N 
ATOM      3  HN  UNK N   1      37.043  11.710  10.776  1.00  0.00     0.186 HD
HETATM    4  C   UNK N   1      36.152  14.858  10.916  0.00  0.00     0.123 A 
HETATM    5  N   UNK N   1      36.034  16.037  11.552  0.00  0.00    -0.346 N 
ATOM      6  HN  UNK N   1      36.352  16.276  12.492  1.00  0.00     0.167 HD
HETATM    7  C   UNK N   1      35.394  16.843  10.657  0.00  0.00     0.185 A 
HETATM    8  N   UNK N   1      35.130  16.190   9.492  0.00  0.00    -0.323 N 
HETATM    9  C   UNK N   1      35.611  14.949   9.679  0.00  0.00     0.155 A 
HETATM   10  N   UNK N   1      35.574  13.900   8.816  0.00  0.00    -0.174 N 
HETATM   11  C   UNK N   1      36.116  12.714   9.229  0.00  0.00     0.681 A 
HETATM   12  N   UNK N   1      36.121  11.588   8.375  0.00  0.00    -0.224 N 
HETATM   13  H   UNK N   1      35.170  13.991   7.923  0.00  0.00     0.186 HD
HETATM   14  H   UNK N   1      35.738  11.650   7.469  0.00  0.00     0.177 HD
ENDROOT
BRANCH   1  15
HETATM   15  N   UNK N   1      37.167  13.520  12.553  0.00  0.00    -0.340 N 
ATOM     16  HN  UNK N   1      38.175  13.633  12.666  1.00  0.00     0.167 HD
BRANCH  15  17
HETATM   17  C   UNK N   1      36.402  13.227  13.734  0.00  0.00     0.035 A 
HETATM   18  C   UNK N   1      35.387  12.264  13.665  0.00  0.00     0.053 A 
HETATM   19  C   UNK N   1      34.636  11.944  14.805  0.00  0.00     0.036 A 
HETATM   20 Cl   UNK N   1      33.369  10.741  14.713  0.00  0.00    -0.084 Cl
HETATM   21  C   UNK N   1      34.894  12.581  16.020  0.00  0.00     0.024 A 
HETATM   22  C   UNK N   1      35.902  13.539  16.103  0.00  0.00     0.004 A 
HETATM   23  C   UNK N   1      36.650  13.857  14.970  0.00  0.00     0.029 A 
ENDBRANCH  15  17
ENDBRANCH   1  15
BRANCH  12  24
HETATM   24  C   UNK N   1      36.691  10.348   8.841  0.00  0.00     0.164 C 
BRANCH  24  25
HETATM   25  C   UNK N   1      35.621   9.418   9.363  0.00  0.00     0.184 C 
BRANCH  25  26
HETATM   26  O   UNK N   1      35.419   9.683  10.717  0.00  0.00    -0.399 OA
HETATM   27  H   UNK N   1      35.105   8.979  11.307  0.00  0.00     0.209 HD
ENDBRANCH  25  26
ENDBRANCH  24  25
ENDBRANCH  12  24
BRANCH   8  28
HETATM   28  C   UNK N   1      34.373  16.716   8.346  0.00  0.00     0.084 C 
HETATM   29  C   UNK N   1      34.501  18.223   8.198  0.00  0.00     0.032 C 
HETATM   30  C   UNK N   1      32.900  16.345   8.422  0.00  0.00     0.032 C 
ENDBRANCH   8  28
TORSDOF 6
ENDMDL
MODEL 6
REMARK VINA RESULT:      -6.4      9.191     11.932
REMARK  6 active torsions:
REMARK  status: ('A' for Active; 'I' for Inactive)
REMARK    1  A    between atoms: C_7  and  N_8 
REMARK    2  A    between atoms: N_8  and  C_10 
REMARK    3  A    between atoms: N_17  and  C_18 
REMARK       I    between atoms: C_23  and  N_24 
REMARK    4  A    between atoms: N_24  and  C_25 
REMARK    5  A    between atoms: C_25  and  C_26 
REMARK    6  A    between atoms: C_26  and  O_27 
ROOT
HETATM    1  C   UNK N   1      34.246  15.813   7.877  0.00  0.00     0.152 A 
HETATM    2  N   UNK N   1      32.979  16.200   8.197  0.00  0.00    -0.174 N 
ATOM      3  HN  UNK N   1      32.455  16.766   7.530  1.00  0.00     0.186 HD
HETATM    4  C   UNK N   1      34.930  15.051   8.818  0.00  0.00     0.123 A 
HETATM    5  N   UNK N   1      36.165  14.522   8.773  0.00  0.00    -0.346 N 
ATOM      6  HN  UNK N   1      36.858  14.612   8.029  1.00  0.00     0.167 HD
HETATM    7  C   UNK N   1      36.285  13.837   9.947  0.00  0.00     0.185 A 
HETATM    8  N   UNK N   1      35.161  13.945  10.708  0.00  0.00    -0.323 N 
HETATM    9  C   UNK N   1      34.326  14.706   9.980  0.00  0.00     0.155 A 
HETATM   10  N   UNK N   1      33.060  15.089  10.290  0.00  0.00    -0.174 N 
HETATM   11  C   UNK N   1      32.385  15.858   9.382  0.00  0.00     0.681 A 
HETATM   12  N   UNK N   1      31.069  16.299   9.649  0.00  0.00    -0.224 N 
HETATM   13  H   UNK N   1      32.642  14.820  11.140  0.00  0.00     0.186 HD
HETATM   14  H   UNK N   1      30.627  16.061  10.497  0.00  0.00     0.177 HD
ENDROOT
BRANCH   1  15
HETATM   15  N   UNK N   1      34.778  16.118   6.735  0.00  0.00    -0.340 N 
ATOM     16  HN  UNK N   1      35.785  16.287   6.720  1.00  0.00     0.167 HD
BRANCH  15  17
HETATM   17  C   UNK N   1      34.072  16.239   5.490  0.00  0.00     0.035 A 
HETATM   18  C   UNK N   1      34.042  15.144   4.617  0.00  0.00     0.053 A 
HETATM   19  C   UNK N   1      33.345  15.227   3.402  0.00  0.00     0.036 A 
HETATM   20 Cl   UNK N   1      33.311  13.857   2.314  0.00  0.00    -0.084 Cl
HETATM   21  C   UNK N   1      32.674  16.401   3.053  0.00  0.00     0.024 A 
HETATM   22  C   UNK N   1      32.695  17.496   3.914  0.00  0.00     0.004 A 
HETATM   23  C   UNK N   1      33.386  17.414   5.122  0.00  0.00     0.029 A 
ENDBRANCH  15  17
ENDBRANCH   1  15
BRANCH  12  24
HETATM   24  C   UNK N   1      30.378  17.101   8.669  0.00  0.00     0.164 C 
BRANCH  24  25
HETATM   25  C   UNK N   1      30.327  18.550   9.089  0.00  0.00     0.184 C 
BRANCH  25  26
HETATM   26  O   UNK N   1      29.730  18.631  10.347  0.00  0.00    -0.399 OA
HETATM   27  H   UNK N   1      28.769  18.735  10.421  0.00  0.00     0.209 HD
ENDBRANCH  25  26
ENDBRANCH  24  25
ENDBRANCH  12  24
BRANCH   8  28
HETATM   28  C   UNK N   1      34.901  13.264  11.985  0.00  0.00     0.084 C 
HETATM   29  C   UNK N   1      35.698  13.851  13.138  0.00  0.00     0.032 C 
HETATM   30  C   UNK N   1      35.176  11.771  11.897  0.00  0.00     0.032 C 
ENDBRANCH   8  28
TORSDOF 6
ENDMDL
MODEL 7
REMARK VINA RESULT:      -6.4     14.459     16.242
REMARK  6 active torsions:
REMARK  status: ('A' for Active; 'I' for Inactive)
REMARK    1  A    between atoms: C_7  and  N_8 
REMARK    2  A    between atoms: N_8  and  C_10 
REMARK    3  A    between atoms: N_17  and  C_18 
REMARK       I    between atoms: C_23  and  N_24 
REMARK    4  A    between atoms: N_24  and  C_25 
REMARK    5  A    between atoms: C_25  and  C_26 
REMARK    6  A    between atoms: C_26  and  O_27 
ROOT
HETATM    1  C   UNK N   1      36.416  13.486  12.390  0.00  0.00     0.152 A 
HETATM    2  N   UNK N   1      35.588  12.530  11.881  0.00  0.00    -0.174 N 
ATOM      3  HN  UNK N   1      35.595  12.359  10.876  1.00  0.00     0.186 HD
HETATM    4  C   UNK N   1      36.369  13.694  13.764  0.00  0.00     0.123 A 
HETATM    5  N   UNK N   1      37.069  14.544  14.535  0.00  0.00    -0.346 N 
ATOM      6  HN  UNK N   1      37.762  15.232  14.240  1.00  0.00     0.167 HD
HETATM    7  C   UNK N   1      36.645  14.278  15.805  0.00  0.00     0.185 A 
HETATM    8  N   UNK N   1      35.699  13.299  15.823  0.00  0.00    -0.323 N 
HETATM    9  C   UNK N   1      35.545  12.947  14.536  0.00  0.00     0.155 A 
HETATM   10  N   UNK N   1      34.728  11.990  14.023  0.00  0.00    -0.174 N 
HETATM   11  C   UNK N   1      34.748  11.791  12.670  0.00  0.00     0.681 A 
HETATM   12  N   UNK N   1      33.913  10.820  12.073  0.00  0.00    -0.224 N 
HETATM   13  H   UNK N   1      34.141  11.457  14.607  0.00  0.00     0.186 HD
HETATM   14  H   UNK N   1      33.303  10.280  12.627  0.00  0.00     0.177 HD
ENDROOT
BRANCH   1  15
HETATM   15  N   UNK N   1      37.229  14.150  11.630  0.00  0.00    -0.340 N 
ATOM     16  HN  UNK N   1      37.583  15.037  11.990  1.00  0.00     0.167 HD
BRANCH  15  17
HETATM   17  C   UNK N   1      37.674  13.745  10.326  0.00  0.00     0.035 A 
HETATM   18  C   UNK N   1      38.842  12.981  10.213  0.00  0.00     0.053 A 
HETATM   19  C   UNK N   1      39.292  12.555   8.954  0.00  0.00     0.036 A 
HETATM   20 Cl   UNK N   1      40.752  11.601   8.819  0.00  0.00    -0.084 Cl
HETATM   21  C   UNK N   1      38.576  12.887   7.802  0.00  0.00     0.024 A 
HETATM   22  C   UNK N   1      37.411  13.645   7.901  0.00  0.00     0.004 A 
HETATM   23  C   UNK N   1      36.964  14.068   9.152  0.00  0.00     0.029 A 
ENDBRANCH  15  17
ENDBRANCH   1  15
BRANCH  12  24
HETATM   24  C   UNK N   1      33.963  10.625  10.644  0.00  0.00     0.164 C 
BRANCH  24  25
HETATM   25  C   UNK N   1      32.829   9.746  10.174  0.00  0.00     0.184 C 
BRANCH  25  26
HETATM   26  O   UNK N   1      31.981  10.503   9.366  0.00  0.00    -0.399 OA
HETATM   27  H   UNK N   1      31.716  10.169   8.494  0.00  0.00     0.209 HD
ENDBRANCH  25  26
ENDBRANCH  24  25
ENDBRANCH  12  24
BRANCH   8  28
HETATM   28  C   UNK N   1      35.088  12.695  17.018  0.00  0.00     0.084 C 
HETATM   29  C   UNK N   1      35.186  13.588  18.244  0.00  0.00     0.032 C 
HETATM   30  C   UNK N   1      35.695  11.338  17.338  0.00  0.00     0.032 C 
ENDBRANCH   8  28
TORSDOF 6
ENDMDL
MODEL 8
REMARK VINA RESULT:      -6.4     12.389     14.755
REMARK  6 active torsions:
REMARK  status: ('A' for Active; 'I' for Inactive)
REMARK    1  A    between atoms: C_7  and  N_8 
REMARK    2  A    between atoms: N_8  and  C_10 
REMARK    3  A    between atoms: N_17  and  C_18 
REMARK       I    between atoms: C_23  and  N_24 
REMARK    4  A    between atoms: N_24  and  C_25 
REMARK    5  A    between atoms: C_25  and  C_26 
REMARK    6  A    between atoms: C_26  and  O_27 
ROOT
HETATM    1  C   UNK N   1      26.368  24.367  -5.176  0.00  0.00     0.152 A 
HETATM    2  N   UNK N   1      27.581  23.942  -4.720  0.00  0.00    -0.174 N 
ATOM      3  HN  UNK N   1      27.801  22.948  -4.768  1.00  0.00     0.186 HD
HETATM    4  C   UNK N   1      26.103  25.729  -5.084  0.00  0.00     0.123 A 
HETATM    5  N   UNK N   1      25.018  26.428  -5.461  0.00  0.00    -0.346 N 
ATOM      6  HN  UNK N   1      24.153  26.070  -5.867  1.00  0.00     0.167 HD
HETATM    7  C   UNK N   1      25.333  27.725  -5.177  0.00  0.00     0.185 A 
HETATM    8  N   UNK N   1      26.574  27.831  -4.628  0.00  0.00    -0.323 N 
HETATM    9  C   UNK N   1      27.038  26.571  -4.583  0.00  0.00     0.155 A 
HETATM   10  N   UNK N   1      28.248  26.141  -4.138  0.00  0.00    -0.174 N 
HETATM   11  C   UNK N   1      28.512  24.800  -4.201  0.00  0.00     0.681 A 
HETATM   12  N   UNK N   1      29.747  24.288  -3.744  0.00  0.00    -0.224 N 
HETATM   13  H   UNK N   1      28.912  26.775  -3.782  0.00  0.00     0.186 HD
HETATM   14  H   UNK N   1      30.428  24.893  -3.368  0.00  0.00     0.177 HD
ENDROOT
BRANCH   1  15
HETATM   15  N   UNK N   1      25.514  23.543  -5.696  0.00  0.00    -0.340 N 
ATOM     16  HN  UNK N   1      24.661  23.359  -5.165  1.00  0.00     0.167 HD
BRANCH  15  17
HETATM   17  C   UNK N   1      25.665  22.867  -6.954  0.00  0.00     0.035 A 
HETATM   18  C   UNK N   1      26.278  23.539  -8.018  0.00  0.00     0.053 A 
HETATM   19  C   UNK N   1      26.456  22.899  -9.253  0.00  0.00     0.036 A 
HETATM   20 Cl   UNK N   1      27.222  23.744 -10.579  0.00  0.00    -0.084 Cl
HETATM   21  C   UNK N   1      26.024  21.583  -9.432  0.00  0.00     0.024 A 
HETATM   22  C   UNK N   1      25.414  20.902  -8.381  0.00  0.00     0.004 A 
HETATM   23  C   UNK N   1      25.238  21.538  -7.152  0.00  0.00     0.029 A 
ENDBRANCH  15  17
ENDBRANCH   1  15
BRANCH  12  24
HETATM   24  C   UNK N   1      30.002  22.871  -3.832  0.00  0.00     0.164 C 
BRANCH  24  25
HETATM   25  C   UNK N   1      30.852  22.396  -2.678  0.00  0.00     0.184 C 
BRANCH  25  26
HETATM   26  O   UNK N   1      30.481  23.097  -1.530  0.00  0.00    -0.399 OA
HETATM   27  H   UNK N   1      31.030  23.830  -1.212  0.00  0.00     0.209 HD
ENDBRANCH  25  26
ENDBRANCH  24  25
ENDBRANCH  12  24
BRANCH   8  28
HETATM   28  C   UNK N   1      27.275  29.078  -4.286  0.00  0.00     0.084 C 
HETATM   29  C   UNK N   1      26.363  30.109  -3.641  0.00  0.00     0.032 C 
HETATM   30  C   UNK N   1      27.951  29.699  -5.498  0.00  0.00     0.032 C 
ENDBRANCH   8  28
TORSDOF 6
ENDMDL
MODEL 9
REMARK VINA RESULT:      -6.3      4.207      5.604
REMARK  6 active torsions:
REMARK  status: ('A' for Active; 'I' for Inactive)
REMARK    1  A    between atoms: C_7  and  N_8 
REMARK    2  A    between atoms: N_8  and  C_10 
REMARK    3  A    between atoms: N_17  and  C_18 
REMARK       I    between atoms: C_23  and  N_24 
REMARK    4  A    between atoms: N_24  and  C_25 
REMARK    5  A    between atoms: C_25  and  C_26 
REMARK    6  A    between atoms: C_26  and  O_27 
ROOT
HETATM    1  C   UNK N   1      21.272  16.116   3.924  0.00  0.00     0.152 A 
HETATM    2  N   UNK N   1      20.916  17.275   3.301  0.00  0.00    -0.174 N 
ATOM      3  HN  UNK N   1      21.181  18.162   3.728  1.00  0.00     0.186 HD
HETATM    4  C   UNK N   1      20.883  14.928   3.314  0.00  0.00     0.123 A 
HETATM    5  N   UNK N   1      21.101  13.653   3.683  0.00  0.00    -0.346 N 
ATOM      6  HN  UNK N   1      21.580  13.316   4.519  1.00  0.00     0.167 HD
HETATM    7  C   UNK N   1      20.536  12.910   2.688  0.00  0.00     0.185 A 
HETATM    8  N   UNK N   1      19.972  13.698   1.731  0.00  0.00    -0.323 N 
HETATM    9  C   UNK N   1      20.204  14.956   2.143  0.00  0.00     0.155 A 
HETATM   10  N   UNK N   1      19.860  16.115   1.524  0.00  0.00    -0.174 N 
HETATM   11  C   UNK N   1      20.216  17.291   2.124  0.00  0.00     0.681 A 
HETATM   12  N   UNK N   1      19.878  18.531   1.537  0.00  0.00    -0.224 N 
HETATM   13  H   UNK N   1      19.370  16.108   0.669  0.00  0.00     0.186 HD
HETATM   14  H   UNK N   1      19.375  18.560   0.691  0.00  0.00     0.177 HD
ENDROOT
BRANCH   1  15
HETATM   15  N   UNK N   1      21.964  16.121   5.019  0.00  0.00    -0.340 N 
ATOM     16  HN  UNK N   1      22.978  16.196   4.930  1.00  0.00     0.167 HD
BRANCH  15  17
HETATM   17  C   UNK N   1      21.426  16.029   6.348  0.00  0.00     0.035 A 
HETATM   18  C   UNK N   1      21.871  15.004   7.193  0.00  0.00     0.053 A 
HETATM   19  C   UNK N   1      21.378  14.899   8.501  0.00  0.00     0.036 A 
HETATM   20 Cl   UNK N   1      21.937  13.617   9.552  0.00  0.00    -0.084 Cl
HETATM   21  C   UNK N   1      20.438  15.818   8.974  0.00  0.00     0.024 A 
HETATM   22  C   UNK N   1      19.989  16.843   8.146  0.00  0.00     0.004 A 
HETATM   23  C   UNK N   1      20.480  16.948   6.845  0.00  0.00     0.029 A 
ENDBRANCH  15  17
ENDBRANCH   1  15
BRANCH  12  24
HETATM   24  C   UNK N   1      20.276  19.755   2.189  0.00  0.00     0.164 C 
BRANCH  24  25
HETATM   25  C   UNK N   1      21.046  20.649   1.247  0.00  0.00     0.184 C 
BRANCH  25  26
HETATM   26  O   UNK N   1      20.555  20.467  -0.046  0.00  0.00    -0.399 OA
HETATM   27  H   UNK N   1      20.649  19.606  -0.483  0.00  0.00     0.209 HD
ENDBRANCH  25  26
ENDBRANCH  24  25
ENDBRANCH  12  24
BRANCH   8  28
HETATM   28  C   UNK N   1      19.359  13.245   0.473  0.00  0.00     0.084 C 
HETATM   29  C   UNK N   1      17.898  13.645   0.351  0.00  0.00     0.032 C 
HETATM   30  C   UNK N   1      19.481  11.739   0.295  0.00  0.00     0.032 C 
ENDBRANCH   8  28
TORSDOF 6
ENDMDL
