REMARK  6 active torsions:
REMARK  status: ('A' for Active; 'I' for Inactive)
REMARK    1  A    between atoms: C_7  and  N_8 
REMARK    2  A    between atoms: N_8  and  C_10 
REMARK    3  A    between atoms: N_17  and  C_18 
REMARK       I    between atoms: C_23  and  N_24 
REMARK    4  A    between atoms: N_24  and  C_25 
REMARK    5  A    between atoms: C_25  and  C_26 
REMARK    6  A    between atoms: C_26  and  O_27 
ROOT
HETATM    1  C   UNK N   1      -0.182   0.829  -0.038  0.00  0.00     0.152 A 
HETATM    2  N   UNK N   1       0.930   0.041  -0.021  0.00  0.00    -0.174 N 
ATOM      3  HN  UNK N   1       1.847   0.486  -0.052  1.00  0.00     0.186 HD
HETATM    4  C   UNK N   1      -1.413   0.183  -0.004  0.00  0.00     0.123 A 
HETATM    5  N   UNK N   1      -2.658   0.691   0.005  0.00  0.00    -0.346 N 
ATOM      6  HN  UNK N   1      -2.934   1.672  -0.043  1.00  0.00     0.167 HD
HETATM    7  C   UNK N   1      -3.470  -0.402   0.093  0.00  0.00     0.185 A 
HETATM    8  N   UNK N   1      -2.753  -1.559   0.126  0.00  0.00    -0.323 N 
HETATM    9  C   UNK N   1      -1.469  -1.168   0.067  0.00  0.00     0.155 A 
HETATM   10  N   UNK N   1      -0.356  -1.947   0.092  0.00  0.00    -0.174 N 
HETATM   11  C   UNK N   1       0.861  -1.325   0.036  0.00  0.00     0.681 A 
HETATM   12  N   UNK N   1       2.056  -2.079   0.046  0.00  0.00    -0.224 N 
HETATM   13  H   UNK N   1      -0.424  -2.928   0.149  0.00  0.00     0.186 HD
HETATM   14  H   UNK N   1       2.023  -3.063   0.087  0.00  0.00     0.177 HD
ENDROOT
BRANCH   1  15
HETATM   15  N   UNK N   1      -0.095   2.122  -0.057  0.00  0.00    -0.340 N 
ATOM     16  HN  UNK N   1      -0.969   2.648  -0.081  1.00  0.00     0.167 HD
BRANCH  15  17
HETATM   17  C   UNK N   1       1.127   2.877  -0.048  0.00  0.00     0.035 A 
HETATM   18  C   UNK N   1       1.062   4.276  -0.037  0.00  0.00     0.053 A 
HETATM   19  C   UNK N   1       2.238   5.040  -0.010  0.00  0.00     0.036 A 
HETATM   20 Cl   UNK N   1       2.151   6.787   0.003  0.00  0.00    -0.084 Cl
HETATM   21  C   UNK N   1       3.485   4.412   0.008  0.00  0.00     0.024 A 
HETATM   22  C   UNK N   1       3.564   3.021  -0.000  0.00  0.00     0.004 A 
HETATM   23  C   UNK N   1       2.395   2.261  -0.026  0.00  0.00     0.029 A 
ENDBRANCH  15  17
ENDBRANCH   1  15
BRANCH  12  24
HETATM   24  C   UNK N   1       3.325  -1.395  -0.004  0.00  0.00     0.164 C 
BRANCH  24  25
HETATM   25  C   UNK N   1       4.474  -2.375   0.016  0.00  0.00     0.184 C 
BRANCH  25  26
HETATM   26  O   UNK N   1       5.672  -1.661  -0.005  0.00  0.00    -0.399 OA
HETATM   27  H   UNK N   1       6.518  -2.135  -0.019  0.00  0.00     0.209 HD
ENDBRANCH  25  26
ENDBRANCH  24  25
ENDBRANCH  12  24
BRANCH   8  28
HETATM   28  C   UNK N   1      -3.290  -2.916   0.311  0.00  0.00     0.084 C 
HETATM   29  C   UNK N   1      -2.424  -3.985  -0.335  0.00  0.00     0.032 C 
HETATM   30  C   UNK N   1      -4.711  -3.039  -0.216  0.00  0.00     0.032 C 
ENDBRANCH   8  28
TORSDOF 6
