MODEL 1
REMARK VINA RESULT:      -6.0      0.000      0.000
REMARK  2 active torsions:
REMARK  status: ('A' for Active; 'I' for Inactive)
REMARK    1  A    between atoms: C_5  and  C_8 
REMARK    2  A    between atoms: C_17  and  O_18 
ROOT
HETATM    1  C   UNK N   1      32.024  16.902   8.389  0.00  0.00     0.109 A 
HETATM    2  S   UNK N   1      31.381  16.613   6.883  0.00  0.00    -0.067 SA
HETATM    3  C   UNK N   1      29.978  17.435   7.113  0.00  0.00     0.036 A 
HETATM    4  C   UNK N   1      28.904  17.637   6.259  0.00  0.00     0.057 A 
HETATM    5  C   UNK N   1      30.018  17.950   8.409  0.00  0.00     0.050 A 
HETATM    6  N   UNK N   1      31.158  17.655   9.126  0.00  0.00    -0.347 N 
ATOM      7  HN  UNK N   1      31.331  17.961  10.083  1.00  0.00     0.167 HD
HETATM    8  C   UNK N   1      28.952  18.703   8.895  0.00  0.00     0.034 A 
HETATM    9  C   UNK N   1      27.848  18.925   8.048  0.00  0.00     0.039 A 
HETATM   10  C   UNK N   1      27.824  18.394   6.739  0.00  0.00     0.067 A 
ENDROOT
BRANCH   1  11
HETATM   11  C   UNK N   1      33.327  16.429   8.863  0.00  0.00     0.107 A 
HETATM   12  N   UNK N   1      34.059  17.155   9.613  0.00  0.00    -0.319 N 
HETATM   13  C   UNK N   1      35.214  16.589   9.972  0.00  0.00     0.232 A 
ATOM     14  HN  UNK N   1      33.785  18.090   9.914  1.00  0.00     0.169 HD
HETATM   15  O   UNK N   1      36.009  17.170  10.691  0.00  0.00    -0.272 OA
HETATM   16  C   UNK N   1      35.466  15.216   9.452  0.00  0.00     0.184 A 
HETATM   17  S   UNK N   1      33.987  14.814   8.443  0.00  0.00    -0.100 SA
ENDBRANCH   1  11
BRANCH  10  18
HETATM   18  O   UNK N   1      26.763  18.613   5.948  0.00  0.00    -0.361 OA
HETATM   19  H   UNK N   1      26.534  19.488   5.702  0.00  0.00     0.217 HD
ENDBRANCH  10  18
TORSDOF 2
ENDMDL
MODEL 2
REMARK VINA RESULT:      -5.9      5.531      9.218
REMARK  2 active torsions:
REMARK  status: ('A' for Active; 'I' for Inactive)
REMARK    1  A    between atoms: C_5  and  C_8 
REMARK    2  A    between atoms: C_17  and  O_18 
ROOT
HETATM    1  C   UNK N   1      35.199  13.663  12.601  0.00  0.00     0.109 A 
HETATM    2  S   UNK N   1      36.102  13.930  13.973  0.00  0.00    -0.067 SA
HETATM    3  C   UNK N   1      35.598  12.600  14.794  0.00  0.00     0.036 A 
HETATM    4  C   UNK N   1      35.936  12.145  16.060  0.00  0.00     0.057 A 
HETATM    5  C   UNK N   1      34.697  11.930  13.967  0.00  0.00     0.050 A 
HETATM    6  N   UNK N   1      34.471  12.519  12.742  0.00  0.00    -0.347 N 
ATOM      7  HN  UNK N   1      33.840  12.147  12.032  1.00  0.00     0.167 HD
HETATM    8  C   UNK N   1      34.095  10.751  14.400  0.00  0.00     0.034 A 
HETATM    9  C   UNK N   1      34.421  10.264  15.682  0.00  0.00     0.039 A 
HETATM   10  C   UNK N   1      35.335  10.958  16.507  0.00  0.00     0.067 A 
ENDROOT
BRANCH   1  11
HETATM   11  C   UNK N   1      35.187  14.517  11.411  0.00  0.00     0.107 A 
HETATM   12  N   UNK N   1      35.415  15.769  11.496  0.00  0.00    -0.319 N 
HETATM   13  C   UNK N   1      35.379  16.416  10.328  0.00  0.00     0.232 A 
ATOM     14  HN  UNK N   1      35.609  16.236  12.381  1.00  0.00     0.169 HD
HETATM   15  O   UNK N   1      35.582  17.617  10.261  0.00  0.00    -0.272 OA
HETATM   16  C   UNK N   1      35.084  15.590   9.124  0.00  0.00     0.184 A 
HETATM   17  S   UNK N   1      34.864  13.884   9.763  0.00  0.00    -0.100 SA
ENDBRANCH   1  11
BRANCH  10  18
HETATM   18  O   UNK N   1      35.631  10.480  17.725  0.00  0.00    -0.361 OA
HETATM   19  H   UNK N   1      36.255   9.788  17.818  0.00  0.00     0.217 HD
ENDBRANCH  10  18
TORSDOF 2
ENDMDL
MODEL 3
REMARK VINA RESULT:      -5.8      6.763      9.203
REMARK  2 active torsions:
REMARK  status: ('A' for Active; 'I' for Inactive)
REMARK    1  A    between atoms: C_5  and  C_8 
REMARK    2  A    between atoms: C_17  and  O_18 
ROOT
HETATM    1  C   UNK N   1      24.279  19.039   4.262  0.00  0.00     0.109 A 
HETATM    2  S   UNK N   1      23.106  17.914   4.616  0.00  0.00    -0.067 SA
HETATM    3  C   UNK N   1      21.906  18.606   3.734  0.00  0.00     0.036 A 
HETATM    4  C   UNK N   1      20.589  18.213   3.545  0.00  0.00     0.057 A 
HETATM    5  C   UNK N   1      22.444  19.751   3.146  0.00  0.00     0.050 A 
HETATM    6  N   UNK N   1      23.768  19.997   3.437  0.00  0.00    -0.347 N 
ATOM      7  HN  UNK N   1      24.297  20.793   3.082  1.00  0.00     0.167 HD
HETATM    8  C   UNK N   1      21.651  20.555   2.329  0.00  0.00     0.034 A 
HETATM    9  C   UNK N   1      20.310  20.180   2.120  0.00  0.00     0.039 A 
HETATM   10  C   UNK N   1      19.782  19.017   2.725  0.00  0.00     0.067 A 
ENDROOT
BRANCH   1  11
HETATM   11  C   UNK N   1      25.660  19.011   4.750  0.00  0.00     0.107 A 
HETATM   12  N   UNK N   1      26.014  19.695   5.766  0.00  0.00    -0.319 N 
HETATM   13  C   UNK N   1      27.301  19.562   6.099  0.00  0.00     0.232 A 
ATOM     14  HN  UNK N   1      25.369  20.294   6.281  1.00  0.00     0.169 HD
HETATM   15  O   UNK N   1      27.775  20.157   7.052  0.00  0.00    -0.272 OA
HETATM   16  C   UNK N   1      28.112  18.647   5.248  0.00  0.00     0.184 A 
HETATM   17  S   UNK N   1      26.944  18.021   3.980  0.00  0.00    -0.100 SA
ENDBRANCH   1  11
BRANCH  10  18
HETATM   18  O   UNK N   1      18.501  18.677   2.516  0.00  0.00    -0.361 OA
HETATM   19  H   UNK N   1      18.147  18.692   1.648  0.00  0.00     0.217 HD
ENDBRANCH  10  18
TORSDOF 2
ENDMDL
MODEL 4
REMARK VINA RESULT:      -5.8      4.154      5.577
REMARK  2 active torsions:
REMARK  status: ('A' for Active; 'I' for Inactive)
REMARK    1  A    between atoms: C_5  and  C_8 
REMARK    2  A    between atoms: C_17  and  O_18 
ROOT
HETATM    1  C   UNK N   1      35.092  14.851  11.717  0.00  0.00     0.109 A 
HETATM    2  S   UNK N   1      35.682  16.223  10.987  0.00  0.00    -0.067 SA
HETATM    3  C   UNK N   1      34.597  16.265   9.755  0.00  0.00     0.036 A 
HETATM    4  C   UNK N   1      34.464  17.163   8.705  0.00  0.00     0.057 A 
HETATM    5  C   UNK N   1      33.749  15.171   9.924  0.00  0.00     0.050 A 
HETATM    6  N   UNK N   1      34.021  14.378  11.018  0.00  0.00    -0.347 N 
ATOM      7  HN  UNK N   1      33.490  13.545  11.272  1.00  0.00     0.167 HD
HETATM    8  C   UNK N   1      32.715  14.942   9.019  0.00  0.00     0.034 A 
HETATM    9  C   UNK N   1      32.556  15.838   7.944  0.00  0.00     0.039 A 
HETATM   10  C   UNK N   1      33.426  16.940   7.787  0.00  0.00     0.067 A 
ENDROOT
BRANCH   1  11
HETATM   11  C   UNK N   1      35.629  14.236  12.934  0.00  0.00     0.107 A 
HETATM   12  N   UNK N   1      36.398  14.886  13.716  0.00  0.00    -0.319 N 
HETATM   13  C   UNK N   1      36.801  14.199  14.789  0.00  0.00     0.232 A 
ATOM     14  HN  UNK N   1      36.683  15.848  13.537  1.00  0.00     0.169 HD
HETATM   15  O   UNK N   1      37.538  14.699  15.622  0.00  0.00    -0.272 OA
HETATM   16  C   UNK N   1      36.296  12.803  14.907  0.00  0.00     0.184 A 
HETATM   17  S   UNK N   1      35.248  12.552  13.422  0.00  0.00    -0.100 SA
ENDBRANCH   1  11
BRANCH  10  18
HETATM   18  O   UNK N   1      33.260  17.781   6.755  0.00  0.00    -0.361 OA
HETATM   19  H   UNK N   1      33.580  18.660   6.810  0.00  0.00     0.217 HD
ENDBRANCH  10  18
TORSDOF 2
ENDMDL
MODEL 5
REMARK VINA RESULT:      -5.6      3.987      7.768
REMARK  2 active torsions:
REMARK  status: ('A' for Active; 'I' for Inactive)
REMARK    1  A    between atoms: C_5  and  C_8 
REMARK    2  A    between atoms: C_17  and  O_18 
ROOT
HETATM    1  C   UNK N   1      34.786  15.241  10.519  0.00  0.00     0.109 A 
HETATM    2  S   UNK N   1      34.532  13.604  10.375  0.00  0.00    -0.067 SA
HETATM    3  C   UNK N   1      35.182  13.181  11.822  0.00  0.00     0.036 A 
HETATM    4  C   UNK N   1      35.327  11.934  12.412  0.00  0.00     0.057 A 
HETATM    5  C   UNK N   1      35.610  14.360  12.434  0.00  0.00     0.050 A 
HETATM    6  N   UNK N   1      35.391  15.512  11.711  0.00  0.00    -0.347 N 
ATOM      7  HN  UNK N   1      35.649  16.447  12.026  1.00  0.00     0.167 HD
HETATM    8  C   UNK N   1      36.211  14.316  13.690  0.00  0.00     0.034 A 
HETATM    9  C   UNK N   1      36.371  13.063  14.312  0.00  0.00     0.039 A 
HETATM   10  C   UNK N   1      35.933  11.879  13.677  0.00  0.00     0.067 A 
ENDROOT
BRANCH   1  11
HETATM   11  C   UNK N   1      34.414  16.251   9.526  0.00  0.00     0.107 A 
HETATM   12  N   UNK N   1      35.007  17.379   9.477  0.00  0.00    -0.319 N 
HETATM   13  C   UNK N   1      34.567  18.193   8.514  0.00  0.00     0.232 A 
ATOM     14  HN  UNK N   1      35.755  17.638  10.121  1.00  0.00     0.169 HD
HETATM   15  O   UNK N   1      35.046  19.302   8.352  0.00  0.00    -0.272 OA
HETATM   16  C   UNK N   1      33.469  17.666   7.656  0.00  0.00     0.184 A 
HETATM   17  S   UNK N   1      33.122  15.987   8.308  0.00  0.00    -0.100 SA
ENDBRANCH   1  11
BRANCH  10  18
HETATM   18  O   UNK N   1      36.096  10.694  14.285  0.00  0.00    -0.361 OA
HETATM   19  H   UNK N   1      35.610   9.948  13.995  0.00  0.00     0.217 HD
ENDBRANCH  10  18
TORSDOF 2
ENDMDL
MODEL 6
REMARK VINA RESULT:      -5.6      2.519      3.092
REMARK  2 active torsions:
REMARK  status: ('A' for Active; 'I' for Inactive)
REMARK    1  A    between atoms: C_5  and  C_8 
REMARK    2  A    between atoms: C_17  and  O_18 
ROOT
HETATM    1  C   UNK N   1      33.481  15.910   9.104  0.00  0.00     0.109 A 
HETATM    2  S   UNK N   1      34.060  16.153   7.564  0.00  0.00    -0.067 SA
HETATM    3  C   UNK N   1      32.632  16.608   6.892  0.00  0.00     0.036 A 
HETATM    4  C   UNK N   1      32.329  16.976   5.590  0.00  0.00     0.057 A 
HETATM    5  C   UNK N   1      31.676  16.568   7.908  0.00  0.00     0.050 A 
HETATM    6  N   UNK N   1      32.144  16.179   9.144  0.00  0.00    -0.347 N 
ATOM      7  HN  UNK N   1      31.567  16.103   9.980  1.00  0.00     0.167 HD
HETATM    8  C   UNK N   1      30.353  16.907   7.634  0.00  0.00     0.034 A 
HETATM    9  C   UNK N   1      30.016  17.286   6.320  0.00  0.00     0.039 A 
HETATM   10  C   UNK N   1      30.998  17.319   5.304  0.00  0.00     0.067 A 
ENDROOT
BRANCH   1  11
HETATM   11  C   UNK N   1      34.278  15.480  10.255  0.00  0.00     0.107 A 
HETATM   12  N   UNK N   1      33.981  14.424  10.905  0.00  0.00    -0.319 N 
HETATM   13  C   UNK N   1      34.803  14.154  11.923  0.00  0.00     0.232 A 
ATOM     14  HN  UNK N   1      33.183  13.836  10.668  1.00  0.00     0.169 HD
HETATM   15  O   UNK N   1      34.639  13.173  12.628  0.00  0.00    -0.272 OA
HETATM   16  C   UNK N   1      35.925  15.110  12.138  0.00  0.00     0.184 A 
HETATM   17  S   UNK N   1      35.720  16.381  10.830  0.00  0.00    -0.100 SA
ENDBRANCH   1  11
BRANCH  10  18
HETATM   18  O   UNK N   1      30.658  17.680   4.057  0.00  0.00    -0.361 OA
HETATM   19  H   UNK N   1      30.403  17.029   3.433  0.00  0.00     0.217 HD
ENDBRANCH  10  18
TORSDOF 2
ENDMDL
MODEL 7
REMARK VINA RESULT:      -5.5      9.090     11.021
REMARK  2 active torsions:
REMARK  status: ('A' for Active; 'I' for Inactive)
REMARK    1  A    between atoms: C_5  and  C_8 
REMARK    2  A    between atoms: C_17  and  O_18 
ROOT
HETATM    1  C   UNK N   1      36.210  12.140  14.672  0.00  0.00     0.109 A 
HETATM    2  S   UNK N   1      35.714  13.558  15.388  0.00  0.00    -0.067 SA
HETATM    3  C   UNK N   1      35.546  12.956  16.906  0.00  0.00     0.036 A 
HETATM    4  C   UNK N   1      35.148  13.579  18.080  0.00  0.00     0.057 A 
HETATM    5  C   UNK N   1      35.889  11.605  16.848  0.00  0.00     0.050 A 
HETATM    6  N   UNK N   1      36.261  11.145  15.603  0.00  0.00    -0.347 N 
ATOM      7  HN  UNK N   1      36.538  10.184  15.404  1.00  0.00     0.167 HD
HETATM    8  C   UNK N   1      35.842  10.822  17.999  0.00  0.00     0.034 A 
HETATM    9  C   UNK N   1      35.442  11.429  19.205  0.00  0.00     0.039 A 
HETATM   10  C   UNK N   1      35.095  12.798  19.246  0.00  0.00     0.067 A 
ENDROOT
BRANCH   1  11
HETATM   11  C   UNK N   1      36.551  11.975  13.257  0.00  0.00     0.107 A 
HETATM   12  N   UNK N   1      37.514  12.624  12.731  0.00  0.00    -0.319 N 
HETATM   13  C   UNK N   1      37.712  12.364  11.436  0.00  0.00     0.232 A 
ATOM     14  HN  UNK N   1      38.085  13.286  13.256  1.00  0.00     0.169 HD
HETATM   15  O   UNK N   1      38.602  12.911  10.807  0.00  0.00    -0.272 OA
HETATM   16  C   UNK N   1      36.793  11.370  10.815  0.00  0.00     0.184 A 
HETATM   17  S   UNK N   1      35.663  10.859  12.167  0.00  0.00    -0.100 SA
ENDBRANCH   1  11
BRANCH  10  18
HETATM   18  O   UNK N   1      34.714  13.358  20.404  0.00  0.00    -0.361 OA
HETATM   19  H   UNK N   1      34.071  12.936  20.940  0.00  0.00     0.217 HD
ENDBRANCH  10  18
TORSDOF 2
ENDMDL
MODEL 8
REMARK VINA RESULT:      -5.4     13.964     16.523
REMARK  2 active torsions:
REMARK  status: ('A' for Active; 'I' for Inactive)
REMARK    1  A    between atoms: C_5  and  C_8 
REMARK    2  A    between atoms: C_17  and  O_18 
ROOT
HETATM    1  C   UNK N   1      28.569  22.335  -6.504  0.00  0.00     0.109 A 
HETATM    2  S   UNK N   1      29.712  21.136  -6.350  0.00  0.00    -0.067 SA
HETATM    3  C   UNK N   1      30.303  21.622  -4.896  0.00  0.00     0.036 A 
HETATM    4  C   UNK N   1      31.314  21.085  -4.113  0.00  0.00     0.057 A 
HETATM    5  C   UNK N   1      29.581  22.756  -4.524  0.00  0.00     0.050 A 
HETATM    6  N   UNK N   1      28.612  23.158  -5.418  0.00  0.00    -0.347 N 
ATOM      7  HN  UNK N   1      28.005  23.967  -5.284  1.00  0.00     0.167 HD
HETATM    8  C   UNK N   1      29.862  23.399  -3.321  0.00  0.00     0.034 A 
HETATM    9  C   UNK N   1      30.884  22.875  -2.504  0.00  0.00     0.039 A 
HETATM   10  C   UNK N   1      31.606  21.726  -2.899  0.00  0.00     0.067 A 
ENDROOT
BRANCH   1  11
HETATM   11  C   UNK N   1      27.644  22.488  -7.629  0.00  0.00     0.107 A 
HETATM   12  N   UNK N   1      26.415  22.770  -7.439  0.00  0.00    -0.319 N 
HETATM   13  C   UNK N   1      25.697  22.888  -8.559  0.00  0.00     0.232 A 
ATOM     14  HN  UNK N   1      26.015  22.894  -6.510  1.00  0.00     0.169 HD
HETATM   15  O   UNK N   1      24.508  23.157  -8.525  0.00  0.00    -0.272 OA
HETATM   16  C   UNK N   1      26.430  22.678  -9.839  0.00  0.00     0.184 A 
HETATM   17  S   UNK N   1      28.156  22.307  -9.340  0.00  0.00    -0.100 SA
ENDBRANCH   1  11
BRANCH  10  18
HETATM   18  O   UNK N   1      32.577  21.243  -2.109  0.00  0.00    -0.361 OA
HETATM   19  H   UNK N   1      32.433  21.159  -1.187  0.00  0.00     0.217 HD
ENDBRANCH  10  18
TORSDOF 2
ENDMDL
MODEL 9
REMARK VINA RESULT:      -5.4     13.495     15.891
REMARK  2 active torsions:
REMARK  status: ('A' for Active; 'I' for Inactive)
REMARK    1  A    between atoms: C_5  and  C_8 
REMARK    2  A    between atoms: C_17  and  O_18 
ROOT
HETATM    1  C   UNK N   1      27.899  24.476  -4.557  0.00  0.00     0.109 A 
HETATM    2  S   UNK N   1      28.287  23.406  -5.770  0.00  0.00    -0.067 SA
HETATM    3  C   UNK N   1      29.420  22.567  -4.929  0.00  0.00     0.036 A 
HETATM    4  C   UNK N   1      30.204  21.487  -5.309  0.00  0.00     0.057 A 
HETATM    5  C   UNK N   1      29.495  23.144  -3.661  0.00  0.00     0.050 A 
HETATM    6  N   UNK N   1      28.648  24.210  -3.448  0.00  0.00    -0.347 N 
ATOM      7  HN  UNK N   1      28.588  24.733  -2.575  1.00  0.00     0.167 HD
HETATM    8  C   UNK N   1      30.382  22.638  -2.714  0.00  0.00     0.034 A 
HETATM    9  C   UNK N   1      31.191  21.542  -3.073  0.00  0.00     0.039 A 
HETATM   10  C   UNK N   1      31.103  20.971  -4.363  0.00  0.00     0.067 A 
ENDROOT
BRANCH   1  11
HETATM   11  C   UNK N   1      26.900  25.543  -4.650  0.00  0.00     0.107 A 
HETATM   12  N   UNK N   1      26.691  26.338  -3.676  0.00  0.00    -0.319 N 
HETATM   13  C   UNK N   1      25.758  27.265  -3.910  0.00  0.00     0.232 A 
ATOM     14  HN  UNK N   1      27.194  26.272  -2.791  1.00  0.00     0.169 HD
HETATM   15  O   UNK N   1      25.459  28.093  -3.066  0.00  0.00    -0.272 OA
HETATM   16  C   UNK N   1      25.116  27.230  -5.254  0.00  0.00     0.184 A 
HETATM   17  S   UNK N   1      25.911  25.822  -6.122  0.00  0.00    -0.100 SA
ENDBRANCH   1  11
BRANCH  10  18
HETATM   18  O   UNK N   1      31.883  19.928  -4.687  0.00  0.00    -0.361 OA
HETATM   19  H   UNK N   1      32.569  19.657  -4.108  0.00  0.00     0.217 HD
ENDBRANCH  10  18
TORSDOF 2
ENDMDL
