MODEL 1
REMARK VINA RESULT:      -5.9      0.000      0.000
REMARK  13 active torsions:
REMARK  status: ('A' for Active; 'I' for Inactive)
REMARK    1  A    between atoms: O_1  and  C_2 
REMARK    2  A    between atoms: C_2  and  C_3 
REMARK    3  A    between atoms: C_3  and  N_4 
REMARK       I    between atoms: N_4  and  C_5 
REMARK    4  A    between atoms: C_5  and  C_7 
REMARK    5  A    between atoms: C_7  and  C_8 
REMARK    6  A    between atoms: C_8  and  N_9 
REMARK       I    between atoms: N_9  and  C_10 
REMARK    7  A    between atoms: C_10  and  C_12 
REMARK    8  A    between atoms: C_12  and  O_13 
REMARK    9  A    between atoms: C_12  and  C_14 
REMARK   10  A    between atoms: C_14  and  C_17 
REMARK   11  A    between atoms: C_17  and  O_18 
REMARK   12  A    between atoms: O_18  and  C_19 
REMARK   13  A    between atoms: C_19  and  C_21 
ROOT
HETATM    1  N   UNK N   1      33.919  16.337  10.098  0.00  0.00    -0.358 N 
HETATM    2  C   UNK N   1      35.151  16.220  10.665  0.00  0.00     0.247 C 
HETATM    3  O   UNK N   1      35.469  17.036  11.516  0.00  0.00    -0.271 OA
HETATM    4  H   UNK N   1      33.336  17.057  10.432  0.00  0.00     0.162 HD
ENDROOT
BRANCH   2   5
HETATM    5  C   UNK N   1      36.142  15.099  10.333  0.00  0.00     0.219 C 
BRANCH   5   6
HETATM    6  O   UNK N   1      37.471  15.532  10.395  0.00  0.00    -0.385 OA
HETATM    7  H   UNK N   1      37.845  16.403  10.599  0.00  0.00     0.210 HD
ENDBRANCH   5   6
BRANCH   5   8
HETATM    8  C   UNK N   1      35.981  13.830  11.207  0.00  0.00     0.009 C 
HETATM    9  C   UNK N   1      37.327  13.168  11.464  0.00  0.00     0.020 C 
HETATM   10  C   UNK N   1      35.111  12.835  10.432  0.00  0.00     0.020 C 
BRANCH   8  11
HETATM   11  C   UNK N   1      35.320  14.169  12.560  0.00  0.00     0.190 C 
BRANCH  11  12
HETATM   12  O   UNK N   1      34.566  13.112  13.025  0.00  0.00    -0.320 OA
BRANCH  12  13
HETATM   13  C   UNK N   1      34.847  12.411  14.150  0.00  0.00     0.266 C 
HETATM   14  O   UNK N   1      35.134  12.993  15.188  0.00  0.00    -0.264 OA
BRANCH  13  15
HETATM   15  C   UNK N   1      34.846  10.903  14.101  0.00  0.00     0.037 C 
HETATM   16  C   UNK N   1      36.255  10.407  13.833  0.00  0.00     0.025 C 
HETATM   17  C   UNK N   1      34.357  10.332  15.416  0.00  0.00     0.025 C 
HETATM   18  C   UNK N   1      33.945  10.389  12.988  0.00  0.00     0.025 C 
ENDBRANCH  13  15
ENDBRANCH  12  13
ENDBRANCH  11  12
ENDBRANCH   8  11
ENDBRANCH   5   8
ENDBRANCH   2   5
BRANCH   1  19
HETATM   19  C   UNK N   1      33.394  15.496   9.046  0.00  0.00     0.132 C 
BRANCH  19  20
HETATM   20  C   UNK N   1      32.204  16.132   8.322  0.00  0.00     0.122 C 
BRANCH  20  21
HETATM   21  C   UNK N   1      32.133  17.632   8.438  0.00  0.00     0.219 C 
HETATM   22  N   UNK N   1      30.995  18.248   8.844  0.00  0.00    -0.359 N 
HETATM   23  H   UNK N   1      31.000  19.227   8.944  0.00  0.00     0.162 HD
HETATM   24  O   UNK N   1      33.112  18.305   8.162  0.00  0.00    -0.274 OA
BRANCH  22  25
HETATM   25  C   UNK N   1      29.775  17.531   9.139  0.00  0.00     0.148 C 
BRANCH  25  26
HETATM   26  C   UNK N   1      28.562  18.325   8.671  0.00  0.00     0.183 C 
BRANCH  26  27
HETATM   27  O   UNK N   1      27.455  18.021   9.465  0.00  0.00    -0.399 OA
HETATM   28  H   UNK N   1      26.550  17.853   9.161  0.00  0.00     0.209 HD
ENDBRANCH  26  27
ENDBRANCH  25  26
ENDBRANCH  22  25
ENDBRANCH  20  21
ENDBRANCH  19  20
ENDBRANCH   1  19
TORSDOF 13
ENDMDL
MODEL 2
REMARK VINA RESULT:      -5.8      2.628      7.943
REMARK  13 active torsions:
REMARK  status: ('A' for Active; 'I' for Inactive)
REMARK    1  A    between atoms: O_1  and  C_2 
REMARK    2  A    between atoms: C_2  and  C_3 
REMARK    3  A    between atoms: C_3  and  N_4 
REMARK       I    between atoms: N_4  and  C_5 
REMARK    4  A    between atoms: C_5  and  C_7 
REMARK    5  A    between atoms: C_7  and  C_8 
REMARK    6  A    between atoms: C_8  and  N_9 
REMARK       I    between atoms: N_9  and  C_10 
REMARK    7  A    between atoms: C_10  and  C_12 
REMARK    8  A    between atoms: C_12  and  O_13 
REMARK    9  A    between atoms: C_12  and  C_14 
REMARK   10  A    between atoms: C_14  and  C_17 
REMARK   11  A    between atoms: C_17  and  O_18 
REMARK   12  A    between atoms: O_18  and  C_19 
REMARK   13  A    between atoms: C_19  and  C_21 
ROOT
HETATM    1  N   UNK N   1      34.608  15.115   8.307  0.00  0.00    -0.358 N 
HETATM    2  C   UNK N   1      34.694  15.828   7.150  0.00  0.00     0.247 C 
HETATM    3  O   UNK N   1      35.640  15.608   6.411  0.00  0.00    -0.271 OA
HETATM    4  H   UNK N   1      35.299  14.432   8.466  0.00  0.00     0.162 HD
ENDROOT
BRANCH   2   5
HETATM    5  C   UNK N   1      33.651  16.857   6.701  0.00  0.00     0.219 C 
BRANCH   5   6
HETATM    6  O   UNK N   1      34.237  17.993   6.134  0.00  0.00    -0.385 OA
HETATM    7  H   UNK N   1      35.164  18.191   5.925  0.00  0.00     0.210 HD
ENDBRANCH   5   6
BRANCH   5   8
HETATM    8  C   UNK N   1      32.585  16.296   5.726  0.00  0.00     0.009 C 
HETATM    9  C   UNK N   1      33.161  15.176   4.872  0.00  0.00     0.020 C 
HETATM   10  C   UNK N   1      32.167  17.432   4.787  0.00  0.00     0.020 C 
BRANCH   8  11
HETATM   11  C   UNK N   1      31.356  15.765   6.494  0.00  0.00     0.190 C 
BRANCH  11  12
HETATM   12  O   UNK N   1      30.826  16.737   7.317  0.00  0.00    -0.320 OA
BRANCH  12  13
HETATM   13  C   UNK N   1      29.531  17.134   7.292  0.00  0.00     0.266 C 
HETATM   14  O   UNK N   1      28.783  16.758   6.398  0.00  0.00    -0.264 OA
BRANCH  13  15
HETATM   15  C   UNK N   1      29.028  18.081   8.353  0.00  0.00     0.037 C 
HETATM   16  C   UNK N   1      28.204  19.176   7.700  0.00  0.00     0.025 C 
HETATM   17  C   UNK N   1      28.169  17.342   9.358  0.00  0.00     0.025 C 
HETATM   18  C   UNK N   1      30.181  18.739   9.096  0.00  0.00     0.025 C 
ENDBRANCH  13  15
ENDBRANCH  12  13
ENDBRANCH  11  12
ENDBRANCH   8  11
ENDBRANCH   5   8
ENDBRANCH   2   5
BRANCH   1  19
HETATM   19  C   UNK N   1      33.589  15.275   9.320  0.00  0.00     0.132 C 
BRANCH  19  20
HETATM   20  C   UNK N   1      34.171  15.325  10.736  0.00  0.00     0.122 C 
BRANCH  20  21
HETATM   21  C   UNK N   1      35.517  15.993  10.834  0.00  0.00     0.219 C 
HETATM   22  N   UNK N   1      36.588  15.336  11.345  0.00  0.00    -0.359 N 
HETATM   23  H   UNK N   1      37.459  15.794  11.357  0.00  0.00     0.162 HD
HETATM   24  O   UNK N   1      35.648  17.144  10.452  0.00  0.00    -0.274 OA
BRANCH  22  25
HETATM   25  C   UNK N   1      36.508  13.991  11.870  0.00  0.00     0.148 C 
BRANCH  25  26
HETATM   26  C   UNK N   1      36.259  14.018  13.373  0.00  0.00     0.183 C 
BRANCH  26  27
HETATM   27  O   UNK N   1      36.874  15.136  13.939  0.00  0.00    -0.399 OA
HETATM   28  H   UNK N   1      36.688  16.067  13.739  0.00  0.00     0.209 HD
ENDBRANCH  26  27
ENDBRANCH  25  26
ENDBRANCH  22  25
ENDBRANCH  20  21
ENDBRANCH  19  20
ENDBRANCH   1  19
TORSDOF 13
ENDMDL
MODEL 3
REMARK VINA RESULT:      -5.8      2.575      3.362
REMARK  13 active torsions:
REMARK  status: ('A' for Active; 'I' for Inactive)
REMARK    1  A    between atoms: O_1  and  C_2 
REMARK    2  A    between atoms: C_2  and  C_3 
REMARK    3  A    between atoms: C_3  and  N_4 
REMARK       I    between atoms: N_4  and  C_5 
REMARK    4  A    between atoms: C_5  and  C_7 
REMARK    5  A    between atoms: C_7  and  C_8 
REMARK    6  A    between atoms: C_8  and  N_9 
REMARK       I    between atoms: N_9  and  C_10 
REMARK    7  A    between atoms: C_10  and  C_12 
REMARK    8  A    between atoms: C_12  and  O_13 
REMARK    9  A    between atoms: C_12  and  C_14 
REMARK   10  A    between atoms: C_14  and  C_17 
REMARK   11  A    between atoms: C_17  and  O_18 
REMARK   12  A    between atoms: O_18  and  C_19 
REMARK   13  A    between atoms: C_19  and  C_21 
ROOT
HETATM    1  N   UNK N   1      34.150  16.985   9.165  0.00  0.00    -0.358 N 
HETATM    2  C   UNK N   1      34.964  16.683  10.213  0.00  0.00     0.247 C 
HETATM    3  O   UNK N   1      35.824  17.492  10.522  0.00  0.00    -0.271 OA
HETATM    4  H   UNK N   1      34.277  17.861   8.734  0.00  0.00     0.162 HD
ENDROOT
BRANCH   2   5
HETATM    5  C   UNK N   1      34.836  15.409  11.056  0.00  0.00     0.219 C 
BRANCH   5   6
HETATM    6  O   UNK N   1      33.502  15.026  11.236  0.00  0.00    -0.385 OA
HETATM    7  H   UNK N   1      32.683  15.544  11.198  0.00  0.00     0.210 HD
ENDBRANCH   5   6
BRANCH   5   8
HETATM    8  C   UNK N   1      35.640  14.203  10.510  0.00  0.00     0.009 C 
HETATM    9  C   UNK N   1      36.503  14.612   9.325  0.00  0.00     0.020 C 
HETATM   10  C   UNK N   1      34.637  13.155  10.018  0.00  0.00     0.020 C 
BRANCH   8  11
HETATM   11  C   UNK N   1      36.543  13.598  11.607  0.00  0.00     0.190 C 
BRANCH  11  12
HETATM   12  O   UNK N   1      36.231  14.114  12.848  0.00  0.00    -0.320 OA
BRANCH  12  13
HETATM   13  C   UNK N   1      35.559  13.435  13.808  0.00  0.00     0.266 C 
HETATM   14  O   UNK N   1      34.429  13.013  13.596  0.00  0.00    -0.264 OA
BRANCH  13  15
HETATM   15  C   UNK N   1      36.199  13.242  15.161  0.00  0.00     0.037 C 
HETATM   16  C   UNK N   1      37.071  12.000  15.133  0.00  0.00     0.025 C 
HETATM   17  C   UNK N   1      37.051  14.442  15.519  0.00  0.00     0.025 C 
HETATM   18  C   UNK N   1      35.149  13.056  16.246  0.00  0.00     0.025 C 
ENDBRANCH  13  15
ENDBRANCH  12  13
ENDBRANCH  11  12
ENDBRANCH   8  11
ENDBRANCH   5   8
ENDBRANCH   2   5
BRANCH   1  19
HETATM   19  C   UNK N   1      33.113  16.130   8.631  0.00  0.00     0.132 C 
BRANCH  19  20
HETATM   20  C   UNK N   1      32.526  16.664   7.321  0.00  0.00     0.122 C 
BRANCH  20  21
HETATM   21  C   UNK N   1      33.538  16.876   6.226  0.00  0.00     0.219 C 
HETATM   22  N   UNK N   1      33.158  17.312   4.999  0.00  0.00    -0.359 N 
HETATM   23  H   UNK N   1      33.853  17.474   4.321  0.00  0.00     0.162 HD
HETATM   24  O   UNK N   1      34.717  16.651   6.442  0.00  0.00    -0.274 OA
BRANCH  22  25
HETATM   25  C   UNK N   1      31.777  17.550   4.642  0.00  0.00     0.148 C 
BRANCH  25  26
HETATM   26  C   UNK N   1      31.384  16.706   3.436  0.00  0.00     0.183 C 
BRANCH  26  27
HETATM   27  O   UNK N   1      31.939  17.244   2.274  0.00  0.00    -0.399 OA
HETATM   28  H   UNK N   1      31.611  17.135   1.368  0.00  0.00     0.209 HD
ENDBRANCH  26  27
ENDBRANCH  25  26
ENDBRANCH  22  25
ENDBRANCH  20  21
ENDBRANCH  19  20
ENDBRANCH   1  19
TORSDOF 13
ENDMDL
MODEL 4
REMARK VINA RESULT:      -5.6      5.256      7.927
REMARK  13 active torsions:
REMARK  status: ('A' for Active; 'I' for Inactive)
REMARK    1  A    between atoms: O_1  and  C_2 
REMARK    2  A    between atoms: C_2  and  C_3 
REMARK    3  A    between atoms: C_3  and  N_4 
REMARK       I    between atoms: N_4  and  C_5 
REMARK    4  A    between atoms: C_5  and  C_7 
REMARK    5  A    between atoms: C_7  and  C_8 
REMARK    6  A    between atoms: C_8  and  N_9 
REMARK       I    between atoms: N_9  and  C_10 
REMARK    7  A    between atoms: C_10  and  C_12 
REMARK    8  A    between atoms: C_12  and  O_13 
REMARK    9  A    between atoms: C_12  and  C_14 
REMARK   10  A    between atoms: C_14  and  C_17 
REMARK   11  A    between atoms: C_17  and  O_18 
REMARK   12  A    between atoms: O_18  and  C_19 
REMARK   13  A    between atoms: C_19  and  C_21 
ROOT
HETATM    1  N   UNK N   1      31.800  17.252   9.081  0.00  0.00    -0.358 N 
HETATM    2  C   UNK N   1      32.925  16.984   8.363  0.00  0.00     0.247 C 
HETATM    3  O   UNK N   1      33.692  16.137   8.795  0.00  0.00    -0.271 OA
HETATM    4  H   UNK N   1      31.649  16.720   9.895  0.00  0.00     0.162 HD
ENDROOT
BRANCH   2   5
HETATM    5  C   UNK N   1      33.263  17.648   7.023  0.00  0.00     0.219 C 
BRANCH   5   6
HETATM    6  O   UNK N   1      34.552  18.191   7.012  0.00  0.00    -0.385 OA
HETATM    7  H   UNK N   1      34.863  19.080   6.777  0.00  0.00     0.210 HD
ENDBRANCH   5   6
BRANCH   5   8
HETATM    8  C   UNK N   1      33.093  16.719   5.794  0.00  0.00     0.009 C 
HETATM    9  C   UNK N   1      34.369  15.935   5.521  0.00  0.00     0.020 C 
HETATM   10  C   UNK N   1      32.819  17.604   4.574  0.00  0.00     0.020 C 
BRANCH   8  11
HETATM   11  C   UNK N   1      31.927  15.730   6.004  0.00  0.00     0.190 C 
BRANCH  11  12
HETATM   12  O   UNK N   1      31.144  15.636   4.872  0.00  0.00    -0.320 OA
BRANCH  12  13
HETATM   13  C   UNK N   1      29.794  15.531   4.886  0.00  0.00     0.266 C 
HETATM   14  O   UNK N   1      29.231  14.865   5.746  0.00  0.00    -0.264 OA
BRANCH  13  15
HETATM   15  C   UNK N   1      28.989  16.207   3.803  0.00  0.00     0.037 C 
HETATM   16  C   UNK N   1      29.850  16.368   2.563  0.00  0.00     0.025 C 
HETATM   17  C   UNK N   1      27.768  15.380   3.458  0.00  0.00     0.025 C 
HETATM   18  C   UNK N   1      28.528  17.589   4.239  0.00  0.00     0.025 C 
ENDBRANCH  13  15
ENDBRANCH  12  13
ENDBRANCH  11  12
ENDBRANCH   8  11
ENDBRANCH   5   8
ENDBRANCH   2   5
BRANCH   1  19
HETATM   19  C   UNK N   1      30.809  18.251   8.749  0.00  0.00     0.132 C 
BRANCH  19  20
HETATM   20  C   UNK N   1      29.558  17.648   8.105  0.00  0.00     0.122 C 
BRANCH  20  21
HETATM   21  C   UNK N   1      28.267  18.010   8.790  0.00  0.00     0.219 C 
HETATM   22  N   UNK N   1      27.480  19.007   8.316  0.00  0.00    -0.359 N 
HETATM   23  H   UNK N   1      26.625  19.188   8.771  0.00  0.00     0.162 HD
HETATM   24  O   UNK N   1      27.924  17.400   9.789  0.00  0.00    -0.274 OA
BRANCH  22  25
HETATM   25  C   UNK N   1      27.838  19.815   7.172  0.00  0.00     0.148 C 
BRANCH  25  26
HETATM   26  C   UNK N   1      26.736  20.821   6.863  0.00  0.00     0.183 C 
BRANCH  26  27
HETATM   27  O   UNK N   1      27.099  21.607   5.768  0.00  0.00    -0.399 OA
HETATM   28  H   UNK N   1      26.985  22.566   5.676  0.00  0.00     0.209 HD
ENDBRANCH  26  27
ENDBRANCH  25  26
ENDBRANCH  22  25
ENDBRANCH  20  21
ENDBRANCH  19  20
ENDBRANCH   1  19
TORSDOF 13
ENDMDL
MODEL 5
REMARK VINA RESULT:      -5.5      1.956      2.682
REMARK  13 active torsions:
REMARK  status: ('A' for Active; 'I' for Inactive)
REMARK    1  A    between atoms: O_1  and  C_2 
REMARK    2  A    between atoms: C_2  and  C_3 
REMARK    3  A    between atoms: C_3  and  N_4 
REMARK       I    between atoms: N_4  and  C_5 
REMARK    4  A    between atoms: C_5  and  C_7 
REMARK    5  A    between atoms: C_7  and  C_8 
REMARK    6  A    between atoms: C_8  and  N_9 
REMARK       I    between atoms: N_9  and  C_10 
REMARK    7  A    between atoms: C_10  and  C_12 
REMARK    8  A    between atoms: C_12  and  O_13 
REMARK    9  A    between atoms: C_12  and  C_14 
REMARK   10  A    between atoms: C_14  and  C_17 
REMARK   11  A    between atoms: C_17  and  O_18 
REMARK   12  A    between atoms: O_18  and  C_19 
REMARK   13  A    between atoms: C_19  and  C_21 
ROOT
HETATM    1  N   UNK N   1      34.510  15.635   9.129  0.00  0.00    -0.358 N 
HETATM    2  C   UNK N   1      35.585  15.725   9.959  0.00  0.00     0.247 C 
HETATM    3  O   UNK N   1      35.742  16.764  10.581  0.00  0.00    -0.271 OA
HETATM    4  H   UNK N   1      33.896  16.403   9.103  0.00  0.00     0.162 HD
ENDROOT
BRANCH   2   5
HETATM    5  C   UNK N   1      36.582  14.585  10.194  0.00  0.00     0.219 C 
BRANCH   5   6
HETATM    6  O   UNK N   1      37.903  15.042  10.260  0.00  0.00    -0.385 OA
HETATM    7  H   UNK N   1      38.416  15.590   9.645  0.00  0.00     0.210 HD
ENDBRANCH   5   6
BRANCH   5   8
HETATM    8  C   UNK N   1      36.280  13.725  11.447  0.00  0.00     0.009 C 
HETATM    9  C   UNK N   1      37.431  12.776  11.749  0.00  0.00     0.020 C 
HETATM   10  C   UNK N   1      35.042  12.877  11.145  0.00  0.00     0.020 C 
BRANCH   8  11
HETATM   11  C   UNK N   1      36.024  14.616  12.681  0.00  0.00     0.190 C 
BRANCH  11  12
HETATM   12  O   UNK N   1      35.348  13.923  13.663  0.00  0.00    -0.320 OA
BRANCH  12  13
HETATM   13  C   UNK N   1      35.884  13.574  14.857  0.00  0.00     0.266 C 
HETATM   14  O   UNK N   1      36.752  14.266  15.374  0.00  0.00    -0.264 OA
BRANCH  13  15
HETATM   15  C   UNK N   1      35.433  12.299  15.526  0.00  0.00     0.037 C 
HETATM   16  C   UNK N   1      36.531  11.257  15.416  0.00  0.00     0.025 C 
HETATM   17  C   UNK N   1      35.127  12.549  16.989  0.00  0.00     0.025 C 
HETATM   18  C   UNK N   1      34.184  11.740  14.861  0.00  0.00     0.025 C 
ENDBRANCH  13  15
ENDBRANCH  12  13
ENDBRANCH  11  12
ENDBRANCH   8  11
ENDBRANCH   5   8
ENDBRANCH   2   5
BRANCH   1  19
HETATM   19  C   UNK N   1      34.194  14.506   8.282  0.00  0.00     0.132 C 
BRANCH  19  20
HETATM   20  C   UNK N   1      32.733  14.506   7.824  0.00  0.00     0.122 C 
BRANCH  20  21
HETATM   21  C   UNK N   1      32.031  15.829   7.977  0.00  0.00     0.219 C 
HETATM   22  N   UNK N   1      31.885  16.668   6.921  0.00  0.00    -0.359 N 
HETATM   23  H   UNK N   1      31.387  17.507   7.053  0.00  0.00     0.162 HD
HETATM   24  O   UNK N   1      31.589  16.155   9.066  0.00  0.00    -0.274 OA
BRANCH  22  25
HETATM   25  C   UNK N   1      32.425  16.385   5.610  0.00  0.00     0.148 C 
BRANCH  25  26
HETATM   26  C   UNK N   1      33.451  17.440   5.216  0.00  0.00     0.183 C 
BRANCH  26  27
HETATM   27  O   UNK N   1      34.204  17.815   6.330  0.00  0.00    -0.399 OA
HETATM   28  H   UNK N   1      33.870  18.018   7.217  0.00  0.00     0.209 HD
ENDBRANCH  26  27
ENDBRANCH  25  26
ENDBRANCH  22  25
ENDBRANCH  20  21
ENDBRANCH  19  20
ENDBRANCH   1  19
TORSDOF 13
ENDMDL
MODEL 6
REMARK VINA RESULT:      -5.4      1.994      2.634
REMARK  13 active torsions:
REMARK  status: ('A' for Active; 'I' for Inactive)
REMARK    1  A    between atoms: O_1  and  C_2 
REMARK    2  A    between atoms: C_2  and  C_3 
REMARK    3  A    between atoms: C_3  and  N_4 
REMARK       I    between atoms: N_4  and  C_5 
REMARK    4  A    between atoms: C_5  and  C_7 
REMARK    5  A    between atoms: C_7  and  C_8 
REMARK    6  A    between atoms: C_8  and  N_9 
REMARK       I    between atoms: N_9  and  C_10 
REMARK    7  A    between atoms: C_10  and  C_12 
REMARK    8  A    between atoms: C_12  and  O_13 
REMARK    9  A    between atoms: C_12  and  C_14 
REMARK   10  A    between atoms: C_14  and  C_17 
REMARK   11  A    between atoms: C_17  and  O_18 
REMARK   12  A    between atoms: O_18  and  C_19 
REMARK   13  A    between atoms: C_19  and  C_21 
ROOT
HETATM    1  N   UNK N   1      34.815  16.062   8.837  0.00  0.00    -0.358 N 
HETATM    2  C   UNK N   1      35.067  16.406  10.129  0.00  0.00     0.247 C 
HETATM    3  O   UNK N   1      35.642  17.463  10.338  0.00  0.00    -0.271 OA
HETATM    4  H   UNK N   1      35.080  16.705   8.140  0.00  0.00     0.162 HD
ENDROOT
BRANCH   2   5
HETATM    5  C   UNK N   1      34.633  15.569  11.337  0.00  0.00     0.219 C 
BRANCH   5   6
HETATM    6  O   UNK N   1      33.395  14.949  11.134  0.00  0.00    -0.385 OA
HETATM    7  H   UNK N   1      32.921  14.291  11.667  0.00  0.00     0.210 HD
ENDBRANCH   5   6
BRANCH   5   8
HETATM    8  C   UNK N   1      35.668  14.501  11.774  0.00  0.00     0.009 C 
HETATM    9  C   UNK N   1      36.308  14.873  13.104  0.00  0.00     0.020 C 
HETATM   10  C   UNK N   1      36.775  14.462  10.717  0.00  0.00     0.020 C 
BRANCH   8  11
HETATM   11  C   UNK N   1      35.008  13.111  11.902  0.00  0.00     0.190 C 
BRANCH  11  12
HETATM   12  O   UNK N   1      34.526  12.905  13.178  0.00  0.00    -0.320 OA
BRANCH  12  13
HETATM   13  C   UNK N   1      34.506  11.703  13.801  0.00  0.00     0.266 C 
HETATM   14  O   UNK N   1      34.032  10.721  13.243  0.00  0.00    -0.264 OA
BRANCH  13  15
HETATM   15  C   UNK N   1      35.034  11.592  15.210  0.00  0.00     0.037 C 
HETATM   16  C   UNK N   1      36.548  11.483  15.173  0.00  0.00     0.025 C 
HETATM   17  C   UNK N   1      34.642  12.811  16.019  0.00  0.00     0.025 C 
HETATM   18  C   UNK N   1      34.490  10.355  15.908  0.00  0.00     0.025 C 
ENDBRANCH  13  15
ENDBRANCH  12  13
ENDBRANCH  11  12
ENDBRANCH   8  11
ENDBRANCH   5   8
ENDBRANCH   2   5
BRANCH   1  19
HETATM   19  C   UNK N   1      34.191  14.833   8.400  0.00  0.00     0.132 C 
BRANCH  19  20
HETATM   20  C   UNK N   1      33.689  14.909   6.955  0.00  0.00     0.122 C 
BRANCH  20  21
HETATM   21  C   UNK N   1      32.244  14.524   6.776  0.00  0.00     0.219 C 
HETATM   22  N   UNK N   1      31.269  15.466   6.746  0.00  0.00    -0.359 N 
HETATM   23  H   UNK N   1      30.341  15.177   6.589  0.00  0.00     0.162 HD
HETATM   24  O   UNK N   1      31.944  13.348   6.658  0.00  0.00    -0.274 OA
BRANCH  22  25
HETATM   25  C   UNK N   1      31.531  16.876   6.932  0.00  0.00     0.148 C 
BRANCH  25  26
HETATM   26  C   UNK N   1      30.963  17.353   8.262  0.00  0.00     0.183 C 
BRANCH  26  27
HETATM   27  O   UNK N   1      31.826  17.005   9.303  0.00  0.00    -0.399 OA
HETATM   28  H   UNK N   1      32.596  16.418   9.249  0.00  0.00     0.209 HD
ENDBRANCH  26  27
ENDBRANCH  25  26
ENDBRANCH  22  25
ENDBRANCH  20  21
ENDBRANCH  19  20
ENDBRANCH   1  19
TORSDOF 13
ENDMDL
MODEL 7
REMARK VINA RESULT:      -5.4      2.542      8.002
REMARK  13 active torsions:
REMARK  status: ('A' for Active; 'I' for Inactive)
REMARK    1  A    between atoms: O_1  and  C_2 
REMARK    2  A    between atoms: C_2  and  C_3 
REMARK    3  A    between atoms: C_3  and  N_4 
REMARK       I    between atoms: N_4  and  C_5 
REMARK    4  A    between atoms: C_5  and  C_7 
REMARK    5  A    between atoms: C_7  and  C_8 
REMARK    6  A    between atoms: C_8  and  N_9 
REMARK       I    between atoms: N_9  and  C_10 
REMARK    7  A    between atoms: C_10  and  C_12 
REMARK    8  A    between atoms: C_12  and  O_13 
REMARK    9  A    between atoms: C_12  and  C_14 
REMARK   10  A    between atoms: C_14  and  C_17 
REMARK   11  A    between atoms: C_17  and  O_18 
REMARK   12  A    between atoms: O_18  and  C_19 
REMARK   13  A    between atoms: C_19  and  C_21 
ROOT
HETATM    1  N   UNK N   1      35.046  14.343   9.111  0.00  0.00    -0.358 N 
HETATM    2  C   UNK N   1      34.495  14.713   7.922  0.00  0.00     0.247 C 
HETATM    3  O   UNK N   1      33.663  13.973   7.422  0.00  0.00    -0.271 OA
HETATM    4  H   UNK N   1      34.716  13.512   9.521  0.00  0.00     0.162 HD
ENDROOT
BRANCH   2   5
HETATM    5  C   UNK N   1      34.823  16.023   7.199  0.00  0.00     0.219 C 
BRANCH   5   6
HETATM    6  O   UNK N   1      35.127  15.821   5.848  0.00  0.00    -0.385 OA
HETATM    7  H   UNK N   1      34.640  16.065   5.046  0.00  0.00     0.210 HD
ENDBRANCH   5   6
BRANCH   5   8
HETATM    8  C   UNK N   1      33.720  17.106   7.313  0.00  0.00     0.009 C 
HETATM    9  C   UNK N   1      33.278  17.583   5.937  0.00  0.00     0.020 C 
HETATM   10  C   UNK N   1      34.316  18.305   8.055  0.00  0.00     0.020 C 
BRANCH   8  11
HETATM   11  C   UNK N   1      32.493  16.566   8.078  0.00  0.00     0.190 C 
BRANCH  11  12
HETATM   12  O   UNK N   1      31.503  17.522   8.169  0.00  0.00    -0.320 OA
BRANCH  12  13
HETATM   13  C   UNK N   1      30.198  17.299   7.884  0.00  0.00     0.266 C 
HETATM   14  O   UNK N   1      29.880  16.506   7.006  0.00  0.00    -0.264 OA
BRANCH  13  15
HETATM   15  C   UNK N   1      29.136  18.072   8.627  0.00  0.00     0.037 C 
HETATM   16  C   UNK N   1      29.779  18.838   9.769  0.00  0.00     0.025 C 
HETATM   17  C   UNK N   1      28.444  19.048   7.698  0.00  0.00     0.025 C 
HETATM   18  C   UNK N   1      28.087  17.141   9.216  0.00  0.00     0.025 C 
ENDBRANCH  13  15
ENDBRANCH  12  13
ENDBRANCH  11  12
ENDBRANCH   8  11
ENDBRANCH   5   8
ENDBRANCH   2   5
BRANCH   1  19
HETATM   19  C   UNK N   1      36.077  15.067   9.822  0.00  0.00     0.132 C 
BRANCH  19  20
HETATM   20  C   UNK N   1      36.419  14.430  11.172  0.00  0.00     0.122 C 
BRANCH  20  21
HETATM   21  C   UNK N   1      35.241  14.252  12.093  0.00  0.00     0.219 C 
HETATM   22  N   UNK N   1      35.379  13.633  13.292  0.00  0.00    -0.359 N 
HETATM   23  H   UNK N   1      34.594  13.570  13.882  0.00  0.00     0.162 HD
HETATM   24  O   UNK N   1      34.145  14.668  11.757  0.00  0.00    -0.274 OA
BRANCH  22  25
HETATM   25  C   UNK N   1      36.630  13.064  13.744  0.00  0.00     0.148 C 
BRANCH  25  26
HETATM   26  C   UNK N   1      36.831  13.330  15.230  0.00  0.00     0.183 C 
BRANCH  26  27
HETATM   27  O   UNK N   1      37.545  14.515  15.412  0.00  0.00    -0.399 OA
HETATM   28  H   UNK N   1      38.118  14.955  14.765  0.00  0.00     0.209 HD
ENDBRANCH  26  27
ENDBRANCH  25  26
ENDBRANCH  22  25
ENDBRANCH  20  21
ENDBRANCH  19  20
ENDBRANCH   1  19
TORSDOF 13
ENDMDL
MODEL 8
REMARK VINA RESULT:      -5.3      3.380      5.435
REMARK  13 active torsions:
REMARK  status: ('A' for Active; 'I' for Inactive)
REMARK    1  A    between atoms: O_1  and  C_2 
REMARK    2  A    between atoms: C_2  and  C_3 
REMARK    3  A    between atoms: C_3  and  N_4 
REMARK       I    between atoms: N_4  and  C_5 
REMARK    4  A    between atoms: C_5  and  C_7 
REMARK    5  A    between atoms: C_7  and  C_8 
REMARK    6  A    between atoms: C_8  and  N_9 
REMARK       I    between atoms: N_9  and  C_10 
REMARK    7  A    between atoms: C_10  and  C_12 
REMARK    8  A    between atoms: C_12  and  O_13 
REMARK    9  A    between atoms: C_12  and  C_14 
REMARK   10  A    between atoms: C_14  and  C_17 
REMARK   11  A    between atoms: C_17  and  O_18 
REMARK   12  A    between atoms: O_18  and  C_19 
REMARK   13  A    between atoms: C_19  and  C_21 
ROOT
HETATM    1  N   UNK N   1      37.160  13.434  12.723  0.00  0.00    -0.358 N 
HETATM    2  C   UNK N   1      36.335  13.840  13.727  0.00  0.00     0.247 C 
HETATM    3  O   UNK N   1      36.662  14.820  14.376  0.00  0.00    -0.271 OA
HETATM    4  H   UNK N   1      37.963  13.978  12.553  0.00  0.00     0.162 HD
ENDROOT
BRANCH   2   5
HETATM    5  C   UNK N   1      34.999  13.167  14.059  0.00  0.00     0.219 C 
BRANCH   5   6
HETATM    6  O   UNK N   1      34.391  12.610  12.929  0.00  0.00    -0.385 OA
HETATM    7  H   UNK N   1      33.846  11.813  12.830  0.00  0.00     0.210 HD
ENDBRANCH   5   6
BRANCH   5   8
HETATM    8  C   UNK N   1      35.089  12.089  15.169  0.00  0.00     0.009 C 
HETATM    9  C   UNK N   1      36.438  11.386  15.140  0.00  0.00     0.020 C 
HETATM   10  C   UNK N   1      34.009  11.040  14.890  0.00  0.00     0.020 C 
BRANCH   8  11
HETATM   11  C   UNK N   1      34.875  12.713  16.564  0.00  0.00     0.190 C 
BRANCH  11  12
HETATM   12  O   UNK N   1      35.760  12.190  17.484  0.00  0.00    -0.320 OA
BRANCH  12  13
HETATM   13  C   UNK N   1      35.436  11.875  18.761  0.00  0.00     0.266 C 
HETATM   14  O   UNK N   1      35.009  12.733  19.523  0.00  0.00    -0.264 OA
BRANCH  13  15
HETATM   15  C   UNK N   1      35.648  10.464  19.251  0.00  0.00     0.037 C 
HETATM   16  C   UNK N   1      36.272  10.499  20.634  0.00  0.00     0.025 C 
HETATM   17  C   UNK N   1      34.328   9.724  19.319  0.00  0.00     0.025 C 
HETATM   18  C   UNK N   1      36.584   9.696  18.331  0.00  0.00     0.025 C 
ENDBRANCH  13  15
ENDBRANCH  12  13
ENDBRANCH  11  12
ENDBRANCH   8  11
ENDBRANCH   5   8
ENDBRANCH   2   5
BRANCH   1  19
HETATM   19  C   UNK N   1      36.959  12.272  11.886  0.00  0.00     0.132 C 
BRANCH  19  20
HETATM   20  C   UNK N   1      36.741  12.637  10.415  0.00  0.00     0.122 C 
BRANCH  20  21
HETATM   21  C   UNK N   1      37.378  13.935   9.994  0.00  0.00     0.219 C 
HETATM   22  N   UNK N   1      36.621  15.007   9.651  0.00  0.00    -0.359 N 
HETATM   23  H   UNK N   1      37.075  15.848   9.418  0.00  0.00     0.162 HD
HETATM   24  O   UNK N   1      38.594  14.025   9.956  0.00  0.00    -0.274 OA
BRANCH  22  25
HETATM   25  C   UNK N   1      35.176  14.969   9.616  0.00  0.00     0.148 C 
BRANCH  25  26
HETATM   26  C   UNK N   1      34.595  15.567  10.891  0.00  0.00     0.183 C 
BRANCH  26  27
HETATM   27  O   UNK N   1      33.471  14.843  11.291  0.00  0.00    -0.399 OA
HETATM   28  H   UNK N   1      32.810  14.429  10.716  0.00  0.00     0.209 HD
ENDBRANCH  26  27
ENDBRANCH  25  26
ENDBRANCH  22  25
ENDBRANCH  20  21
ENDBRANCH  19  20
ENDBRANCH   1  19
TORSDOF 13
ENDMDL
MODEL 9
REMARK VINA RESULT:      -5.3     16.696     20.797
REMARK  13 active torsions:
REMARK  status: ('A' for Active; 'I' for Inactive)
REMARK    1  A    between atoms: O_1  and  C_2 
REMARK    2  A    between atoms: C_2  and  C_3 
REMARK    3  A    between atoms: C_3  and  N_4 
REMARK       I    between atoms: N_4  and  C_5 
REMARK    4  A    between atoms: C_5  and  C_7 
REMARK    5  A    between atoms: C_7  and  C_8 
REMARK    6  A    between atoms: C_8  and  N_9 
REMARK       I    between atoms: N_9  and  C_10 
REMARK    7  A    between atoms: C_10  and  C_12 
REMARK    8  A    between atoms: C_12  and  O_13 
REMARK    9  A    between atoms: C_12  and  C_14 
REMARK   10  A    between atoms: C_14  and  C_17 
REMARK   11  A    between atoms: C_17  and  O_18 
REMARK   12  A    between atoms: O_18  and  C_19 
REMARK   13  A    between atoms: C_19  and  C_21 
ROOT
HETATM    1  N   UNK N   1      28.389  24.205  -3.405  0.00  0.00    -0.358 N 
HETATM    2  C   UNK N   1      27.090  24.256  -3.810  0.00  0.00     0.247 C 
HETATM    3  O   UNK N   1      26.236  23.836  -3.045  0.00  0.00    -0.271 OA
HETATM    4  H   UNK N   1      28.565  23.862  -2.499  0.00  0.00     0.162 HD
ENDROOT
BRANCH   2   5
HETATM    5  C   UNK N   1      26.634  24.850  -5.146  0.00  0.00     0.219 C 
BRANCH   5   6
HETATM    6  O   UNK N   1      25.512  24.193  -5.663  0.00  0.00    -0.385 OA
HETATM    7  H   UNK N   1      25.098  23.353  -5.411  0.00  0.00     0.210 HD
ENDBRANCH   5   6
BRANCH   5   8
HETATM    8  C   UNK N   1      26.352  26.374  -5.101  0.00  0.00     0.009 C 
HETATM    9  C   UNK N   1      24.982  26.693  -5.681  0.00  0.00     0.020 C 
HETATM   10  C   UNK N   1      27.402  27.070  -5.970  0.00  0.00     0.020 C 
BRANCH   8  11
HETATM   11  C   UNK N   1      26.423  26.906  -3.654  0.00  0.00     0.190 C 
BRANCH  11  12
HETATM   12  O   UNK N   1      27.478  27.782  -3.498  0.00  0.00    -0.320 OA
BRANCH  12  13
HETATM   13  C   UNK N   1      27.339  29.116  -3.305  0.00  0.00     0.266 C 
HETATM   14  O   UNK N   1      26.262  29.585  -2.962  0.00  0.00    -0.264 OA
BRANCH  13  15
HETATM   15  C   UNK N   1      28.516  30.025  -3.561  0.00  0.00     0.037 C 
HETATM   16  C   UNK N   1      28.803  30.840  -2.313  0.00  0.00     0.025 C 
HETATM   17  C   UNK N   1      29.743  29.213  -3.920  0.00  0.00     0.025 C 
HETATM   18  C   UNK N   1      28.228  30.992  -4.699  0.00  0.00     0.025 C 
ENDBRANCH  13  15
ENDBRANCH  12  13
ENDBRANCH  11  12
ENDBRANCH   8  11
ENDBRANCH   5   8
ENDBRANCH   2   5
BRANCH   1  19
HETATM   19  C   UNK N   1      29.532  24.610  -4.193  0.00  0.00     0.132 C 
BRANCH  19  20
HETATM   20  C   UNK N   1      30.816  23.882  -3.785  0.00  0.00     0.122 C 
BRANCH  20  21
HETATM   21  C   UNK N   1      30.631  22.851  -2.703  0.00  0.00     0.219 C 
HETATM   22  N   UNK N   1      30.652  21.525  -2.990  0.00  0.00    -0.359 N 
HETATM   23  H   UNK N   1      30.566  20.882  -2.250  0.00  0.00     0.162 HD
HETATM   24  O   UNK N   1      30.456  23.211  -1.551  0.00  0.00    -0.274 OA
BRANCH  22  25
HETATM   25  C   UNK N   1      30.800  21.014  -4.334  0.00  0.00     0.148 C 
BRANCH  25  26
HETATM   26  C   UNK N   1      32.186  20.413  -4.528  0.00  0.00     0.183 C 
BRANCH  26  27
HETATM   27  O   UNK N   1      32.192  19.080  -4.115  0.00  0.00    -0.399 OA
HETATM   28  H   UNK N   1      31.433  18.477  -4.084  0.00  0.00     0.209 HD
ENDBRANCH  26  27
ENDBRANCH  25  26
ENDBRANCH  22  25
ENDBRANCH  20  21
ENDBRANCH  19  20
ENDBRANCH   1  19
TORSDOF 13
ENDMDL
