REMARK  13 active torsions:
REMARK  status: ('A' for Active; 'I' for Inactive)
REMARK    1  A    between atoms: O_1  and  C_2 
REMARK    2  A    between atoms: C_2  and  C_3 
REMARK    3  A    between atoms: C_3  and  N_4 
REMARK       I    between atoms: N_4  and  C_5 
REMARK    4  A    between atoms: C_5  and  C_7 
REMARK    5  A    between atoms: C_7  and  C_8 
REMARK    6  A    between atoms: C_8  and  N_9 
REMARK       I    between atoms: N_9  and  C_10 
REMARK    7  A    between atoms: C_10  and  C_12 
REMARK    8  A    between atoms: C_12  and  O_13 
REMARK    9  A    between atoms: C_12  and  C_14 
REMARK   10  A    between atoms: C_14  and  C_17 
REMARK   11  A    between atoms: C_17  and  O_18 
REMARK   12  A    between atoms: O_18  and  C_19 
REMARK   13  A    between atoms: C_19  and  C_21 
ROOT
HETATM    1  N   UNK N   1      -2.204  -0.066  -0.154  0.00  0.00    -0.358 N 
HETATM    2  C   UNK N   1      -0.990  -0.021  -0.768  0.00  0.00     0.247 C 
HETATM    3  O   UNK N   1      -0.679  -0.955  -1.490  0.00  0.00    -0.271 OA
HETATM    4  H   UNK N   1      -2.782  -0.837  -0.355  0.00  0.00     0.162 HD
ENDROOT
BRANCH   2   5
HETATM    5  C   UNK N   1      -0.012   1.152  -0.643  0.00  0.00     0.219 C 
BRANCH   5   6
HETATM    6  O   UNK N   1      -0.532   2.195   0.131  0.00  0.00    -0.385 OA
HETATM    7  H   UNK N   1      -0.086   2.868   0.669  0.00  0.00     0.210 HD
ENDBRANCH   5   6
BRANCH   5   8
HETATM    8  C   UNK N   1       1.383   0.760  -0.093  0.00  0.00     0.009 C 
HETATM    9  C   UNK N   1       1.272   0.160   1.301  0.00  0.00     0.020 C 
HETATM   10  C   UNK N   1       2.220   2.038   0.013  0.00  0.00     0.020 C 
BRANCH   8  11
HETATM   11  C   UNK N   1       2.080  -0.254  -1.025  0.00  0.00     0.190 C 
BRANCH  11  12
HETATM   12  O   UNK N   1       3.446  -0.062  -1.036  0.00  0.00    -0.320 OA
BRANCH  12  13
HETATM   13  C   UNK N   1       4.308  -0.666  -0.183  0.00  0.00     0.266 C 
HETATM   14  O   UNK N   1       3.965  -1.658   0.448  0.00  0.00    -0.264 OA
BRANCH  13  15
HETATM   15  C   UNK N   1       5.683  -0.078   0.017  0.00  0.00     0.037 C 
HETATM   16  C   UNK N   1       5.858   0.309   1.474  0.00  0.00     0.025 C 
HETATM   17  C   UNK N   1       6.749  -1.085  -0.363  0.00  0.00     0.025 C 
HETATM   18  C   UNK N   1       5.877   1.171  -0.829  0.00  0.00     0.025 C 
ENDBRANCH  13  15
ENDBRANCH  12  13
ENDBRANCH  11  12
ENDBRANCH   8  11
ENDBRANCH   5   8
ENDBRANCH   2   5
BRANCH   1  19
HETATM   19  C   UNK N   1      -2.717   0.922   0.769  0.00  0.00     0.132 C 
BRANCH  19  20
HETATM   20  C   UNK N   1      -4.210   0.739   1.057  0.00  0.00     0.122 C 
BRANCH  20  21
HETATM   21  C   UNK N   1      -4.718  -0.663   0.848  0.00  0.00     0.219 C 
HETATM   22  N   UNK N   1      -5.760  -0.912   0.016  0.00  0.00    -0.359 N 
HETATM   23  H   UNK N   1      -6.038  -1.846  -0.123  0.00  0.00     0.162 HD
HETATM   24  O   UNK N   1      -4.188  -1.590   1.437  0.00  0.00    -0.274 OA
BRANCH  22  25
HETATM   25  C   UNK N   1      -6.479   0.133  -0.678  0.00  0.00     0.148 C 
BRANCH  25  26
HETATM   26  C   UNK N   1      -7.343   0.924   0.296  0.00  0.00     0.183 C 
BRANCH  26  27
HETATM   27  O   UNK N   1      -8.257   0.076   0.923  0.00  0.00    -0.399 OA
HETATM   28  H   UNK N   1      -9.085   0.332   1.358  0.00  0.00     0.209 HD
ENDBRANCH  26  27
ENDBRANCH  25  26
ENDBRANCH  22  25
ENDBRANCH  20  21
ENDBRANCH  19  20
ENDBRANCH   1  19
TORSDOF 13
