MODEL 1
REMARK VINA RESULT:      -6.3      0.000      0.000
REMARK  3 active torsions:
REMARK  status: ('A' for Active; 'I' for Inactive)
REMARK    1  A    between atoms: N_8  and  C_9 
REMARK    2  A    between atoms: C_14  and  S_15 
REMARK    3  A    between atoms: S_15  and  N_18 
ROOT
HETATM    1  C   UNK N   1      33.902  15.727   8.955  0.00  0.00     0.044 A 
HETATM    2  C   UNK N   1      33.944  14.349   9.230  0.00  0.00     0.032 A 
HETATM    3  C   UNK N   1      34.615  13.870  10.359  0.00  0.00     0.027 A 
HETATM    4  C   UNK N   1      34.579  16.609   9.814  0.00  0.00     0.032 A 
HETATM    5  C   UNK N   1      35.250  16.130  10.940  0.00  0.00     0.027 A 
HETATM    6  C   UNK N   1      35.261  14.763  11.219  0.00  0.00     0.079 A 
ENDROOT
BRANCH   1   7
HETATM    7  N   UNK N   1      33.136  16.228   7.856  0.00  0.00    -0.276 N 
HETATM    8  S   UNK N   1      33.922  17.046   6.502  0.00  0.00     0.233 S 
HETATM    9  O   UNK N   1      34.667  18.228   7.142  0.00  0.00    -0.205 OA
HETATM   10  C   UNK N   1      32.753  17.527   5.208  0.00  0.00     0.163 C 
HETATM   11  O   UNK N   1      35.038  16.098   6.038  0.00  0.00    -0.205 OA
HETATM   12  C   UNK N   1      31.443  16.795   5.452  0.00  0.00     0.018 C 
HETATM   13  C   UNK N   1      30.965  17.031   6.879  0.00  0.00     0.022 C 
HETATM   14  C   UNK N   1      31.682  16.123   7.885  0.00  0.00     0.142 C 
ENDBRANCH   1   7
BRANCH   6  15
HETATM   15  S   UNK N   1      35.966  14.186  12.754  0.00  0.00     0.256 S 
HETATM   16  O   UNK N   1      34.981  13.412  13.643  0.00  0.00    -0.201 OA
HETATM   17  O   UNK N   1      36.448  15.313  13.679  0.00  0.00    -0.201 OA
BRANCH  15  18
HETATM   18  N   UNK N   1      37.361  13.120  12.578  0.00  0.00    -0.324 N 
HETATM   19  H   UNK N   1      38.326  12.805  12.669  0.00  0.00     0.169 HD
HETATM   20  H   UNK N   1      36.946  12.337  12.073  0.00  0.00     0.169 HD
ENDBRANCH  15  18
ENDBRANCH   6  15
TORSDOF 3
ENDMDL
MODEL 2
REMARK VINA RESULT:      -6.3      2.357      6.992
REMARK  3 active torsions:
REMARK  status: ('A' for Active; 'I' for Inactive)
REMARK    1  A    between atoms: N_8  and  C_9 
REMARK    2  A    between atoms: C_14  and  S_15 
REMARK    3  A    between atoms: S_15  and  N_18 
ROOT
HETATM    1  C   UNK N   1      35.787  14.418  10.826  0.00  0.00     0.044 A 
HETATM    2  C   UNK N   1      35.179  14.180   9.581  0.00  0.00     0.032 A 
HETATM    3  C   UNK N   1      34.706  15.244   8.807  0.00  0.00     0.027 A 
HETATM    4  C   UNK N   1      35.874  15.740  11.295  0.00  0.00     0.032 A 
HETATM    5  C   UNK N   1      35.399  16.801  10.523  0.00  0.00     0.027 A 
HETATM    6  C   UNK N   1      34.824  16.556   9.276  0.00  0.00     0.079 A 
ENDROOT
BRANCH   1   7
HETATM    7  N   UNK N   1      36.359  13.343  11.576  0.00  0.00    -0.276 N 
HETATM    8  S   UNK N   1      36.071  13.195  13.312  0.00  0.00     0.233 S 
HETATM    9  O   UNK N   1      36.587  14.515  13.905  0.00  0.00    -0.205 OA
HETATM   10  C   UNK N   1      36.842  11.720  14.020  0.00  0.00     0.163 C 
HETATM   11  O   UNK N   1      34.546  13.268  13.487  0.00  0.00    -0.205 OA
HETATM   12  C   UNK N   1      37.246  10.798  12.882  0.00  0.00     0.018 C 
HETATM   13  C   UNK N   1      38.098  11.553  11.869  0.00  0.00     0.022 C 
HETATM   14  C   UNK N   1      37.246  12.395  10.912  0.00  0.00     0.142 C 
ENDBRANCH   1   7
BRANCH   6  15
HETATM   15  S   UNK N   1      34.389  17.931   8.224  0.00  0.00     0.256 S 
HETATM   16  O   UNK N   1      34.630  17.676   6.728  0.00  0.00    -0.201 OA
HETATM   17  O   UNK N   1      35.209  19.201   8.490  0.00  0.00    -0.201 OA
BRANCH  15  18
HETATM   18  N   UNK N   1      32.706  18.449   8.335  0.00  0.00    -0.324 N 
HETATM   19  H   UNK N   1      31.907  19.002   8.644  0.00  0.00     0.169 HD
HETATM   20  H   UNK N   1      32.255  17.789   7.701  0.00  0.00     0.169 HD
ENDBRANCH  15  18
ENDBRANCH   6  15
TORSDOF 3
ENDMDL
MODEL 3
REMARK VINA RESULT:      -6.1      2.690      6.791
REMARK  3 active torsions:
REMARK  status: ('A' for Active; 'I' for Inactive)
REMARK    1  A    between atoms: N_8  and  C_9 
REMARK    2  A    between atoms: C_14  and  S_15 
REMARK    3  A    between atoms: S_15  and  N_18 
ROOT
HETATM    1  C   UNK N   1      35.436  14.553  11.195  0.00  0.00     0.044 A 
HETATM    2  C   UNK N   1      34.579  14.274  10.116  0.00  0.00     0.032 A 
HETATM    3  C   UNK N   1      34.188  15.290   9.240  0.00  0.00     0.027 A 
HETATM    4  C   UNK N   1      35.859  15.877  11.399  0.00  0.00     0.032 A 
HETATM    5  C   UNK N   1      35.465  16.891  10.525  0.00  0.00     0.027 A 
HETATM    6  C   UNK N   1      34.639  16.598   9.440  0.00  0.00     0.079 A 
ENDROOT
BRANCH   1   7
HETATM    7  N   UNK N   1      35.916  13.500  12.036  0.00  0.00    -0.276 N 
HETATM    8  S   UNK N   1      37.117  12.346  11.446  0.00  0.00     0.233 S 
HETATM    9  O   UNK N   1      36.467  11.708  10.208  0.00  0.00    -0.205 OA
HETATM   10  C   UNK N   1      37.613  11.153  12.713  0.00  0.00     0.163 C 
HETATM   11  O   UNK N   1      38.264  13.195  10.880  0.00  0.00    -0.205 OA
HETATM   12  C   UNK N   1      37.135  11.662  14.062  0.00  0.00     0.018 C 
HETATM   13  C   UNK N   1      35.644  11.971  14.011  0.00  0.00     0.022 C 
HETATM   14  C   UNK N   1      35.359  13.336  13.373  0.00  0.00     0.142 C 
ENDBRANCH   1   7
BRANCH   6  15
HETATM   15  S   UNK N   1      34.293  17.865   8.231  0.00  0.00     0.256 S 
HETATM   16  O   UNK N   1      34.654  17.472   6.791  0.00  0.00    -0.201 OA
HETATM   17  O   UNK N   1      35.092  19.160   8.442  0.00  0.00    -0.201 OA
BRANCH  15  18
HETATM   18  N   UNK N   1      32.608  18.383   8.157  0.00  0.00    -0.324 N 
HETATM   19  H   UNK N   1      31.593  18.295   8.159  0.00  0.00     0.169 HD
HETATM   20  H   UNK N   1      32.718  19.389   8.036  0.00  0.00     0.169 HD
ENDBRANCH  15  18
ENDBRANCH   6  15
TORSDOF 3
ENDMDL
MODEL 4
REMARK VINA RESULT:      -6.0      4.010      5.952
REMARK  3 active torsions:
REMARK  status: ('A' for Active; 'I' for Inactive)
REMARK    1  A    between atoms: N_8  and  C_9 
REMARK    2  A    between atoms: C_14  and  S_15 
REMARK    3  A    between atoms: S_15  and  N_18 
ROOT
HETATM    1  C   UNK N   1      29.876  17.407   6.565  0.00  0.00     0.044 A 
HETATM    2  C   UNK N   1      30.946  17.202   5.677  0.00  0.00     0.032 A 
HETATM    3  C   UNK N   1      32.267  17.283   6.127  0.00  0.00     0.027 A 
HETATM    4  C   UNK N   1      30.158  17.733   7.902  0.00  0.00     0.032 A 
HETATM    5  C   UNK N   1      31.478  17.816   8.350  0.00  0.00     0.027 A 
HETATM    6  C   UNK N   1      32.532  17.582   7.467  0.00  0.00     0.079 A 
ENDROOT
BRANCH   1   7
HETATM    7  N   UNK N   1      28.524  17.229   6.131  0.00  0.00    -0.276 N 
HETATM    8  S   UNK N   1      27.550  18.609   5.614  0.00  0.00     0.233 S 
HETATM    9  O   UNK N   1      27.540  19.554   6.826  0.00  0.00    -0.205 OA
HETATM   10  C   UNK N   1      25.902  18.122   5.048  0.00  0.00     0.163 C 
HETATM   11  O   UNK N   1      28.397  19.344   4.564  0.00  0.00    -0.205 OA
HETATM   12  C   UNK N   1      25.897  16.618   4.831  0.00  0.00     0.018 C 
HETATM   13  C   UNK N   1      26.391  15.903   6.081  0.00  0.00     0.022 C 
HETATM   14  C   UNK N   1      27.921  15.903   6.180  0.00  0.00     0.142 C 
ENDBRANCH   1   7
BRANCH   6  15
HETATM   15  S   UNK N   1      34.202  17.512   8.093  0.00  0.00     0.256 S 
HETATM   16  O   UNK N   1      34.989  18.820   7.926  0.00  0.00    -0.201 OA
HETATM   17  O   UNK N   1      35.092  16.485   7.376  0.00  0.00    -0.201 OA
BRANCH  15  18
HETATM   18  N   UNK N   1      34.339  17.109   9.805  0.00  0.00    -0.324 N 
HETATM   19  H   UNK N   1      34.729  17.110  10.747  0.00  0.00     0.169 HD
HETATM   20  H   UNK N   1      33.530  16.502   9.928  0.00  0.00     0.169 HD
ENDBRANCH  15  18
ENDBRANCH   6  15
TORSDOF 3
ENDMDL
MODEL 5
REMARK VINA RESULT:      -6.0     14.783     17.243
REMARK  3 active torsions:
REMARK  status: ('A' for Active; 'I' for Inactive)
REMARK    1  A    between atoms: N_8  and  C_9 
REMARK    2  A    between atoms: C_14  and  S_15 
REMARK    3  A    between atoms: S_15  and  N_18 
ROOT
HETATM    1  C   UNK N   1      28.913  24.357  -4.738  0.00  0.00     0.044 A 
HETATM    2  C   UNK N   1      29.769  24.644  -3.661  0.00  0.00     0.032 A 
HETATM    3  C   UNK N   1      30.757  23.733  -3.276  0.00  0.00     0.027 A 
HETATM    4  C   UNK N   1      29.043  23.121  -5.394  0.00  0.00     0.032 A 
HETATM    5  C   UNK N   1      30.027  22.211  -5.007  0.00  0.00     0.027 A 
HETATM    6  C   UNK N   1      30.890  22.518  -3.956  0.00  0.00     0.079 A 
ENDROOT
BRANCH   1   7
HETATM    7  N   UNK N   1      27.968  25.327  -5.197  0.00  0.00    -0.276 N 
HETATM    8  S   UNK N   1      26.294  25.298  -4.631  0.00  0.00     0.233 S 
HETATM    9  O   UNK N   1      25.775  23.906  -5.023  0.00  0.00    -0.205 OA
HETATM   10  C   UNK N   1      25.312  26.663  -5.299  0.00  0.00     0.163 C 
HETATM   11  O   UNK N   1      26.376  25.257  -3.098  0.00  0.00    -0.205 OA
HETATM   12  C   UNK N   1      26.262  27.687  -5.897  0.00  0.00     0.018 C 
HETATM   13  C   UNK N   1      27.202  27.017  -6.891  0.00  0.00     0.022 C 
HETATM   14  C   UNK N   1      28.372  26.311  -6.194  0.00  0.00     0.142 C 
ENDBRANCH   1   7
BRANCH   6  15
HETATM   15  S   UNK N   1      32.256  21.428  -3.593  0.00  0.00     0.256 S 
HETATM   16  O   UNK N   1      32.646  21.385  -2.108  0.00  0.00    -0.201 OA
HETATM   17  O   UNK N   1      33.570  21.828  -4.279  0.00  0.00    -0.201 OA
BRANCH  15  18
HETATM   18  N   UNK N   1      32.004  19.742  -4.050  0.00  0.00    -0.324 N 
HETATM   19  H   UNK N   1      32.244  18.772  -4.248  0.00  0.00     0.169 HD
HETATM   20  H   UNK N   1      30.999  19.734  -4.222  0.00  0.00     0.169 HD
ENDBRANCH  15  18
ENDBRANCH   6  15
TORSDOF 3
ENDMDL
MODEL 6
REMARK VINA RESULT:      -5.9      4.408      6.638
REMARK  3 active torsions:
REMARK  status: ('A' for Active; 'I' for Inactive)
REMARK    1  A    between atoms: N_8  and  C_9 
REMARK    2  A    between atoms: C_14  and  S_15 
REMARK    3  A    between atoms: S_15  and  N_18 
ROOT
HETATM    1  C   UNK N   1      29.808  17.645   5.246  0.00  0.00     0.044 A 
HETATM    2  C   UNK N   1      29.969  17.400   6.621  0.00  0.00     0.032 A 
HETATM    3  C   UNK N   1      31.234  17.133   7.151  0.00  0.00     0.027 A 
HETATM    4  C   UNK N   1      30.936  17.578   4.410  0.00  0.00     0.032 A 
HETATM    5  C   UNK N   1      32.199  17.309   4.940  0.00  0.00     0.027 A 
HETATM    6  C   UNK N   1      32.351  17.096   6.310  0.00  0.00     0.079 A 
ENDROOT
BRANCH   1   7
HETATM    7  N   UNK N   1      28.532  18.014   4.715  0.00  0.00    -0.276 N 
HETATM    8  S   UNK N   1      27.467  16.803   3.993  0.00  0.00     0.233 S 
HETATM    9  O   UNK N   1      28.296  16.186   2.855  0.00  0.00    -0.205 OA
HETATM   10  C   UNK N   1      25.887  17.501   3.457  0.00  0.00     0.163 C 
HETATM   11  O   UNK N   1      27.352  15.680   5.034  0.00  0.00    -0.205 OA
HETATM   12  C   UNK N   1      25.737  18.879   4.081  0.00  0.00     0.018 C 
HETATM   13  C   UNK N   1      26.960  19.733   3.774  0.00  0.00     0.022 C 
HETATM   14  C   UNK N   1      28.134  19.417   4.709  0.00  0.00     0.142 C 
ENDBRANCH   1   7
BRANCH   6  15
HETATM   15  S   UNK N   1      33.991  16.935   6.997  0.00  0.00     0.256 S 
HETATM   16  O   UNK N   1      34.671  18.274   7.315  0.00  0.00    -0.201 OA
HETATM   17  O   UNK N   1      34.996  16.257   6.054  0.00  0.00    -0.201 OA
BRANCH  15  18
HETATM   18  N   UNK N   1      34.082  16.007   8.495  0.00  0.00    -0.324 N 
HETATM   19  H   UNK N   1      34.373  15.770   9.443  0.00  0.00     0.169 HD
HETATM   20  H   UNK N   1      33.463  15.225   8.279  0.00  0.00     0.169 HD
ENDBRANCH  15  18
ENDBRANCH   6  15
TORSDOF 3
ENDMDL
MODEL 7
REMARK VINA RESULT:      -5.9      9.104     12.751
REMARK  3 active torsions:
REMARK  status: ('A' for Active; 'I' for Inactive)
REMARK    1  A    between atoms: N_8  and  C_9 
REMARK    2  A    between atoms: C_14  and  S_15 
REMARK    3  A    between atoms: S_15  and  N_18 
ROOT
HETATM    1  C   UNK N   1      25.353  18.645   3.831  0.00  0.00     0.044 A 
HETATM    2  C   UNK N   1      24.188  18.007   4.289  0.00  0.00     0.032 A 
HETATM    3  C   UNK N   1      22.927  18.534   3.993  0.00  0.00     0.027 A 
HETATM    4  C   UNK N   1      25.229  19.842   3.105  0.00  0.00     0.032 A 
HETATM    5  C   UNK N   1      23.970  20.369   2.813  0.00  0.00     0.027 A 
HETATM    6  C   UNK N   1      22.819  19.712   3.248  0.00  0.00     0.079 A 
ENDROOT
BRANCH   1   7
HETATM    7  N   UNK N   1      26.639  18.058   4.047  0.00  0.00    -0.276 N 
HETATM    8  S   UNK N   1      27.841  18.858   5.065  0.00  0.00     0.233 S 
HETATM    9  O   UNK N   1      28.050  20.233   4.411  0.00  0.00    -0.205 OA
HETATM   10  C   UNK N   1      29.359  17.889   5.239  0.00  0.00     0.163 C 
HETATM   11  O   UNK N   1      27.123  19.170   6.387  0.00  0.00    -0.205 OA
HETATM   12  C   UNK N   1      29.081  16.476   4.755  0.00  0.00     0.018 C 
HETATM   13  C   UNK N   1      28.489  16.506   3.352  0.00  0.00     0.022 C 
HETATM   14  C   UNK N   1      26.987  16.816   3.366  0.00  0.00     0.142 C 
ENDBRANCH   1   7
BRANCH   6  15
HETATM   15  S   UNK N   1      21.219  20.295   2.713  0.00  0.00     0.256 S 
HETATM   16  O   UNK N   1      21.274  21.544   1.820  0.00  0.00    -0.201 OA
HETATM   17  O   UNK N   1      20.302  20.738   3.863  0.00  0.00    -0.201 OA
BRANCH  15  18
HETATM   18  N   UNK N   1      20.266  19.122   1.803  0.00  0.00    -0.324 N 
HETATM   19  H   UNK N   1      19.719  18.279   1.633  0.00  0.00     0.169 HD
HETATM   20  H   UNK N   1      20.257  19.552   0.878  0.00  0.00     0.169 HD
ENDBRANCH  15  18
ENDBRANCH   6  15
TORSDOF 3
ENDMDL
MODEL 8
REMARK VINA RESULT:      -5.8     14.970     18.076
REMARK  3 active torsions:
REMARK  status: ('A' for Active; 'I' for Inactive)
REMARK    1  A    between atoms: N_8  and  C_9 
REMARK    2  A    between atoms: C_14  and  S_15 
REMARK    3  A    between atoms: S_15  and  N_18 
ROOT
HETATM    1  C   UNK N   1      28.797  23.988  -4.570  0.00  0.00     0.044 A 
HETATM    2  C   UNK N   1      28.903  25.019  -5.521  0.00  0.00     0.032 A 
HETATM    3  C   UNK N   1      28.010  26.094  -5.504  0.00  0.00     0.027 A 
HETATM    4  C   UNK N   1      27.755  24.040  -3.629  0.00  0.00     0.032 A 
HETATM    5  C   UNK N   1      26.862  25.113  -3.616  0.00  0.00     0.027 A 
HETATM    6  C   UNK N   1      26.994  26.144  -4.545  0.00  0.00     0.079 A 
ENDROOT
BRANCH   1   7
HETATM    7  N   UNK N   1      29.766  22.938  -4.522  0.00  0.00    -0.276 N 
HETATM    8  S   UNK N   1      31.184  23.060  -3.475  0.00  0.00     0.233 S 
HETATM    9  O   UNK N   1      31.895  24.343  -3.932  0.00  0.00    -0.205 OA
HETATM   10  C   UNK N   1      32.224  21.581  -3.541  0.00  0.00     0.163 C 
HETATM   11  O   UNK N   1      30.640  23.401  -2.080  0.00  0.00    -0.205 OA
HETATM   12  C   UNK N   1      31.432  20.469  -4.209  0.00  0.00     0.018 C 
HETATM   13  C   UNK N   1      30.892  20.942  -5.552  0.00  0.00     0.022 C 
HETATM   14  C   UNK N   1      29.618  21.782  -5.399  0.00  0.00     0.142 C 
ENDBRANCH   1   7
BRANCH   6  15
HETATM   15  S   UNK N   1      25.962  27.594  -4.401  0.00  0.00     0.256 S 
HETATM   16  O   UNK N   1      25.438  27.851  -2.981  0.00  0.00    -0.201 OA
HETATM   17  O   UNK N   1      24.673  27.525  -5.233  0.00  0.00    -0.201 OA
BRANCH  15  18
HETATM   18  N   UNK N   1      26.732  29.106  -4.887  0.00  0.00    -0.324 N 
HETATM   19  H   UNK N   1      26.978  29.888  -5.493  0.00  0.00     0.169 HD
HETATM   20  H   UNK N   1      27.250  29.342  -4.041  0.00  0.00     0.169 HD
ENDBRANCH  15  18
ENDBRANCH   6  15
TORSDOF 3
ENDMDL
MODEL 9
REMARK VINA RESULT:      -5.7     12.683     15.077
REMARK  3 active torsions:
REMARK  status: ('A' for Active; 'I' for Inactive)
REMARK    1  A    between atoms: N_8  and  C_9 
REMARK    2  A    between atoms: C_14  and  S_15 
REMARK    3  A    between atoms: S_15  and  N_18 
ROOT
HETATM    1  C   UNK N   1      21.063  15.974   6.385  0.00  0.00     0.044 A 
HETATM    2  C   UNK N   1      21.907  17.093   6.273  0.00  0.00     0.032 A 
HETATM    3  C   UNK N   1      21.701  18.040   5.266  0.00  0.00     0.027 A 
HETATM    4  C   UNK N   1      20.035  15.806   5.443  0.00  0.00     0.032 A 
HETATM    5  C   UNK N   1      19.832  16.750   4.435  0.00  0.00     0.027 A 
HETATM    6  C   UNK N   1      20.657  17.871   4.351  0.00  0.00     0.079 A 
ENDROOT
BRANCH   1   7
HETATM    7  N   UNK N   1      21.210  15.056   7.472  0.00  0.00    -0.276 N 
HETATM    8  S   UNK N   1      22.030  13.508   7.245  0.00  0.00     0.233 S 
HETATM    9  O   UNK N   1      21.234  12.806   6.133  0.00  0.00    -0.205 OA
HETATM   10  C   UNK N   1      22.148  12.555   8.778  0.00  0.00     0.163 C 
HETATM   11  O   UNK N   1      23.379  13.846   6.594  0.00  0.00    -0.205 OA
HETATM   12  C   UNK N   1      21.826  13.478   9.941  0.00  0.00     0.018 C 
HETATM   13  C   UNK N   1      20.489  14.170   9.710  0.00  0.00     0.022 C 
HETATM   14  C   UNK N   1      20.617  15.372   8.766  0.00  0.00     0.142 C 
ENDBRANCH   1   7
BRANCH   6  15
HETATM   15  S   UNK N   1      20.274  19.158   3.175  0.00  0.00     0.256 S 
HETATM   16  O   UNK N   1      21.302  19.300   2.043  0.00  0.00    -0.201 OA
HETATM   17  O   UNK N   1      20.240  20.567   3.784  0.00  0.00    -0.201 OA
BRANCH  15  18
HETATM   18  N   UNK N   1      18.718  18.982   2.361  0.00  0.00    -0.324 N 
HETATM   19  H   UNK N   1      17.894  18.509   1.991  0.00  0.00     0.169 HD
HETATM   20  H   UNK N   1      18.522  19.949   2.102  0.00  0.00     0.169 HD
ENDBRANCH  15  18
ENDBRANCH   6  15
TORSDOF 3
ENDMDL
