REMARK  6 active torsions:
REMARK  status: ('A' for Active; 'I' for Inactive)
REMARK    1  A    between atoms: O_2  and  C_3 
REMARK    2  A    between atoms: C_3  and  C_5 
REMARK    3  A    between atoms: C_5  and  C_9 
REMARK    4  A    between atoms: C_6  and  O_7 
REMARK    5  A    between atoms: C_11  and  C_15 
REMARK    6  A    between atoms: C_16  and  C_17 
ROOT
HETATM    1  C   UNK N   1       1.766  -0.693  -0.057  0.00  0.00    -0.008 A 
HETATM    2  C   UNK N   1       2.987  -1.396  -0.119  0.00  0.00     0.013 A 
HETATM    3  C   UNK N   1       0.569  -1.485   0.018  0.00  0.00    -0.025 A 
HETATM    4  C   UNK N   1       0.653  -2.888   0.005  0.00  0.00     0.012 A 
HETATM    5  C   UNK N   1       1.882  -3.535  -0.068  0.00  0.00     0.001 A 
HETATM    6  C   UNK N   1       3.050  -2.788  -0.125  0.00  0.00     0.001 A 
ENDROOT
BRANCH   1   7
HETATM    7  C   UNK N   1       1.824   0.849  -0.041  0.00  0.00     0.072 C 
HETATM    8  C   UNK N   1       2.997   1.507   0.123  0.00  0.00     0.152 C 
BRANCH   7   9
HETATM    9  C   UNK N   1       0.659   1.773  -0.245  0.00  0.00     0.295 C 
HETATM   10  O   UNK N   1      -0.341   1.413  -0.848  0.00  0.00    -0.259 OA
BRANCH   9  11
HETATM   11  O   UNK N   1       0.762   3.067   0.154  0.00  0.00    -0.322 OA
HETATM   12  C   UNK N   1      -0.269   3.968   0.022  0.00  0.00     0.213 C 
ENDBRANCH   9  11
ENDBRANCH   7   9
BRANCH   8  13
HETATM   13  O   UNK N   1       4.192   0.910   0.286  0.00  0.00    -0.367 OA
HETATM   14  C   UNK N   1       5.336   1.664   0.267  0.00  0.00     0.208 C 
ENDBRANCH   8  13
ENDBRANCH   1   7
BRANCH   3  15
HETATM   15  C   UNK N   1      -0.761  -0.877   0.131  0.00  0.00     0.013 C 
HETATM   16  C   UNK N   1      -1.928  -1.523   0.061  0.00  0.00     0.012 C 
BRANCH  16  17
HETATM   17  C   UNK N   1      -3.191  -0.760   0.086  0.00  0.00    -0.036 A 
HETATM   18  C   UNK N   1      -4.411  -1.431  -0.049  0.00  0.00     0.011 A 
HETATM   19  C   UNK N   1      -5.611  -0.712  -0.060  0.00  0.00     0.001 A 
HETATM   20  C   UNK N   1      -5.597   0.682   0.061  0.00  0.00     0.000 A 
HETATM   21  C   UNK N   1      -4.383   1.359   0.194  0.00  0.00     0.001 A 
HETATM   22  C   UNK N   1      -3.185   0.642   0.204  0.00  0.00     0.011 A 
ENDBRANCH  16  17
ENDBRANCH   3  15
TORSDOF 6
