MODEL 1
REMARK VINA RESULT:      -6.8      0.000      0.000
REMARK  6 active torsions:
REMARK  status: ('A' for Active; 'I' for Inactive)
REMARK    1  A    between atoms: O_2  and  C_3 
REMARK    2  A    between atoms: C_3  and  C_5 
REMARK    3  A    between atoms: C_5  and  C_9 
REMARK    4  A    between atoms: C_6  and  O_7 
REMARK    5  A    between atoms: C_11  and  C_15 
REMARK    6  A    between atoms: C_16  and  C_17 
ROOT
HETATM    1  C   UNK N   1      30.392  22.228  -5.208  0.00  0.00    -0.008 A 
HETATM    2  C   UNK N   1      30.981  21.031  -5.664  0.00  0.00     0.013 A 
HETATM    3  C   UNK N   1      29.149  22.610  -5.821  0.00  0.00    -0.025 A 
HETATM    4  C   UNK N   1      28.593  21.813  -6.836  0.00  0.00     0.012 A 
HETATM    5  C   UNK N   1      29.219  20.645  -7.259  0.00  0.00     0.001 A 
HETATM    6  C   UNK N   1      30.411  20.251  -6.668  0.00  0.00     0.001 A 
ENDROOT
BRANCH   1   7
HETATM    7  C   UNK N   1      31.108  22.998  -4.078  0.00  0.00     0.072 C 
HETATM    8  C   UNK N   1      31.729  24.179  -4.316  0.00  0.00     0.152 C 
BRANCH   7   9
HETATM    9  C   UNK N   1      31.166  22.587  -2.636  0.00  0.00     0.295 C 
HETATM   10  O   UNK N   1      31.902  21.688  -2.259  0.00  0.00    -0.259 OA
BRANCH   9  11
HETATM   11  O   UNK N   1      30.305  23.153  -1.751  0.00  0.00    -0.322 OA
HETATM   12  C   UNK N   1      28.939  23.043  -1.872  0.00  0.00     0.213 C 
ENDBRANCH   9  11
ENDBRANCH   7   9
BRANCH   8  13
HETATM   13  O   UNK N   1      31.787  24.784  -5.517  0.00  0.00    -0.367 OA
HETATM   14  C   UNK N   1      31.328  26.068  -5.653  0.00  0.00     0.208 C 
ENDBRANCH   8  13
ENDBRANCH   1   7
BRANCH   3  15
HETATM   15  C   UNK N   1      28.412  23.809  -5.407  0.00  0.00     0.013 C 
HETATM   16  C   UNK N   1      27.091  23.898  -5.236  0.00  0.00     0.012 C 
BRANCH  16  17
HETATM   17  C   UNK N   1      26.479  25.203  -4.919  0.00  0.00    -0.036 A 
HETATM   18  C   UNK N   1      25.636  25.820  -5.850  0.00  0.00     0.011 A 
HETATM   19  C   UNK N   1      25.079  27.072  -5.571  0.00  0.00     0.001 A 
HETATM   20  C   UNK N   1      25.364  27.716  -4.362  0.00  0.00     0.000 A 
HETATM   21  C   UNK N   1      26.206  27.107  -3.429  0.00  0.00     0.001 A 
HETATM   22  C   UNK N   1      26.763  25.858  -3.707  0.00  0.00     0.011 A 
ENDBRANCH  16  17
ENDBRANCH   3  15
TORSDOF 6
ENDMDL
MODEL 2
REMARK VINA RESULT:      -6.4      2.992      6.589
REMARK  6 active torsions:
REMARK  status: ('A' for Active; 'I' for Inactive)
REMARK    1  A    between atoms: O_2  and  C_3 
REMARK    2  A    between atoms: C_3  and  C_5 
REMARK    3  A    between atoms: C_5  and  C_9 
REMARK    4  A    between atoms: C_6  and  O_7 
REMARK    5  A    between atoms: C_11  and  C_15 
REMARK    6  A    between atoms: C_16  and  C_17 
ROOT
HETATM    1  C   UNK N   1      26.069  25.675  -6.055  0.00  0.00    -0.008 A 
HETATM    2  C   UNK N   1      25.208  26.789  -6.135  0.00  0.00     0.013 A 
HETATM    3  C   UNK N   1      26.708  25.445  -4.788  0.00  0.00    -0.025 A 
HETATM    4  C   UNK N   1      26.478  26.322  -3.715  0.00  0.00     0.012 A 
HETATM    5  C   UNK N   1      25.627  27.415  -3.848  0.00  0.00     0.001 A 
HETATM    6  C   UNK N   1      24.988  27.645  -5.058  0.00  0.00     0.001 A 
ENDROOT
BRANCH   1   7
HETATM    7  C   UNK N   1      26.220  24.791  -7.310  0.00  0.00     0.072 C 
HETATM    8  C   UNK N   1      27.222  24.997  -8.198  0.00  0.00     0.152 C 
BRANCH   7   9
HETATM    9  C   UNK N   1      25.355  23.618  -7.667  0.00  0.00     0.295 C 
HETATM   10  O   UNK N   1      24.735  23.581  -8.720  0.00  0.00    -0.259 OA
BRANCH   9  11
HETATM   11  O   UNK N   1      25.172  22.628  -6.756  0.00  0.00    -0.322 OA
HETATM   12  C   UNK N   1      24.617  21.412  -7.083  0.00  0.00     0.213 C 
ENDBRANCH   9  11
ENDBRANCH   7   9
BRANCH   8  13
HETATM   13  O   UNK N   1      28.156  25.959  -8.087  0.00  0.00    -0.367 OA
HETATM   14  C   UNK N   1      28.047  27.102  -8.836  0.00  0.00     0.208 C 
ENDBRANCH   8  13
ENDBRANCH   1   7
BRANCH   3  15
HETATM   15  C   UNK N   1      27.592  24.297  -4.560  0.00  0.00     0.013 C 
HETATM   16  C   UNK N   1      28.927  24.318  -4.580  0.00  0.00     0.012 C 
BRANCH  16  17
HETATM   17  C   UNK N   1      29.682  23.058  -4.437  0.00  0.00    -0.036 A 
HETATM   18  C   UNK N   1      29.707  22.139  -5.491  0.00  0.00     0.011 A 
HETATM   19  C   UNK N   1      30.393  20.928  -5.352  0.00  0.00     0.001 A 
HETATM   20  C   UNK N   1      31.055  20.628  -4.156  0.00  0.00     0.000 A 
HETATM   21  C   UNK N   1      31.033  21.539  -3.098  0.00  0.00     0.001 A 
HETATM   22  C   UNK N   1      30.348  22.747  -3.237  0.00  0.00     0.011 A 
ENDBRANCH  16  17
ENDBRANCH   3  15
TORSDOF 6
ENDMDL
MODEL 3
REMARK VINA RESULT:      -6.2     11.058     13.575
REMARK  6 active torsions:
REMARK  status: ('A' for Active; 'I' for Inactive)
REMARK    1  A    between atoms: O_2  and  C_3 
REMARK    2  A    between atoms: C_3  and  C_5 
REMARK    3  A    between atoms: C_5  and  C_9 
REMARK    4  A    between atoms: C_6  and  O_7 
REMARK    5  A    between atoms: C_11  and  C_15 
REMARK    6  A    between atoms: C_16  and  C_17 
ROOT
HETATM    1  C   UNK N   1      30.917  17.335   7.421  0.00  0.00    -0.008 A 
HETATM    2  C   UNK N   1      31.248  18.052   8.589  0.00  0.00     0.013 A 
HETATM    3  C   UNK N   1      29.521  17.259   7.085  0.00  0.00    -0.025 A 
HETATM    4  C   UNK N   1      28.564  17.864   7.918  0.00  0.00     0.012 A 
HETATM    5  C   UNK N   1      28.942  18.552   9.066  0.00  0.00     0.001 A 
HETATM    6  C   UNK N   1      30.285  18.650   9.399  0.00  0.00     0.001 A 
ENDROOT
BRANCH   1   7
HETATM    7  C   UNK N   1      32.072  16.729   6.596  0.00  0.00     0.072 C 
HETATM    8  C   UNK N   1      32.435  15.432   6.741  0.00  0.00     0.152 C 
BRANCH   7   9
HETATM    9  C   UNK N   1      32.869  17.445   5.545  0.00  0.00     0.295 C 
HETATM   10  O   UNK N   1      34.008  17.830   5.763  0.00  0.00    -0.259 OA
BRANCH   9  11
HETATM   11  O   UNK N   1      32.275  17.767   4.367  0.00  0.00    -0.322 OA
HETATM   12  C   UNK N   1      32.399  16.990   3.239  0.00  0.00     0.213 C 
ENDBRANCH   9  11
ENDBRANCH   7   9
BRANCH   8  13
HETATM   13  O   UNK N   1      31.851  14.565   7.589  0.00  0.00    -0.367 OA
HETATM   14  C   UNK N   1      32.501  14.197   8.738  0.00  0.00     0.208 C 
ENDBRANCH   8  13
ENDBRANCH   1   7
BRANCH   3  15
HETATM   15  C   UNK N   1      29.048  16.581   5.874  0.00  0.00     0.013 C 
HETATM   16  C   UNK N   1      28.781  17.162   4.701  0.00  0.00     0.012 C 
BRANCH  16  17
HETATM   17  C   UNK N   1      28.208  16.364   3.600  0.00  0.00    -0.036 A 
HETATM   18  C   UNK N   1      26.845  16.465   3.305  0.00  0.00     0.011 A 
HETATM   19  C   UNK N   1      26.287  15.687   2.285  0.00  0.00     0.001 A 
HETATM   20  C   UNK N   1      27.090  14.802   1.556  0.00  0.00     0.000 A 
HETATM   21  C   UNK N   1      28.451  14.694   1.847  0.00  0.00     0.001 A 
HETATM   22  C   UNK N   1      29.008  15.470   2.865  0.00  0.00     0.011 A 
ENDBRANCH  16  17
ENDBRANCH   3  15
TORSDOF 6
ENDMDL
MODEL 4
REMARK VINA RESULT:      -6.0     10.989     13.422
REMARK  6 active torsions:
REMARK  status: ('A' for Active; 'I' for Inactive)
REMARK    1  A    between atoms: O_2  and  C_3 
REMARK    2  A    between atoms: C_3  and  C_5 
REMARK    3  A    between atoms: C_5  and  C_9 
REMARK    4  A    between atoms: C_6  and  O_7 
REMARK    5  A    between atoms: C_11  and  C_15 
REMARK    6  A    between atoms: C_16  and  C_17 
ROOT
HETATM    1  C   UNK N   1      21.161  18.416   4.048  0.00  0.00    -0.008 A 
HETATM    2  C   UNK N   1      19.861  18.586   3.527  0.00  0.00     0.013 A 
HETATM    3  C   UNK N   1      22.192  19.249   3.491  0.00  0.00    -0.025 A 
HETATM    4  C   UNK N   1      21.883  20.158   2.465  0.00  0.00     0.012 A 
HETATM    5  C   UNK N   1      20.586  20.281   1.978  0.00  0.00     0.001 A 
HETATM    6  C   UNK N   1      19.574  19.498   2.513  0.00  0.00     0.001 A 
ENDROOT
BRANCH   1   7
HETATM    7  C   UNK N   1      21.353  17.387   5.181  0.00  0.00     0.072 C 
HETATM    8  C   UNK N   1      21.787  16.130   4.923  0.00  0.00     0.152 C 
BRANCH   7   9
HETATM    9  C   UNK N   1      21.144  17.644   6.645  0.00  0.00     0.295 C 
HETATM   10  O   UNK N   1      20.969  18.775   7.074  0.00  0.00    -0.259 OA
BRANCH   9  11
HETATM   11  O   UNK N   1      21.259  16.613   7.521  0.00  0.00    -0.322 OA
HETATM   12  C   UNK N   1      20.416  16.456   8.596  0.00  0.00     0.213 C 
ENDBRANCH   9  11
ENDBRANCH   7   9
BRANCH   8  13
HETATM   13  O   UNK N   1      22.084  15.660   3.697  0.00  0.00    -0.367 OA
HETATM   14  C   UNK N   1      23.395  15.527   3.320  0.00  0.00     0.208 C 
ENDBRANCH   8  13
ENDBRANCH   1   7
BRANCH   3  15
HETATM   15  C   UNK N   1      23.576  19.201   3.974  0.00  0.00     0.013 C 
HETATM   16  C   UNK N   1      24.662  19.554   3.281  0.00  0.00     0.012 C 
BRANCH  16  17
HETATM   17  C   UNK N   1      26.002  19.351   3.865  0.00  0.00    -0.036 A 
HETATM   18  C   UNK N   1      26.688  20.434   4.424  0.00  0.00     0.011 A 
HETATM   19  C   UNK N   1      27.972  20.258   4.949  0.00  0.00     0.001 A 
HETATM   20  C   UNK N   1      28.579  18.997   4.916  0.00  0.00     0.000 A 
HETATM   21  C   UNK N   1      27.902  17.911   4.358  0.00  0.00     0.001 A 
HETATM   22  C   UNK N   1      26.620  18.087   3.832  0.00  0.00     0.011 A 
ENDBRANCH  16  17
ENDBRANCH   3  15
TORSDOF 6
ENDMDL
MODEL 5
REMARK VINA RESULT:      -6.0     22.778     26.037
REMARK  6 active torsions:
REMARK  status: ('A' for Active; 'I' for Inactive)
REMARK    1  A    between atoms: O_2  and  C_3 
REMARK    2  A    between atoms: C_3  and  C_5 
REMARK    3  A    between atoms: C_5  and  C_9 
REMARK    4  A    between atoms: C_6  and  O_7 
REMARK    5  A    between atoms: C_11  and  C_15 
REMARK    6  A    between atoms: C_16  and  C_17 
ROOT
HETATM    1  C   UNK N   1      36.515  13.563  15.833  0.00  0.00    -0.008 A 
HETATM    2  C   UNK N   1      37.106  14.758  15.374  0.00  0.00     0.013 A 
HETATM    3  C   UNK N   1      35.952  13.589  17.156  0.00  0.00    -0.025 A 
HETATM    4  C   UNK N   1      36.028  14.761  17.929  0.00  0.00     0.012 A 
HETATM    5  C   UNK N   1      36.632  15.912  17.433  0.00  0.00     0.001 A 
HETATM    6  C   UNK N   1      37.166  15.912  16.153  0.00  0.00     0.001 A 
ENDROOT
BRANCH   1   7
HETATM    7  C   UNK N   1      36.494  12.356  14.873  0.00  0.00     0.072 C 
HETATM    8  C   UNK N   1      35.689  12.338  13.783  0.00  0.00     0.152 C 
BRANCH   7   9
HETATM    9  C   UNK N   1      37.353  11.130  14.986  0.00  0.00     0.295 C 
HETATM   10  O   UNK N   1      38.412  11.037  14.384  0.00  0.00    -0.259 OA
BRANCH   9  11
HETATM   11  O   UNK N   1      36.892  10.060  15.685  0.00  0.00    -0.322 OA
HETATM   12  C   UNK N   1      37.401   8.793  15.521  0.00  0.00     0.213 C 
ENDBRANCH   9  11
ENDBRANCH   7   9
BRANCH   8  13
HETATM   13  O   UNK N   1      34.851  13.332  13.435  0.00  0.00    -0.367 OA
HETATM   14  C   UNK N   1      35.049  14.006  12.258  0.00  0.00     0.208 C 
ENDBRANCH   8  13
ENDBRANCH   1   7
BRANCH   3  15
HETATM   15  C   UNK N   1      35.271  12.427  17.735  0.00  0.00     0.013 C 
HETATM   16  C   UNK N   1      35.451  11.944  18.967  0.00  0.00     0.012 C 
BRANCH  16  17
HETATM   17  C   UNK N   1      34.770  10.700  19.374  0.00  0.00    -0.036 A 
HETATM   18  C   UNK N   1      34.487   9.718  18.419  0.00  0.00     0.011 A 
HETATM   19  C   UNK N   1      33.812   8.550  18.790  0.00  0.00     0.001 A 
HETATM   20  C   UNK N   1      33.414   8.360  20.118  0.00  0.00     0.000 A 
HETATM   21  C   UNK N   1      33.691   9.336  21.077  0.00  0.00     0.001 A 
HETATM   22  C   UNK N   1      34.364  10.503  20.707  0.00  0.00     0.011 A 
ENDBRANCH  16  17
ENDBRANCH   3  15
TORSDOF 6
ENDMDL
MODEL 6
REMARK VINA RESULT:      -6.0      9.678     12.457
REMARK  6 active torsions:
REMARK  status: ('A' for Active; 'I' for Inactive)
REMARK    1  A    between atoms: O_2  and  C_3 
REMARK    2  A    between atoms: C_3  and  C_5 
REMARK    3  A    between atoms: C_5  and  C_9 
REMARK    4  A    between atoms: C_6  and  O_7 
REMARK    5  A    between atoms: C_11  and  C_15 
REMARK    6  A    between atoms: C_16  and  C_17 
ROOT
HETATM    1  C   UNK N   1      29.899  17.045   6.877  0.00  0.00    -0.008 A 
HETATM    2  C   UNK N   1      30.932  16.876   7.821  0.00  0.00     0.013 A 
HETATM    3  C   UNK N   1      28.914  18.050   7.172  0.00  0.00    -0.025 A 
HETATM    4  C   UNK N   1      29.001  18.789   8.364  0.00  0.00     0.012 A 
HETATM    5  C   UNK N   1      30.035  18.577   9.270  0.00  0.00     0.001 A 
HETATM    6  C   UNK N   1      31.004  17.623   8.995  0.00  0.00     0.001 A 
ENDROOT
BRANCH   1   7
HETATM    7  C   UNK N   1      29.934  16.170   5.607  0.00  0.00     0.072 C 
HETATM    8  C   UNK N   1      30.634  16.550   4.510  0.00  0.00     0.152 C 
BRANCH   7   9
HETATM    9  C   UNK N   1      29.276  14.831   5.445  0.00  0.00     0.295 C 
HETATM   10  O   UNK N   1      29.934  13.809   5.318  0.00  0.00    -0.259 OA
BRANCH   9  11
HETATM   11  O   UNK N   1      27.925  14.767   5.330  0.00  0.00    -0.322 OA
HETATM   12  C   UNK N   1      27.263  15.094   4.169  0.00  0.00     0.213 C 
ENDBRANCH   9  11
ENDBRANCH   7   9
BRANCH   8  13
HETATM   13  O   UNK N   1      31.344  17.689   4.413  0.00  0.00    -0.367 OA
HETATM   14  C   UNK N   1      32.674  17.635   4.086  0.00  0.00     0.208 C 
ENDBRANCH   8  13
ENDBRANCH   1   7
BRANCH   3  15
HETATM   15  C   UNK N   1      27.814  18.356   6.252  0.00  0.00     0.013 C 
HETATM   16  C   UNK N   1      27.840  19.260   5.270  0.00  0.00     0.012 C 
BRANCH  16  17
HETATM   17  C   UNK N   1      26.616  19.532   4.491  0.00  0.00    -0.036 A 
HETATM   18  C   UNK N   1      26.665  20.412   3.405  0.00  0.00     0.011 A 
HETATM   19  C   UNK N   1      25.503  20.702   2.682  0.00  0.00     0.001 A 
HETATM   20  C   UNK N   1      24.285  20.116   3.044  0.00  0.00     0.000 A 
HETATM   21  C   UNK N   1      24.228  19.238   4.128  0.00  0.00     0.001 A 
HETATM   22  C   UNK N   1      25.387  18.949   4.851  0.00  0.00     0.011 A 
ENDBRANCH  16  17
ENDBRANCH   3  15
TORSDOF 6
ENDMDL
MODEL 7
REMARK VINA RESULT:      -6.0      2.327      3.709
REMARK  6 active torsions:
REMARK  status: ('A' for Active; 'I' for Inactive)
REMARK    1  A    between atoms: O_2  and  C_3 
REMARK    2  A    between atoms: C_3  and  C_5 
REMARK    3  A    between atoms: C_5  and  C_9 
REMARK    4  A    between atoms: C_6  and  O_7 
REMARK    5  A    between atoms: C_11  and  C_15 
REMARK    6  A    between atoms: C_16  and  C_17 
ROOT
HETATM    1  C   UNK N   1      29.621  22.134  -5.577  0.00  0.00    -0.008 A 
HETATM    2  C   UNK N   1      30.473  21.031  -5.362  0.00  0.00     0.013 A 
HETATM    3  C   UNK N   1      29.340  22.964  -4.437  0.00  0.00    -0.025 A 
HETATM    4  C   UNK N   1      29.888  22.644  -3.183  0.00  0.00     0.012 A 
HETATM    5  C   UNK N   1      30.715  21.537  -3.020  0.00  0.00     0.001 A 
HETATM    6  C   UNK N   1      31.011  20.733  -4.112  0.00  0.00     0.001 A 
ENDROOT
BRANCH   1   7
HETATM    7  C   UNK N   1      29.099  22.371  -7.010  0.00  0.00     0.072 C 
HETATM    8  C   UNK N   1      29.855  23.005  -7.938  0.00  0.00     0.152 C 
BRANCH   7   9
HETATM    9  C   UNK N   1      27.776  21.911  -7.549  0.00  0.00     0.295 C 
HETATM   10  O   UNK N   1      27.674  20.872  -8.184  0.00  0.00    -0.259 OA
BRANCH   9  11
HETATM   11  O   UNK N   1      26.691  22.718  -7.420  0.00  0.00    -0.322 OA
HETATM   12  C   UNK N   1      25.489  22.270  -6.924  0.00  0.00     0.213 C 
ENDBRANCH   9  11
ENDBRANCH   7   9
BRANCH   8  13
HETATM   13  O   UNK N   1      31.095  23.480  -7.719  0.00  0.00    -0.367 OA
HETATM   14  C   UNK N   1      32.175  22.840  -8.268  0.00  0.00     0.208 C 
ENDBRANCH   8  13
ENDBRANCH   1   7
BRANCH   3  15
HETATM   15  C   UNK N   1      28.505  24.166  -4.536  0.00  0.00     0.013 C 
HETATM   16  C   UNK N   1      27.265  24.301  -4.059  0.00  0.00     0.012 C 
BRANCH  16  17
HETATM   17  C   UNK N   1      26.507  25.539  -4.328  0.00  0.00    -0.036 A 
HETATM   18  C   UNK N   1      26.478  26.558  -3.371  0.00  0.00     0.011 A 
HETATM   19  C   UNK N   1      25.735  27.720  -3.603  0.00  0.00     0.001 A 
HETATM   20  C   UNK N   1      25.015  27.868  -4.794  0.00  0.00     0.000 A 
HETATM   21  C   UNK N   1      25.037  26.854  -5.754  0.00  0.00     0.001 A 
HETATM   22  C   UNK N   1      25.778  25.694  -5.521  0.00  0.00     0.011 A 
ENDBRANCH  16  17
ENDBRANCH   3  15
TORSDOF 6
ENDMDL
MODEL 8
REMARK VINA RESULT:      -5.9      9.441     12.394
REMARK  6 active torsions:
REMARK  status: ('A' for Active; 'I' for Inactive)
REMARK    1  A    between atoms: O_2  and  C_3 
REMARK    2  A    between atoms: C_3  and  C_5 
REMARK    3  A    between atoms: C_5  and  C_9 
REMARK    4  A    between atoms: C_6  and  O_7 
REMARK    5  A    between atoms: C_11  and  C_15 
REMARK    6  A    between atoms: C_16  and  C_17 
ROOT
HETATM    1  C   UNK N   1      29.922  17.273   6.648  0.00  0.00    -0.008 A 
HETATM    2  C   UNK N   1      30.923  17.089   7.624  0.00  0.00     0.013 A 
HETATM    3  C   UNK N   1      28.818  18.120   7.008  0.00  0.00    -0.025 A 
HETATM    4  C   UNK N   1      28.764  18.698   8.288  0.00  0.00     0.012 A 
HETATM    5  C   UNK N   1      29.773  18.477   9.221  0.00  0.00     0.001 A 
HETATM    6  C   UNK N   1      30.855  17.676   8.886  0.00  0.00     0.001 A 
ENDROOT
BRANCH   1   7
HETATM    7  C   UNK N   1      30.115  16.585   5.280  0.00  0.00     0.072 C 
HETATM    8  C   UNK N   1      29.419  15.471   4.949  0.00  0.00     0.152 C 
BRANCH   7   9
HETATM    9  C   UNK N   1      31.014  17.062   4.177  0.00  0.00     0.295 C 
HETATM   10  O   UNK N   1      30.873  16.672   3.028  0.00  0.00    -0.259 OA
BRANCH   9  11
HETATM   11  O   UNK N   1      32.072  17.857   4.481  0.00  0.00    -0.322 OA
HETATM   12  C   UNK N   1      33.297  17.353   4.851  0.00  0.00     0.213 C 
ENDBRANCH   9  11
ENDBRANCH   7   9
BRANCH   8  13
HETATM   13  O   UNK N   1      28.520  14.866   5.747  0.00  0.00    -0.367 OA
HETATM   14  C   UNK N   1      27.288  14.530   5.250  0.00  0.00     0.208 C 
ENDBRANCH   8  13
ENDBRANCH   1   7
BRANCH   3  15
HETATM   15  C   UNK N   1      27.734  18.427   6.069  0.00  0.00     0.013 C 
HETATM   16  C   UNK N   1      27.690  19.469   5.235  0.00  0.00     0.012 C 
BRANCH  16  17
HETATM   17  C   UNK N   1      26.482  19.707   4.422  0.00  0.00    -0.036 A 
HETATM   18  C   UNK N   1      26.567  20.482   3.260  0.00  0.00     0.011 A 
HETATM   19  C   UNK N   1      25.420  20.741   2.502  0.00  0.00     0.001 A 
HETATM   20  C   UNK N   1      24.181  20.229   2.904  0.00  0.00     0.000 A 
HETATM   21  C   UNK N   1      24.088  19.457   4.063  0.00  0.00     0.001 A 
HETATM   22  C   UNK N   1      25.232  19.199   4.821  0.00  0.00     0.011 A 
ENDBRANCH  16  17
ENDBRANCH   3  15
TORSDOF 6
ENDMDL
MODEL 9
REMARK VINA RESULT:      -5.8      3.474      5.298
REMARK  6 active torsions:
REMARK  status: ('A' for Active; 'I' for Inactive)
REMARK    1  A    between atoms: O_2  and  C_3 
REMARK    2  A    between atoms: C_3  and  C_5 
REMARK    3  A    between atoms: C_5  and  C_9 
REMARK    4  A    between atoms: C_6  and  O_7 
REMARK    5  A    between atoms: C_11  and  C_15 
REMARK    6  A    between atoms: C_16  and  C_17 
ROOT
HETATM    1  C   UNK N   1      27.975  21.590  -7.887  0.00  0.00    -0.008 A 
HETATM    2  C   UNK N   1      28.686  20.401  -8.148  0.00  0.00     0.013 A 
HETATM    3  C   UNK N   1      28.368  22.335  -6.722  0.00  0.00    -0.025 A 
HETATM    4  C   UNK N   1      29.400  21.855  -5.897  0.00  0.00     0.012 A 
HETATM    5  C   UNK N   1      30.065  20.669  -6.192  0.00  0.00     0.001 A 
HETATM    6  C   UNK N   1      29.710  19.944  -7.321  0.00  0.00     0.001 A 
ENDROOT
BRANCH   1   7
HETATM    7  C   UNK N   1      26.871  22.002  -8.883  0.00  0.00     0.072 C 
HETATM    8  C   UNK N   1      25.602  21.542  -8.757  0.00  0.00     0.152 C 
BRANCH   7   9
HETATM    9  C   UNK N   1      27.036  22.954 -10.031  0.00  0.00     0.295 C 
HETATM   10  O   UNK N   1      27.453  22.577 -11.116  0.00  0.00    -0.259 OA
BRANCH   9  11
HETATM   11  O   UNK N   1      26.820  24.280  -9.829  0.00  0.00    -0.322 OA
HETATM   12  C   UNK N   1      26.074  25.050 -10.691  0.00  0.00     0.213 C 
ENDBRANCH   9  11
ENDBRANCH   7   9
BRANCH   8  13
HETATM   13  O   UNK N   1      25.185  20.707  -7.788  0.00  0.00    -0.367 OA
HETATM   14  C   UNK N   1      24.394  21.183  -6.776  0.00  0.00     0.208 C 
ENDBRANCH   8  13
ENDBRANCH   1   7
BRANCH   3  15
HETATM   15  C   UNK N   1      27.739  23.610  -6.363  0.00  0.00     0.013 C 
HETATM   16  C   UNK N   1      27.142  23.892  -5.202  0.00  0.00     0.012 C 
BRANCH  16  17
HETATM   17  C   UNK N   1      26.458  25.187  -5.025  0.00  0.00    -0.036 A 
HETATM   18  C   UNK N   1      25.658  25.697  -6.052  0.00  0.00     0.011 A 
HETATM   19  C   UNK N   1      25.032  26.940  -5.906  0.00  0.00     0.001 A 
HETATM   20  C   UNK N   1      25.207  27.681  -4.732  0.00  0.00     0.000 A 
HETATM   21  C   UNK N   1      26.006  27.180  -3.702  0.00  0.00     0.001 A 
HETATM   22  C   UNK N   1      26.631  25.940  -3.848  0.00  0.00     0.011 A 
ENDBRANCH  16  17
ENDBRANCH   3  15
TORSDOF 6
ENDMDL
