REMARK  4 active torsions:
REMARK  status: ('A' for Active; 'I' for Inactive)
REMARK    1  A    between atoms: N_22  and  C_1 
REMARK    2  A    between atoms: C_2  and  N_13 
REMARK    3  A    between atoms: N_13  and  C_9 
REMARK    4  A    between atoms: C_11  and  N_23 
REMARK       I    between atoms: N_23  and  C_14 
REMARK       I    between atoms: N_22  and  C_18 
ROOT
HETATM    1  N   UNK N   1      -2.544  -0.732  -0.412  0.00  0.00    -0.356 N 
HETATM    2  H   UNK N   1      -3.369  -1.249  -0.559  0.00  0.00     0.166 HD
ENDROOT
BRANCH   1   3
HETATM    3  C   UNK N   1      -2.596   0.670  -0.212  0.00  0.00     0.032 A 
HETATM    4  C   UNK N   1      -3.245   1.498  -1.137  0.00  0.00     0.031 A 
HETATM    5  C   UNK N   1      -3.009   2.883  -1.111  0.00  0.00     0.032 A 
HETATM    6  C   UNK N   1      -2.115   3.419  -0.171  0.00  0.00     0.049 A 
HETATM    7  C   UNK N   1      -1.547   2.590   0.797  0.00  0.00     0.032 A 
HETATM    8  C   UNK N   1      -1.786   1.233   0.777  0.00  0.00     0.031 A 
BRANCH   6   9
HETATM    9  N   UNK N   1      -1.674   4.762  -0.281  0.00  0.00    -0.192 N 
HETATM   10  C   UNK N   1      -0.323   5.103   0.006  0.00  0.00     0.682 A 
HETATM   11  N   UNK N   1       0.120   6.366   0.113  0.00  0.00    -0.200 N 
HETATM   12  N   UNK N   1       0.668   4.196   0.141  0.00  0.00    -0.200 N 
HETATM   13  C   UNK N   1       1.443   6.255   0.343  0.00  0.00     0.123 A 
HETATM   14  H   UNK N   1      -0.407   7.194   0.040  0.00  0.00     0.183 HD
HETATM   15  C   UNK N   1       1.780   4.913   0.358  0.00  0.00     0.123 A 
ATOM     16  HN  UNK N   1       0.587   3.180   0.089  1.00  0.00     0.183 HD
HETATM   17  H   UNK N   1      -2.307   5.463  -0.558  0.00  0.00     0.184 HD
ENDBRANCH   6   9
ENDBRANCH   1   3
BRANCH   1  18
HETATM   18  C   UNK N   1      -1.272  -1.381  -0.395  0.00  0.00     0.032 A 
HETATM   19  C   UNK N   1      -0.095  -0.631  -0.595  0.00  0.00     0.031 A 
HETATM   20  C   UNK N   1       1.154  -1.235  -0.577  0.00  0.00     0.032 A 
HETATM   21  C   UNK N   1       1.258  -2.602  -0.354  0.00  0.00     0.049 A 
HETATM   22  C   UNK N   1       0.088  -3.366  -0.173  0.00  0.00     0.032 A 
HETATM   23  C   UNK N   1      -1.174  -2.758  -0.196  0.00  0.00     0.031 A 
BRANCH  21  24
HETATM   24  N   UNK N   1       2.543  -3.199  -0.390  0.00  0.00    -0.192 N 
HETATM   25  C   UNK N   1       2.802  -4.541  -0.024  0.00  0.00     0.682 A 
HETATM   26  N   UNK N   1       3.909  -5.198  -0.402  0.00  0.00    -0.200 N 
HETATM   27  N   UNK N   1       1.975  -5.293   0.723  0.00  0.00    -0.200 N 
HETATM   28  C   UNK N   1       3.776  -6.431   0.120  0.00  0.00     0.123 A 
ATOM     29  HN  UNK N   1       4.682  -4.840  -0.964  1.00  0.00     0.183 HD
HETATM   30  C   UNK N   1       2.583  -6.488   0.819  0.00  0.00     0.123 A 
HETATM   31  H   UNK N   1       1.112  -5.026   1.114  0.00  0.00     0.183 HD
HETATM   32  H   UNK N   1       3.301  -2.647  -0.688  0.00  0.00     0.184 HD
ENDBRANCH  21  24
ENDBRANCH   1  18
TORSDOF 4
