MODEL 1
REMARK VINA RESULT:      -7.9      0.000      0.000
REMARK  4 active torsions:
REMARK  status: ('A' for Active; 'I' for Inactive)
REMARK    1  A    between atoms: N_22  and  C_1 
REMARK    2  A    between atoms: C_2  and  N_13 
REMARK    3  A    between atoms: N_13  and  C_9 
REMARK    4  A    between atoms: C_11  and  N_23 
REMARK       I    between atoms: N_23  and  C_14 
REMARK       I    between atoms: N_22  and  C_18 
ROOT
HETATM    1  N   UNK N   1      32.806  16.985   7.296  0.00  0.00    -0.356 N 
HETATM    2  H   UNK N   1      33.023  17.173   6.354  0.00  0.00     0.166 HD
ENDROOT
BRANCH   1   3
HETATM    3  C   UNK N   1      31.498  17.207   7.794  0.00  0.00     0.032 A 
HETATM    4  C   UNK N   1      30.385  16.665   7.139  0.00  0.00     0.031 A 
HETATM    5  C   UNK N   1      29.101  17.156   7.435  0.00  0.00     0.032 A 
HETATM    6  C   UNK N   1      28.951  18.191   8.370  0.00  0.00     0.049 A 
HETATM    7  C   UNK N   1      30.061  18.656   9.075  0.00  0.00     0.032 A 
HETATM    8  C   UNK N   1      31.319  18.168   8.791  0.00  0.00     0.031 A 
BRANCH   6   9
HETATM    9  N   UNK N   1      27.711  18.866   8.504  0.00  0.00    -0.192 N 
HETATM   10  C   UNK N   1      27.355  19.906   7.601  0.00  0.00     0.682 A 
HETATM   11  N   UNK N   1      26.298  20.716   7.776  0.00  0.00    -0.200 N 
HETATM   12  N   UNK N   1      28.005  20.150   6.443  0.00  0.00    -0.200 N 
HETATM   13  C   UNK N   1      26.288  21.518   6.694  0.00  0.00     0.123 A 
HETATM   14  H   UNK N   1      25.668  20.723   8.532  0.00  0.00     0.183 HD
HETATM   15  C   UNK N   1      27.343  21.165   5.870  0.00  0.00     0.123 A 
ATOM     16  HN  UNK N   1      28.826  19.664   6.081  1.00  0.00     0.183 HD
HETATM   17  H   UNK N   1      27.092  18.613   9.226  0.00  0.00     0.184 HD
ENDBRANCH   6   9
ENDBRANCH   1   3
BRANCH   1  18
HETATM   18  C   UNK N   1      33.803  16.482   8.185  0.00  0.00     0.032 A 
HETATM   19  C   UNK N   1      34.299  15.172   8.021  0.00  0.00     0.031 A 
HETATM   20  C   UNK N   1      35.273  14.661   8.867  0.00  0.00     0.032 A 
HETATM   21  C   UNK N   1      35.778  15.447   9.895  0.00  0.00     0.049 A 
HETATM   22  C   UNK N   1      35.277  16.750  10.082  0.00  0.00     0.032 A 
HETATM   23  C   UNK N   1      34.290  17.266   9.231  0.00  0.00     0.031 A 
BRANCH  21  24
HETATM   24  N   UNK N   1      36.736  14.881  10.773  0.00  0.00    -0.192 N 
HETATM   25  C   UNK N   1      36.408  14.062  11.880  0.00  0.00     0.682 A 
HETATM   26  N   UNK N   1      37.294  13.245  12.468  0.00  0.00    -0.200 N 
HETATM   27  N   UNK N   1      35.190  14.011  12.446  0.00  0.00    -0.200 N 
HETATM   28  C   UNK N   1      36.604  12.635  13.450  0.00  0.00     0.123 A 
ATOM     29  HN  UNK N   1      38.276  13.114  12.224  1.00  0.00     0.183 HD
HETATM   30  C   UNK N   1      35.305  13.112  13.439  0.00  0.00     0.123 A 
HETATM   31  H   UNK N   1      34.388  14.521  12.189  0.00  0.00     0.183 HD
HETATM   32  H   UNK N   1      37.687  15.067  10.602  0.00  0.00     0.184 HD
ENDBRANCH  21  24
ENDBRANCH   1  18
TORSDOF 4
ENDMDL
MODEL 2
REMARK VINA RESULT:      -7.7      3.193     10.336
REMARK  4 active torsions:
REMARK  status: ('A' for Active; 'I' for Inactive)
REMARK    1  A    between atoms: N_22  and  C_1 
REMARK    2  A    between atoms: C_2  and  N_13 
REMARK    3  A    between atoms: N_13  and  C_9 
REMARK    4  A    between atoms: C_11  and  N_23 
REMARK       I    between atoms: N_23  and  C_14 
REMARK       I    between atoms: N_22  and  C_18 
ROOT
HETATM    1  N   UNK N   1      30.456  17.474   4.235  0.00  0.00    -0.356 N 
HETATM    2  H   UNK N   1      30.810  17.492   3.316  0.00  0.00     0.166 HD
ENDROOT
BRANCH   1   3
HETATM    3  C   UNK N   1      31.322  17.282   5.340  0.00  0.00     0.032 A 
HETATM    4  C   UNK N   1      30.806  17.139   6.634  0.00  0.00     0.031 A 
HETATM    5  C   UNK N   1      31.660  17.284   7.740  0.00  0.00     0.032 A 
HETATM    6  C   UNK N   1      33.016  17.586   7.538  0.00  0.00     0.049 A 
HETATM    7  C   UNK N   1      33.528  17.637   6.241  0.00  0.00     0.032 A 
HETATM    8  C   UNK N   1      32.692  17.486   5.156  0.00  0.00     0.031 A 
BRANCH   6   9
HETATM    9  N   UNK N   1      33.837  17.977   8.625  0.00  0.00    -0.192 N 
HETATM   10  C   UNK N   1      34.540  17.001   9.385  0.00  0.00     0.682 A 
HETATM   11  N   UNK N   1      35.175  17.270  10.537  0.00  0.00    -0.200 N 
HETATM   12  N   UNK N   1      34.694  15.717   9.000  0.00  0.00    -0.200 N 
HETATM   13  C   UNK N   1      35.740  16.104  10.906  0.00  0.00     0.123 A 
HETATM   14  H   UNK N   1      35.219  18.132  11.010  0.00  0.00     0.183 HD
HETATM   15  C   UNK N   1      35.443  15.146   9.954  0.00  0.00     0.123 A 
ATOM     16  HN  UNK N   1      34.318  15.274   8.160  1.00  0.00     0.183 HD
HETATM   17  H   UNK N   1      33.921  18.930   8.856  0.00  0.00     0.184 HD
ENDBRANCH   6   9
ENDBRANCH   1   3
BRANCH   1  18
HETATM   18  C   UNK N   1      29.059  17.644   4.480  0.00  0.00     0.032 A 
HETATM   19  C   UNK N   1      28.165  16.582   4.230  0.00  0.00     0.031 A 
HETATM   20  C   UNK N   1      26.805  16.717   4.465  0.00  0.00     0.032 A 
HETATM   21  C   UNK N   1      26.304  17.914   4.960  0.00  0.00     0.049 A 
HETATM   22  C   UNK N   1      27.183  18.990   5.194  0.00  0.00     0.032 A 
HETATM   23  C   UNK N   1      28.557  18.856   4.952  0.00  0.00     0.031 A 
BRANCH  21  24
HETATM   24  N   UNK N   1      24.904  18.039   5.143  0.00  0.00    -0.192 N 
HETATM   25  C   UNK N   1      24.069  18.844   4.333  0.00  0.00     0.682 A 
HETATM   26  N   UNK N   1      22.739  18.677   4.267  0.00  0.00    -0.200 N 
HETATM   27  N   UNK N   1      24.512  19.840   3.547  0.00  0.00    -0.200 N 
HETATM   28  C   UNK N   1      22.316  19.605   3.389  0.00  0.00     0.123 A 
ATOM     29  HN  UNK N   1      22.173  17.994   4.772  1.00  0.00     0.183 HD
HETATM   30  C   UNK N   1      23.412  20.326   2.947  0.00  0.00     0.123 A 
HETATM   31  H   UNK N   1      25.441  20.146   3.435  0.00  0.00     0.183 HD
HETATM   32  H   UNK N   1      24.487  17.536   5.879  0.00  0.00     0.184 HD
ENDBRANCH  21  24
ENDBRANCH   1  18
TORSDOF 4
ENDMDL
MODEL 3
REMARK VINA RESULT:      -7.6      3.381      5.694
REMARK  4 active torsions:
REMARK  status: ('A' for Active; 'I' for Inactive)
REMARK    1  A    between atoms: N_22  and  C_1 
REMARK    2  A    between atoms: C_2  and  N_13 
REMARK    3  A    between atoms: N_13  and  C_9 
REMARK    4  A    between atoms: C_11  and  N_23 
REMARK       I    between atoms: N_23  and  C_14 
REMARK       I    between atoms: N_22  and  C_18 
ROOT
HETATM    1  N   UNK N   1      27.425  17.579   6.773  0.00  0.00    -0.356 N 
HETATM    2  H   UNK N   1      26.799  16.959   7.212  0.00  0.00     0.166 HD
ENDROOT
BRANCH   1   3
HETATM    3  C   UNK N   1      26.987  18.425   5.723  0.00  0.00     0.032 A 
HETATM    4  C   UNK N   1      26.755  19.787   5.955  0.00  0.00     0.031 A 
HETATM    5  C   UNK N   1      26.016  20.532   5.020  0.00  0.00     0.032 A 
HETATM    6  C   UNK N   1      25.506  19.902   3.875  0.00  0.00     0.049 A 
HETATM    7  C   UNK N   1      25.822  18.567   3.619  0.00  0.00     0.032 A 
HETATM    8  C   UNK N   1      26.554  17.839   4.531  0.00  0.00     0.031 A 
BRANCH   6   9
HETATM    9  N   UNK N   1      24.560  20.562   3.050  0.00  0.00    -0.192 N 
HETATM   10  C   UNK N   1      23.194  20.168   3.062  0.00  0.00     0.682 A 
HETATM   11  N   UNK N   1      22.283  20.608   2.179  0.00  0.00    -0.200 N 
HETATM   12  N   UNK N   1      22.654  19.358   3.999  0.00  0.00    -0.200 N 
HETATM   13  C   UNK N   1      21.122  20.040   2.559  0.00  0.00     0.123 A 
HETATM   14  H   UNK N   1      22.432  21.213   1.417  0.00  0.00     0.183 HD
HETATM   15  C   UNK N   1      21.353  19.270   3.686  0.00  0.00     0.123 A 
ATOM     16  HN  UNK N   1      23.135  18.909   4.779  1.00  0.00     0.183 HD
HETATM   17  H   UNK N   1      24.852  21.299   2.466  0.00  0.00     0.184 HD
ENDBRANCH   6   9
ENDBRANCH   1   3
BRANCH   1  18
HETATM   18  C   UNK N   1      28.791  17.645   7.182  0.00  0.00     0.032 A 
HETATM   19  C   UNK N   1      29.132  18.262   8.404  0.00  0.00     0.031 A 
HETATM   20  C   UNK N   1      30.451  18.334   8.829  0.00  0.00     0.032 A 
HETATM   21  C   UNK N   1      31.461  17.788   8.047  0.00  0.00     0.049 A 
HETATM   22  C   UNK N   1      31.135  17.187   6.815  0.00  0.00     0.032 A 
HETATM   23  C   UNK N   1      29.804  17.118   6.382  0.00  0.00     0.031 A 
BRANCH  21  24
HETATM   24  N   UNK N   1      32.803  17.921   8.483  0.00  0.00    -0.192 N 
HETATM   25  C   UNK N   1      33.552  16.872   9.066  0.00  0.00     0.682 A 
HETATM   26  N   UNK N   1      34.892  16.883   9.131  0.00  0.00    -0.200 N 
HETATM   27  N   UNK N   1      33.010  15.763   9.600  0.00  0.00    -0.200 N 
HETATM   28  C   UNK N   1      35.220  15.722   9.726  0.00  0.00     0.123 A 
ATOM     29  HN  UNK N   1      35.523  17.613   8.800  1.00  0.00     0.183 HD
HETATM   30  C   UNK N   1      34.057  15.032  10.020  0.00  0.00     0.123 A 
HETATM   31  H   UNK N   1      32.055  15.537   9.669  0.00  0.00     0.183 HD
HETATM   32  H   UNK N   1      33.240  18.795   8.374  0.00  0.00     0.184 HD
ENDBRANCH  21  24
ENDBRANCH   1  18
TORSDOF 4
ENDMDL
MODEL 4
REMARK VINA RESULT:      -7.5      3.555      6.889
REMARK  4 active torsions:
REMARK  status: ('A' for Active; 'I' for Inactive)
REMARK    1  A    between atoms: N_22  and  C_1 
REMARK    2  A    between atoms: C_2  and  N_13 
REMARK    3  A    between atoms: N_13  and  C_9 
REMARK    4  A    between atoms: C_11  and  N_23 
REMARK       I    between atoms: N_23  and  C_14 
REMARK       I    between atoms: N_22  and  C_18 
ROOT
HETATM    1  N   UNK N   1      36.786  13.957  12.725  0.00  0.00    -0.356 N 
HETATM    2  H   UNK N   1      37.713  13.733  12.479  0.00  0.00     0.166 HD
ENDROOT
BRANCH   1   3
HETATM    3  C   UNK N   1      35.905  14.531  11.775  0.00  0.00     0.032 A 
HETATM    4  C   UNK N   1      35.353  13.748  10.752  0.00  0.00     0.031 A 
HETATM    5  C   UNK N   1      34.764  14.376   9.642  0.00  0.00     0.032 A 
HETATM    6  C   UNK N   1      34.749  15.777   9.561  0.00  0.00     0.049 A 
HETATM    7  C   UNK N   1      35.224  16.538  10.630  0.00  0.00     0.032 A 
HETATM    8  C   UNK N   1      35.794  15.922  11.723  0.00  0.00     0.031 A 
BRANCH   6   9
HETATM    9  N   UNK N   1      34.388  16.425   8.353  0.00  0.00    -0.192 N 
HETATM   10  C   UNK N   1      33.021  16.677   8.050  0.00  0.00     0.682 A 
HETATM   11  N   UNK N   1      32.590  17.105   6.853  0.00  0.00    -0.200 N 
HETATM   12  N   UNK N   1      32.021  16.571   8.951  0.00  0.00    -0.200 N 
HETATM   13  C   UNK N   1      31.259  17.260   6.995  0.00  0.00     0.123 A 
HETATM   14  H   UNK N   1      33.128  17.270   6.046  0.00  0.00     0.183 HD
HETATM   15  C   UNK N   1      30.909  16.931   8.293  0.00  0.00     0.123 A 
ATOM     16  HN  UNK N   1      32.095  16.279   9.926  1.00  0.00     0.183 HD
HETATM   17  H   UNK N   1      35.088  16.703   7.719  0.00  0.00     0.184 HD
ENDBRANCH   6   9
ENDBRANCH   1   3
BRANCH   1  18
HETATM   18  C   UNK N   1      36.304  13.710  14.046  0.00  0.00     0.032 A 
HETATM   19  C   UNK N   1      36.914  14.341  15.149  0.00  0.00     0.031 A 
HETATM   20  C   UNK N   1      36.461  14.124  16.443  0.00  0.00     0.032 A 
HETATM   21  C   UNK N   1      35.385  13.274  16.665  0.00  0.00     0.049 A 
HETATM   22  C   UNK N   1      34.780  12.622  15.573  0.00  0.00     0.032 A 
HETATM   23  C   UNK N   1      35.239  12.837  14.267  0.00  0.00     0.031 A 
BRANCH  21  24
HETATM   24  N   UNK N   1      34.976  13.033  18.001  0.00  0.00    -0.192 N 
HETATM   25  C   UNK N   1      35.426  11.941  18.780  0.00  0.00     0.682 A 
HETATM   26  N   UNK N   1      35.340  11.918  20.119  0.00  0.00    -0.200 N 
HETATM   27  N   UNK N   1      35.985  10.830  18.272  0.00  0.00    -0.200 N 
HETATM   28  C   UNK N   1      35.881  10.741  20.481  0.00  0.00     0.123 A 
ATOM     29  HN  UNK N   1      34.951  12.638  20.729  1.00  0.00     0.183 HD
HETATM   30  C   UNK N   1      36.276  10.066  19.339  0.00  0.00     0.123 A 
HETATM   31  H   UNK N   1      36.147  10.621  17.323  0.00  0.00     0.183 HD
HETATM   32  H   UNK N   1      34.342  13.664  18.411  0.00  0.00     0.184 HD
ENDBRANCH  21  24
ENDBRANCH   1  18
TORSDOF 4
ENDMDL
MODEL 5
REMARK VINA RESULT:      -7.5      3.302      4.709
REMARK  4 active torsions:
REMARK  status: ('A' for Active; 'I' for Inactive)
REMARK    1  A    between atoms: N_22  and  C_1 
REMARK    2  A    between atoms: C_2  and  N_13 
REMARK    3  A    between atoms: N_13  and  C_9 
REMARK    4  A    between atoms: C_11  and  N_23 
REMARK       I    between atoms: N_23  and  C_14 
REMARK       I    between atoms: N_22  and  C_18 
ROOT
HETATM    1  N   UNK N   1      30.317  17.233   4.355  0.00  0.00    -0.356 N 
HETATM    2  H   UNK N   1      30.742  16.967   3.508  0.00  0.00     0.166 HD
ENDROOT
BRANCH   1   3
HETATM    3  C   UNK N   1      28.935  17.542   4.405  0.00  0.00     0.032 A 
HETATM    4  C   UNK N   1      27.985  16.644   3.901  0.00  0.00     0.031 A 
HETATM    5  C   UNK N   1      26.676  17.088   3.651  0.00  0.00     0.032 A 
HETATM    6  C   UNK N   1      26.338  18.429   3.893  0.00  0.00     0.049 A 
HETATM    7  C   UNK N   1      27.273  19.285   4.478  0.00  0.00     0.032 A 
HETATM    8  C   UNK N   1      28.554  18.846   4.731  0.00  0.00     0.031 A 
BRANCH   6   9
HETATM    9  N   UNK N   1      25.110  18.959   3.423  0.00  0.00    -0.192 N 
HETATM   10  C   UNK N   1      23.894  18.672   4.103  0.00  0.00     0.682 A 
HETATM   11  N   UNK N   1      22.679  18.971   3.616  0.00  0.00    -0.200 N 
HETATM   12  N   UNK N   1      23.834  18.124   5.336  0.00  0.00    -0.200 N 
HETATM   13  C   UNK N   1      21.812  18.581   4.571  0.00  0.00     0.123 A 
HETATM   14  H   UNK N   1      22.467  19.385   2.748  0.00  0.00     0.183 HD
HETATM   15  C   UNK N   1      22.528  18.060   5.634  0.00  0.00     0.123 A 
ATOM     16  HN  UNK N   1      24.617  17.823   5.917  1.00  0.00     0.183 HD
HETATM   17  H   UNK N   1      25.099  19.529   2.621  0.00  0.00     0.184 HD
ENDBRANCH   6   9
ENDBRANCH   1   3
BRANCH   1  18
HETATM   18  C   UNK N   1      31.082  17.314   5.559  0.00  0.00     0.032 A 
HETATM   19  C   UNK N   1      30.442  17.198   6.810  0.00  0.00     0.031 A 
HETATM   20  C   UNK N   1      31.162  17.266   7.994  0.00  0.00     0.032 A 
HETATM   21  C   UNK N   1      32.539  17.447   7.957  0.00  0.00     0.049 A 
HETATM   22  C   UNK N   1      33.187  17.584   6.714  0.00  0.00     0.032 A 
HETATM   23  C   UNK N   1      32.461  17.520   5.517  0.00  0.00     0.031 A 
BRANCH  21  24
HETATM   24  N   UNK N   1      33.241  17.562   9.183  0.00  0.00    -0.192 N 
HETATM   25  C   UNK N   1      34.276  16.685   9.587  0.00  0.00     0.682 A 
HETATM   26  N   UNK N   1      35.168  17.002  10.538  0.00  0.00    -0.200 N 
HETATM   27  N   UNK N   1      34.478  15.464   9.063  0.00  0.00    -0.200 N 
HETATM   28  C   UNK N   1      35.984  15.935  10.616  0.00  0.00     0.123 A 
ATOM     29  HN  UNK N   1      35.216  17.864  11.082  1.00  0.00     0.183 HD
HETATM   30  C   UNK N   1      35.556  14.983   9.708  0.00  0.00     0.123 A 
HETATM   31  H   UNK N   1      33.952  15.019   8.360  0.00  0.00     0.183 HD
HETATM   32  H   UNK N   1      32.994  18.296   9.790  0.00  0.00     0.184 HD
ENDBRANCH  21  24
ENDBRANCH   1  18
TORSDOF 4
ENDMDL
MODEL 6
REMARK VINA RESULT:      -7.4      1.266      9.680
REMARK  4 active torsions:
REMARK  status: ('A' for Active; 'I' for Inactive)
REMARK    1  A    between atoms: N_22  and  C_1 
REMARK    2  A    between atoms: C_2  and  N_13 
REMARK    3  A    between atoms: N_13  and  C_9 
REMARK    4  A    between atoms: C_11  and  N_23 
REMARK       I    between atoms: N_23  and  C_14 
REMARK       I    between atoms: N_22  and  C_18 
ROOT
HETATM    1  N   UNK N   1      34.049  17.254   7.591  0.00  0.00    -0.356 N 
HETATM    2  H   UNK N   1      34.703  17.731   7.031  0.00  0.00     0.166 HD
ENDROOT
BRANCH   1   3
HETATM    3  C   UNK N   1      34.470  16.511   8.722  0.00  0.00     0.032 A 
HETATM    4  C   UNK N   1      34.938  17.164   9.869  0.00  0.00     0.031 A 
HETATM    5  C   UNK N   1      35.653  16.437  10.836  0.00  0.00     0.032 A 
HETATM    6  C   UNK N   1      35.904  15.071  10.635  0.00  0.00     0.049 A 
HETATM    7  C   UNK N   1      35.353  14.420   9.530  0.00  0.00     0.032 A 
HETATM    8  C   UNK N   1      34.644  15.132   8.587  0.00  0.00     0.031 A 
BRANCH   6   9
HETATM    9  N   UNK N   1      36.823  14.378  11.463  0.00  0.00    -0.192 N 
HETATM   10  C   UNK N   1      36.368  13.672  12.611  0.00  0.00     0.682 A 
HETATM   11  N   UNK N   1      37.188  13.160  13.543  0.00  0.00    -0.200 N 
HETATM   12  N   UNK N   1      35.071  13.390  12.854  0.00  0.00    -0.200 N 
HETATM   13  C   UNK N   1      36.375  12.542  14.423  0.00  0.00     0.123 A 
HETATM   14  H   UNK N   1      38.169  13.221  13.577  0.00  0.00     0.183 HD
HETATM   15  C   UNK N   1      35.067  12.684  13.995  0.00  0.00     0.123 A 
ATOM     16  HN  UNK N   1      34.264  13.658  12.290  1.00  0.00     0.183 HD
HETATM   17  H   UNK N   1      37.782  14.385  11.241  0.00  0.00     0.184 HD
ENDBRANCH   6   9
ENDBRANCH   1   3
BRANCH   1  18
HETATM   18  C   UNK N   1      32.656  17.298   7.279  0.00  0.00     0.032 A 
HETATM   19  C   UNK N   1      31.710  17.503   8.304  0.00  0.00     0.031 A 
HETATM   20  C   UNK N   1      30.351  17.557   8.027  0.00  0.00     0.032 A 
HETATM   21  C   UNK N   1      29.905  17.413   6.720  0.00  0.00     0.049 A 
HETATM   22  C   UNK N   1      30.839  17.187   5.690  0.00  0.00     0.032 A 
HETATM   23  C   UNK N   1      32.210  17.127   5.968  0.00  0.00     0.031 A 
BRANCH  21  24
HETATM   24  N   UNK N   1      28.509  17.423   6.475  0.00  0.00    -0.192 N 
HETATM   25  C   UNK N   1      27.750  18.601   6.273  0.00  0.00     0.682 A 
HETATM   26  N   UNK N   1      26.543  18.597   5.687  0.00  0.00    -0.200 N 
HETATM   27  N   UNK N   1      28.155  19.831   6.633  0.00  0.00    -0.200 N 
HETATM   28  C   UNK N   1      26.166  19.889   5.662  0.00  0.00     0.123 A 
ATOM     29  HN  UNK N   1      26.026  17.791   5.336  1.00  0.00     0.183 HD
HETATM   30  C   UNK N   1      27.160  20.650   6.251  0.00  0.00     0.123 A 
HETATM   31  H   UNK N   1      28.998  20.078   7.078  0.00  0.00     0.183 HD
HETATM   32  H   UNK N   1      28.038  16.560   6.443  0.00  0.00     0.184 HD
ENDBRANCH  21  24
ENDBRANCH   1  18
TORSDOF 4
ENDMDL
MODEL 7
REMARK VINA RESULT:      -7.4      3.085      9.481
REMARK  4 active torsions:
REMARK  status: ('A' for Active; 'I' for Inactive)
REMARK    1  A    between atoms: N_22  and  C_1 
REMARK    2  A    between atoms: C_2  and  N_13 
REMARK    3  A    between atoms: N_13  and  C_9 
REMARK    4  A    between atoms: C_11  and  N_23 
REMARK       I    between atoms: N_23  and  C_14 
REMARK       I    between atoms: N_22  and  C_18 
ROOT
HETATM    1  N   UNK N   1      33.450  17.190   9.436  0.00  0.00    -0.356 N 
HETATM    2  H   UNK N   1      33.105  17.777  10.147  0.00  0.00     0.166 HD
ENDROOT
BRANCH   1   3
HETATM    3  C   UNK N   1      34.470  16.244   9.710  0.00  0.00     0.032 A 
HETATM    4  C   UNK N   1      34.259  14.880   9.473  0.00  0.00     0.031 A 
HETATM    5  C   UNK N   1      35.126  13.936  10.048  0.00  0.00     0.032 A 
HETATM    6  C   UNK N   1      36.183  14.368  10.865  0.00  0.00     0.049 A 
HETATM    7  C   UNK N   1      36.428  15.733  11.017  0.00  0.00     0.032 A 
HETATM    8  C   UNK N   1      35.583  16.659  10.445  0.00  0.00     0.031 A 
BRANCH   6   9
HETATM    9  N   UNK N   1      36.914  13.439  11.648  0.00  0.00    -0.192 N 
HETATM   10  C   UNK N   1      36.609  13.260  13.026  0.00  0.00     0.682 A 
HETATM   11  N   UNK N   1      37.373  12.552  13.873  0.00  0.00    -0.200 N 
HETATM   12  N   UNK N   1      35.489  13.733  13.615  0.00  0.00    -0.200 N 
HETATM   13  C   UNK N   1      36.720  12.591  15.051  0.00  0.00     0.123 A 
HETATM   14  H   UNK N   1      38.225  12.101  13.676  0.00  0.00     0.183 HD
HETATM   15  C   UNK N   1      35.555  13.320  14.889  0.00  0.00     0.123 A 
ATOM     16  HN  UNK N   1      34.750  14.287  13.181  1.00  0.00     0.183 HD
HETATM   17  H   UNK N   1      37.637  12.914  11.235  0.00  0.00     0.184 HD
ENDBRANCH   6   9
ENDBRANCH   1   3
BRANCH   1  18
HETATM   18  C   UNK N   1      32.931  17.274   8.108  0.00  0.00     0.032 A 
HETATM   19  C   UNK N   1      31.542  17.183   7.887  0.00  0.00     0.031 A 
HETATM   20  C   UNK N   1      31.010  17.267   6.608  0.00  0.00     0.032 A 
HETATM   21  C   UNK N   1      31.854  17.450   5.519  0.00  0.00     0.049 A 
HETATM   22  C   UNK N   1      33.246  17.522   5.725  0.00  0.00     0.032 A 
HETATM   23  C   UNK N   1      33.784  17.432   7.015  0.00  0.00     0.031 A 
BRANCH  21  24
HETATM   24  N   UNK N   1      31.287  17.484   4.221  0.00  0.00    -0.192 N 
HETATM   25  C   UNK N   1      30.557  16.416   3.649  0.00  0.00     0.682 A 
HETATM   26  N   UNK N   1      29.726  16.577   2.607  0.00  0.00    -0.200 N 
HETATM   27  N   UNK N   1      30.609  15.145   4.086  0.00  0.00    -0.200 N 
HETATM   28  C   UNK N   1      29.216  15.353   2.377  0.00  0.00     0.123 A 
ATOM     29  HN  UNK N   1      29.524  17.440   2.102  1.00  0.00     0.183 HD
HETATM   30  C   UNK N   1      29.766  14.468   3.288  0.00  0.00     0.123 A 
HETATM   31  H   UNK N   1      31.148  14.790   4.829  0.00  0.00     0.183 HD
HETATM   32  H   UNK N   1      31.408  18.300   3.684  0.00  0.00     0.184 HD
ENDBRANCH  21  24
ENDBRANCH   1  18
TORSDOF 4
ENDMDL
MODEL 8
REMARK VINA RESULT:      -7.3      2.052      3.021
REMARK  4 active torsions:
REMARK  status: ('A' for Active; 'I' for Inactive)
REMARK    1  A    between atoms: N_22  and  C_1 
REMARK    2  A    between atoms: C_2  and  N_13 
REMARK    3  A    between atoms: N_13  and  C_9 
REMARK    4  A    between atoms: C_11  and  N_23 
REMARK       I    between atoms: N_23  and  C_14 
REMARK       I    between atoms: N_22  and  C_18 
ROOT
HETATM    1  N   UNK N   1      34.830  15.207   6.301  0.00  0.00    -0.356 N 
HETATM    2  H   UNK N   1      35.469  14.963   5.592  0.00  0.00     0.166 HD
ENDROOT
BRANCH   1   3
HETATM    3  C   UNK N   1      33.485  15.522   5.983  0.00  0.00     0.032 A 
HETATM    4  C   UNK N   1      33.150  16.785   5.477  0.00  0.00     0.031 A 
HETATM    5  C   UNK N   1      31.807  17.198   5.482  0.00  0.00     0.032 A 
HETATM    6  C   UNK N   1      30.820  16.350   6.007  0.00  0.00     0.049 A 
HETATM    7  C   UNK N   1      31.162  15.063   6.424  0.00  0.00     0.032 A 
HETATM    8  C   UNK N   1      32.478  14.655   6.411  0.00  0.00     0.031 A 
BRANCH   6   9
HETATM    9  N   UNK N   1      29.509  16.834   6.249  0.00  0.00    -0.192 N 
HETATM   10  C   UNK N   1      29.149  17.330   7.533  0.00  0.00     0.682 A 
HETATM   11  N   UNK N   1      27.889  17.621   7.892  0.00  0.00    -0.200 N 
HETATM   12  N   UNK N   1      30.042  17.617   8.504  0.00  0.00    -0.200 N 
HETATM   13  C   UNK N   1      27.984  18.096   9.150  0.00  0.00     0.123 A 
HETATM   14  H   UNK N   1      27.072  17.511   7.355  0.00  0.00     0.183 HD
HETATM   15  C   UNK N   1      29.316  18.095   9.525  0.00  0.00     0.123 A 
ATOM     16  HN  UNK N   1      31.055  17.497   8.468  1.00  0.00     0.183 HD
HETATM   17  H   UNK N   1      28.844  16.826   5.523  0.00  0.00     0.184 HD
ENDBRANCH   6   9
ENDBRANCH   1   3
BRANCH   1  18
HETATM   18  C   UNK N   1      35.240  15.247   7.668  0.00  0.00     0.032 A 
HETATM   19  C   UNK N   1      34.752  16.259   8.520  0.00  0.00     0.031 A 
HETATM   20  C   UNK N   1      35.129  16.318   9.855  0.00  0.00     0.032 A 
HETATM   21  C   UNK N   1      35.998  15.365  10.371  0.00  0.00     0.049 A 
HETATM   22  C   UNK N   1      36.508  14.361   9.524  0.00  0.00     0.032 A 
HETATM   23  C   UNK N   1      36.132  14.303   8.176  0.00  0.00     0.031 A 
BRANCH  21  24
HETATM   24  N   UNK N   1      36.403  15.480  11.724  0.00  0.00    -0.192 N 
HETATM   25  C   UNK N   1      36.104  14.523  12.723  0.00  0.00     0.682 A 
HETATM   26  N   UNK N   1      36.781  14.440  13.878  0.00  0.00    -0.200 N 
HETATM   27  N   UNK N   1      35.130  13.603  12.619  0.00  0.00    -0.200 N 
HETATM   28  C   UNK N   1      36.219  13.411  14.537  0.00  0.00     0.123 A 
ATOM     29  HN  UNK N   1      37.555  15.029  14.187  1.00  0.00     0.183 HD
HETATM   30  C   UNK N   1      35.195  12.896  13.761  0.00  0.00     0.123 A 
HETATM   31  H   UNK N   1      34.505  13.474  11.870  0.00  0.00     0.183 HD
HETATM   32  H   UNK N   1      36.924  16.272  11.985  0.00  0.00     0.184 HD
ENDBRANCH  21  24
ENDBRANCH   1  18
TORSDOF 4
ENDMDL
MODEL 9
REMARK VINA RESULT:      -7.2      2.254      2.849
REMARK  4 active torsions:
REMARK  status: ('A' for Active; 'I' for Inactive)
REMARK    1  A    between atoms: N_22  and  C_1 
REMARK    2  A    between atoms: C_2  and  N_13 
REMARK    3  A    between atoms: N_13  and  C_9 
REMARK    4  A    between atoms: C_11  and  N_23 
REMARK       I    between atoms: N_23  and  C_14 
REMARK       I    between atoms: N_22  and  C_18 
ROOT
HETATM    1  N   UNK N   1      34.558  15.116   6.727  0.00  0.00    -0.356 N 
HETATM    2  H   UNK N   1      35.052  14.556   6.085  0.00  0.00     0.166 HD
ENDROOT
BRANCH   1   3
HETATM    3  C   UNK N   1      33.384  15.804   6.333  0.00  0.00     0.032 A 
HETATM    4  C   UNK N   1      32.134  15.175   6.399  0.00  0.00     0.031 A 
HETATM    5  C   UNK N   1      31.043  15.729   5.707  0.00  0.00     0.032 A 
HETATM    6  C   UNK N   1      31.221  16.894   4.945  0.00  0.00     0.049 A 
HETATM    7  C   UNK N   1      32.451  17.553   4.963  0.00  0.00     0.032 A 
HETATM    8  C   UNK N   1      33.518  17.015   5.649  0.00  0.00     0.031 A 
BRANCH   6   9
HETATM    9  N   UNK N   1      30.213  17.330   4.049  0.00  0.00    -0.192 N 
HETATM   10  C   UNK N   1      29.009  17.906   4.543  0.00  0.00     0.682 A 
HETATM   11  N   UNK N   1      27.937  18.161   3.777  0.00  0.00    -0.200 N 
HETATM   12  N   UNK N   1      28.840  18.311   5.820  0.00  0.00    -0.200 N 
HETATM   13  C   UNK N   1      27.043  18.736   4.606  0.00  0.00     0.123 A 
HETATM   14  H   UNK N   1      27.826  17.970   2.818  0.00  0.00     0.183 HD
HETATM   15  C   UNK N   1      27.604  18.830   5.867  0.00  0.00     0.123 A 
ATOM     16  HN  UNK N   1      29.510  18.238   6.585  1.00  0.00     0.183 HD
HETATM   17  H   UNK N   1      30.347  17.234   3.079  0.00  0.00     0.184 HD
ENDBRANCH   6   9
ENDBRANCH   1   3
BRANCH   1  18
HETATM   18  C   UNK N   1      35.012  15.249   8.075  0.00  0.00     0.032 A 
HETATM   19  C   UNK N   1      36.032  14.406   8.562  0.00  0.00     0.031 A 
HETATM   20  C   UNK N   1      36.496  14.519   9.865  0.00  0.00     0.032 A 
HETATM   21  C   UNK N   1      35.956  15.479  10.711  0.00  0.00     0.049 A 
HETATM   22  C   UNK N   1      34.922  16.314  10.242  0.00  0.00     0.032 A 
HETATM   23  C   UNK N   1      34.449  16.198   8.929  0.00  0.00     0.031 A 
BRANCH  21  24
HETATM   24  N   UNK N   1      36.415  15.538  12.051  0.00  0.00    -0.192 N 
HETATM   25  C   UNK N   1      36.158  14.539  13.019  0.00  0.00     0.682 A 
HETATM   26  N   UNK N   1      36.881  14.410  14.142  0.00  0.00    -0.200 N 
HETATM   27  N   UNK N   1      35.181  13.620  12.916  0.00  0.00    -0.200 N 
HETATM   28  C   UNK N   1      36.347  13.352  14.779  0.00  0.00     0.123 A 
ATOM     29  HN  UNK N   1      37.666  14.988  14.444  1.00  0.00     0.183 HD
HETATM   30  C   UNK N   1      35.294  12.867  14.024  0.00  0.00     0.123 A 
HETATM   31  H   UNK N   1      34.527  13.522  12.187  0.00  0.00     0.183 HD
HETATM   32  H   UNK N   1      36.945  16.320  12.324  0.00  0.00     0.184 HD
ENDBRANCH  21  24
ENDBRANCH   1  18
TORSDOF 4
ENDMDL
