MODEL 1
REMARK VINA RESULT:      -7.3      0.000      0.000
REMARK  4 active torsions:
REMARK  status: ('A' for Active; 'I' for Inactive)
REMARK    1  A    between atoms: C_7  and  C_9 
REMARK    2  A    between atoms: C_9  and  C_19 
REMARK    3  A    between atoms: C_19  and  C_20 
REMARK    4  A    between atoms: C_20  and  O_21 
ROOT
HETATM    1  C   UNK N   1      37.638  11.262  13.542  0.00  0.00     0.011 A 
HETATM    2  C   UNK N   1      36.821  10.277  16.051  0.00  0.00     0.011 A 
HETATM    3  C   UNK N   1      36.797  12.020  14.365  0.00  0.00    -0.006 A 
HETATM    4  C   UNK N   1      38.075  10.006  13.981  0.00  0.00     0.001 A 
HETATM    5  C   UNK N   1      37.671   9.517  15.234  0.00  0.00     0.001 A 
HETATM    6  C   UNK N   1      36.389  11.530  15.602  0.00  0.00    -0.007 A 
HETATM    7  C   UNK N   1      36.193  13.379  14.045  0.00  0.00     0.152 C 
HETATM    8  C   UNK N   1      35.431  12.470  16.307  0.00  0.00     0.148 C 
HETATM    9  O   UNK N   1      34.773  13.176  14.145  0.00  0.00    -0.218 OA
HETATM   10  C   UNK N   1      34.913  11.928  17.635  0.00  0.00     0.060 C 
HETATM   11  O   UNK N   1      34.361  12.687  15.370  0.00  0.00    -0.218 OA
HETATM   12  C   UNK N   1      36.529  14.316  15.197  0.00  0.00    -0.006 A 
HETATM   13  C   UNK N   1      36.944  15.807  17.519  0.00  0.00     0.001 A 
HETATM   14  C   UNK N   1      37.136  15.574  15.107  0.00  0.00     0.011 A 
HETATM   15  C   UNK N   1      36.123  13.813  16.431  0.00  0.00    -0.007 A 
HETATM   16  C   UNK N   1      36.326  14.550  17.602  0.00  0.00     0.011 A 
HETATM   17  C   UNK N   1      37.343  16.319  16.274  0.00  0.00     0.001 A 
ENDROOT
BRANCH   7  18
HETATM   18  C   UNK N   1      36.616  13.921  12.667  0.00  0.00     0.062 C 
BRANCH  18  19
HETATM   19  C   UNK N   1      35.428  14.613  11.993  0.00  0.00     0.113 C 
BRANCH  19  20
HETATM   20  C   UNK N   1      35.808  15.865  11.287  0.00  0.00     0.139 C 
HETATM   21  O   UNK N   1      36.903  15.951  10.756  0.00  0.00    -0.650 OA
BRANCH  20  22
HETATM   22  O   UNK N   1      34.926  16.875  11.178  0.00  0.00    -0.776 OA
HETATM   23  H   UNK N   1      35.139  17.755  10.939  0.00  0.00     0.167 HD
ENDBRANCH  20  22
ENDBRANCH  19  20
ENDBRANCH  18  19
ENDBRANCH   7  18
TORSDOF 4
ENDMDL
MODEL 2
REMARK VINA RESULT:      -7.2      6.587     10.793
REMARK  4 active torsions:
REMARK  status: ('A' for Active; 'I' for Inactive)
REMARK    1  A    between atoms: C_7  and  C_9 
REMARK    2  A    between atoms: C_9  and  C_19 
REMARK    3  A    between atoms: C_19  and  C_20 
REMARK    4  A    between atoms: C_20  and  O_21 
ROOT
HETATM    1  C   UNK N   1      30.641  18.376   8.877  0.00  0.00     0.011 A 
HETATM    2  C   UNK N   1      28.489  17.132   7.553  0.00  0.00     0.011 A 
HETATM    3  C   UNK N   1      30.874  17.421   7.880  0.00  0.00    -0.006 A 
HETATM    4  C   UNK N   1      29.323  18.712   9.208  0.00  0.00     0.001 A 
HETATM    5  C   UNK N   1      28.249  18.095   8.544  0.00  0.00     0.001 A 
HETATM    6  C   UNK N   1      29.809  16.802   7.231  0.00  0.00    -0.007 A 
HETATM    7  C   UNK N   1      32.226  16.901   7.415  0.00  0.00     0.152 C 
HETATM    8  C   UNK N   1      30.271  15.755   6.237  0.00  0.00     0.148 C 
HETATM    9  O   UNK N   1      32.162  15.481   7.634  0.00  0.00    -0.218 OA
HETATM   10  C   UNK N   1      29.124  15.012   5.559  0.00  0.00     0.060 C 
HETATM   11  O   UNK N   1      31.106  14.862   6.994  0.00  0.00    -0.218 OA
HETATM   12  C   UNK N   1      32.281  17.053   5.901  0.00  0.00    -0.006 A 
HETATM   13  C   UNK N   1      32.103  17.095   3.116  0.00  0.00     0.001 A 
HETATM   14  C   UNK N   1      33.283  17.687   5.156  0.00  0.00     0.011 A 
HETATM   15  C   UNK N   1      31.208  16.438   5.262  0.00  0.00    -0.007 A 
HETATM   16  C   UNK N   1      31.106  16.453   3.866  0.00  0.00     0.011 A 
HETATM   17  C   UNK N   1      33.190  17.706   3.760  0.00  0.00     0.001 A 
ENDROOT
BRANCH   7  18
HETATM   18  C   UNK N   1      33.412  17.559   8.144  0.00  0.00     0.062 C 
BRANCH  18  19
HETATM   19  C   UNK N   1      34.425  16.488   8.559  0.00  0.00     0.113 C 
BRANCH  19  20
HETATM   20  C   UNK N   1      34.799  16.565   9.995  0.00  0.00     0.139 C 
HETATM   21  O   UNK N   1      35.630  17.380  10.360  0.00  0.00    -0.650 OA
BRANCH  20  22
HETATM   22  O   UNK N   1      34.178  15.787  10.899  0.00  0.00    -0.776 OA
HETATM   23  H   UNK N   1      34.056  14.861  10.822  0.00  0.00     0.167 HD
ENDBRANCH  20  22
ENDBRANCH  19  20
ENDBRANCH  18  19
ENDBRANCH   7  18
TORSDOF 4
ENDMDL
MODEL 3
REMARK VINA RESULT:      -7.0      1.687      2.478
REMARK  4 active torsions:
REMARK  status: ('A' for Active; 'I' for Inactive)
REMARK    1  A    between atoms: C_7  and  C_9 
REMARK    2  A    between atoms: C_9  and  C_19 
REMARK    3  A    between atoms: C_19  and  C_20 
REMARK    4  A    between atoms: C_20  and  O_21 
ROOT
HETATM    1  C   UNK N   1      37.948  11.034  14.309  0.00  0.00     0.011 A 
HETATM    2  C   UNK N   1      37.594   8.843  16.042  0.00  0.00     0.011 A 
HETATM    3  C   UNK N   1      36.830  10.964  15.149  0.00  0.00    -0.006 A 
HETATM    4  C   UNK N   1      38.895  10.004  14.342  0.00  0.00     0.001 A 
HETATM    5  C   UNK N   1      38.720   8.913  15.209  0.00  0.00     0.001 A 
HETATM    6  C   UNK N   1      36.653   9.877  16.000  0.00  0.00    -0.007 A 
HETATM    7  C   UNK N   1      35.684  11.961  15.225  0.00  0.00     0.152 C 
HETATM    8  C   UNK N   1      35.352   9.958  16.774  0.00  0.00     0.148 C 
HETATM    9  O   UNK N   1      34.509  11.184  14.933  0.00  0.00    -0.218 OA
HETATM   10  C   UNK N   1      35.098   8.746  17.665  0.00  0.00     0.060 C 
HETATM   11  O   UNK N   1      34.329  10.103  15.773  0.00  0.00    -0.218 OA
HETATM   12  C   UNK N   1      35.523  12.367  16.684  0.00  0.00    -0.006 A 
HETATM   13  C   UNK N   1      35.145  12.759  19.421  0.00  0.00     0.001 A 
HETATM   14  C   UNK N   1      35.494  13.670  17.195  0.00  0.00     0.011 A 
HETATM   15  C   UNK N   1      35.354  11.272  17.528  0.00  0.00    -0.007 A 
HETATM   16  C   UNK N   1      35.165  11.455  18.902  0.00  0.00     0.011 A 
HETATM   17  C   UNK N   1      35.304  13.862  18.568  0.00  0.00     0.001 A 
ENDROOT
BRANCH   7  18
HETATM   18  C   UNK N   1      35.855  13.156  14.268  0.00  0.00     0.062 C 
BRANCH  18  19
HETATM   19  C   UNK N   1      35.058  12.911  12.984  0.00  0.00     0.113 C 
BRANCH  19  20
HETATM   20  C   UNK N   1      35.024  14.094  12.086  0.00  0.00     0.139 C 
HETATM   21  O   UNK N   1      36.048  14.724  11.877  0.00  0.00    -0.650 OA
BRANCH  20  22
HETATM   22  O   UNK N   1      33.886  14.433  11.453  0.00  0.00    -0.776 OA
HETATM   23  H   UNK N   1      33.343  15.164  11.672  0.00  0.00     0.167 HD
ENDBRANCH  20  22
ENDBRANCH  19  20
ENDBRANCH  18  19
ENDBRANCH   7  18
TORSDOF 4
ENDMDL
MODEL 4
REMARK VINA RESULT:      -7.0      8.469     10.962
REMARK  4 active torsions:
REMARK  status: ('A' for Active; 'I' for Inactive)
REMARK    1  A    between atoms: C_7  and  C_9 
REMARK    2  A    between atoms: C_9  and  C_19 
REMARK    3  A    between atoms: C_19  and  C_20 
REMARK    4  A    between atoms: C_20  and  O_21 
ROOT
HETATM    1  C   UNK N   1      31.715  14.159   5.720  0.00  0.00     0.011 A 
HETATM    2  C   UNK N   1      29.331  14.701   4.323  0.00  0.00     0.011 A 
HETATM    3  C   UNK N   1      31.154  15.441   5.740  0.00  0.00    -0.006 A 
HETATM    4  C   UNK N   1      31.075  13.142   5.002  0.00  0.00     0.001 A 
HETATM    5  C   UNK N   1      29.884  13.411   4.308  0.00  0.00     0.001 A 
HETATM    6  C   UNK N   1      29.979  15.709   5.043  0.00  0.00    -0.007 A 
HETATM    7  C   UNK N   1      31.722  16.674   6.428  0.00  0.00     0.152 C 
HETATM    8  C   UNK N   1      29.575  17.167   5.136  0.00  0.00     0.148 C 
HETATM    9  O   UNK N   1      31.883  17.635   5.371  0.00  0.00    -0.218 OA
HETATM   10  C   UNK N   1      28.328  17.505   4.325  0.00  0.00     0.060 C 
HETATM   11  O   UNK N   1      30.721  17.904   4.674  0.00  0.00    -0.218 OA
HETATM   12  C   UNK N   1      30.625  17.254   7.311  0.00  0.00    -0.006 A 
HETATM   13  C   UNK N   1      28.428  18.374   8.617  0.00  0.00     0.001 A 
HETATM   14  C   UNK N   1      30.719  17.563   8.673  0.00  0.00     0.011 A 
HETATM   15  C   UNK N   1      29.452  17.511   6.606  0.00  0.00    -0.007 A 
HETATM   16  C   UNK N   1      28.343  18.071   7.250  0.00  0.00     0.011 A 
HETATM   17  C   UNK N   1      29.615  18.124   9.325  0.00  0.00     0.001 A 
ENDROOT
BRANCH   7  18
HETATM   18  C   UNK N   1      33.036  16.396   7.180  0.00  0.00     0.062 C 
BRANCH  18  19
HETATM   19  C   UNK N   1      33.975  17.599   7.048  0.00  0.00     0.113 C 
BRANCH  19  20
HETATM   20  C   UNK N   1      34.495  18.078   8.355  0.00  0.00     0.139 C 
HETATM   21  O   UNK N   1      35.182  19.084   8.400  0.00  0.00    -0.650 OA
BRANCH  20  22
HETATM   22  O   UNK N   1      34.156  17.443   9.492  0.00  0.00    -0.776 OA
HETATM   23  H   UNK N   1      34.033  17.855  10.325  0.00  0.00     0.167 HD
ENDBRANCH  20  22
ENDBRANCH  19  20
ENDBRANCH  18  19
ENDBRANCH   7  18
TORSDOF 4
ENDMDL
MODEL 5
REMARK VINA RESULT:      -6.9     10.096     13.073
REMARK  4 active torsions:
REMARK  status: ('A' for Active; 'I' for Inactive)
REMARK    1  A    between atoms: C_7  and  C_9 
REMARK    2  A    between atoms: C_9  and  C_19 
REMARK    3  A    between atoms: C_19  and  C_20 
REMARK    4  A    between atoms: C_20  and  O_21 
ROOT
HETATM    1  C   UNK N   1      31.184  16.831   5.211  0.00  0.00     0.011 A 
HETATM    2  C   UNK N   1      30.963  17.525   7.931  0.00  0.00     0.011 A 
HETATM    3  C   UNK N   1      29.949  17.208   5.752  0.00  0.00    -0.006 A 
HETATM    4  C   UNK N   1      32.314  16.808   6.036  0.00  0.00     0.001 A 
HETATM    5  C   UNK N   1      32.205  17.158   7.392  0.00  0.00     0.001 A 
HETATM    6  C   UNK N   1      29.840  17.544   7.098  0.00  0.00    -0.007 A 
HETATM    7  C   UNK N   1      28.612  17.254   5.026  0.00  0.00     0.152 C 
HETATM    8  C   UNK N   1      28.412  17.856   7.500  0.00  0.00     0.148 C 
HETATM    9  O   UNK N   1      27.763  16.369   5.776  0.00  0.00    -0.218 OA
HETATM   10  C   UNK N   1      28.251  18.162   8.986  0.00  0.00     0.060 C 
HETATM   11  O   UNK N   1      27.652  16.697   7.113  0.00  0.00    -0.218 OA
HETATM   12  C   UNK N   1      28.017  18.638   5.247  0.00  0.00    -0.006 A 
HETATM   13  C   UNK N   1      26.916  21.086   6.010  0.00  0.00     0.001 A 
HETATM   14  C   UNK N   1      27.555  19.521   4.264  0.00  0.00     0.011 A 
HETATM   15  C   UNK N   1      27.920  18.968   6.597  0.00  0.00    -0.007 A 
HETATM   16  C   UNK N   1      27.370  20.193   6.992  0.00  0.00     0.011 A 
HETATM   17  C   UNK N   1      27.004  20.748   4.651  0.00  0.00     0.001 A 
ENDROOT
BRANCH   7  18
HETATM   18  C   UNK N   1      28.715  16.858   3.542  0.00  0.00     0.062 C 
BRANCH  18  19
HETATM   19  C   UNK N   1      27.853  15.621   3.273  0.00  0.00     0.113 C 
BRANCH  19  20
HETATM   20  C   UNK N   1      26.527  15.952   2.689  0.00  0.00     0.139 C 
HETATM   21  O   UNK N   1      26.250  15.571   1.564  0.00  0.00    -0.650 OA
BRANCH  20  22
HETATM   22  O   UNK N   1      25.610  16.613   3.420  0.00  0.00    -0.776 OA
HETATM   23  H   UNK N   1      24.967  17.200   3.076  0.00  0.00     0.167 HD
ENDBRANCH  20  22
ENDBRANCH  19  20
ENDBRANCH  18  19
ENDBRANCH   7  18
TORSDOF 4
ENDMDL
MODEL 6
REMARK VINA RESULT:      -6.9     20.575     24.518
REMARK  4 active torsions:
REMARK  status: ('A' for Active; 'I' for Inactive)
REMARK    1  A    between atoms: C_7  and  C_9 
REMARK    2  A    between atoms: C_9  and  C_19 
REMARK    3  A    between atoms: C_19  and  C_20 
REMARK    4  A    between atoms: C_20  and  O_21 
ROOT
HETATM    1  C   UNK N   1      30.389  26.453  -3.702  0.00  0.00     0.011 A 
HETATM    2  C   UNK N   1      28.559  28.556  -3.309  0.00  0.00     0.011 A 
HETATM    3  C   UNK N   1      29.025  26.265  -3.952  0.00  0.00    -0.006 A 
HETATM    4  C   UNK N   1      30.839  27.702  -3.259  0.00  0.00     0.001 A 
HETATM    5  C   UNK N   1      29.927  28.753  -3.067  0.00  0.00     0.001 A 
HETATM    6  C   UNK N   1      28.120  27.304  -3.752  0.00  0.00    -0.007 A 
HETATM    7  C   UNK N   1      28.349  24.977  -4.398  0.00  0.00     0.152 C 
HETATM    8  C   UNK N   1      26.689  26.880  -4.013  0.00  0.00     0.148 C 
HETATM    9  O   UNK N   1      27.376  24.707  -3.374  0.00  0.00    -0.218 OA
HETATM   10  C   UNK N   1      25.668  27.978  -3.735  0.00  0.00     0.060 C 
HETATM   11  O   UNK N   1      26.477  25.735  -3.169  0.00  0.00    -0.218 OA
HETATM   12  C   UNK N   1      27.523  25.296  -5.637  0.00  0.00    -0.006 A 
HETATM   13  C   UNK N   1      25.814  26.103  -7.691  0.00  0.00     0.001 A 
HETATM   14  C   UNK N   1      27.568  24.634  -6.870  0.00  0.00     0.011 A 
HETATM   15  C   UNK N   1      26.627  26.342  -5.428  0.00  0.00    -0.007 A 
HETATM   16  C   UNK N   1      25.766  26.756  -6.450  0.00  0.00     0.011 A 
HETATM   17  C   UNK N   1      26.710  25.042  -7.898  0.00  0.00     0.001 A 
ENDROOT
BRANCH   7  18
HETATM   18  C   UNK N   1      29.336  23.813  -4.598  0.00  0.00     0.062 C 
BRANCH  18  19
HETATM   19  C   UNK N   1      29.281  22.872  -3.392  0.00  0.00     0.113 C 
BRANCH  19  20
HETATM   20  C   UNK N   1      30.524  22.895  -2.578  0.00  0.00     0.139 C 
HETATM   21  O   UNK N   1      30.455  23.057  -1.371  0.00  0.00    -0.650 OA
BRANCH  20  22
HETATM   22  O   UNK N   1      31.718  22.673  -3.159  0.00  0.00    -0.776 OA
HETATM   23  H   UNK N   1      32.062  21.831  -3.383  0.00  0.00     0.167 HD
ENDBRANCH  20  22
ENDBRANCH  19  20
ENDBRANCH  18  19
ENDBRANCH   7  18
TORSDOF 4
ENDMDL
MODEL 7
REMARK VINA RESULT:      -6.8     20.976     25.391
REMARK  4 active torsions:
REMARK  status: ('A' for Active; 'I' for Inactive)
REMARK    1  A    between atoms: C_7  and  C_9 
REMARK    2  A    between atoms: C_9  and  C_19 
REMARK    3  A    between atoms: C_19  and  C_20 
REMARK    4  A    between atoms: C_20  and  O_21 
ROOT
HETATM    1  C   UNK N   1      26.243  23.400  -6.411  0.00  0.00     0.011 A 
HETATM    2  C   UNK N   1      26.435  25.251  -8.524  0.00  0.00     0.011 A 
HETATM    3  C   UNK N   1      26.920  24.613  -6.236  0.00  0.00    -0.006 A 
HETATM    4  C   UNK N   1      25.655  23.116  -7.649  0.00  0.00     0.001 A 
HETATM    5  C   UNK N   1      25.747  24.042  -8.702  0.00  0.00     0.001 A 
HETATM    6  C   UNK N   1      27.019  25.524  -7.283  0.00  0.00    -0.007 A 
HETATM    7  C   UNK N   1      27.650  25.076  -4.984  0.00  0.00     0.152 C 
HETATM    8  C   UNK N   1      27.846  26.739  -6.912  0.00  0.00     0.148 C 
HETATM    9  O   UNK N   1      29.000  25.310  -5.420  0.00  0.00    -0.218 OA
HETATM   10  C   UNK N   1      28.030  27.724  -8.062  0.00  0.00     0.060 C 
HETATM   11  O   UNK N   1      29.106  26.212  -6.460  0.00  0.00    -0.218 OA
HETATM   12  C   UNK N   1      27.118  26.456  -4.625  0.00  0.00    -0.006 A 
HETATM   13  C   UNK N   1      26.280  29.097  -4.288  0.00  0.00     0.001 A 
HETATM   14  C   UNK N   1      26.612  26.865  -3.385  0.00  0.00     0.011 A 
HETATM   15  C   UNK N   1      27.214  27.358  -5.681  0.00  0.00    -0.007 A 
HETATM   16  C   UNK N   1      26.797  28.685  -5.526  0.00  0.00     0.011 A 
HETATM   17  C   UNK N   1      26.192  28.190  -3.221  0.00  0.00     0.001 A 
ENDROOT
BRANCH   7  18
HETATM   18  C   UNK N   1      27.570  24.063  -3.826  0.00  0.00     0.062 C 
BRANCH  18  19
HETATM   19  C   UNK N   1      28.974  23.564  -3.475  0.00  0.00     0.113 C 
BRANCH  19  20
HETATM   20  C   UNK N   1      29.111  23.167  -2.049  0.00  0.00     0.139 C 
HETATM   21  O   UNK N   1      28.112  22.938  -1.387  0.00  0.00    -0.650 OA
BRANCH  20  22
HETATM   22  O   UNK N   1      30.331  22.999  -1.507  0.00  0.00    -0.776 OA
HETATM   23  H   UNK N   1      30.991  23.660  -1.446  0.00  0.00     0.167 HD
ENDBRANCH  20  22
ENDBRANCH  19  20
ENDBRANCH  18  19
ENDBRANCH   7  18
TORSDOF 4
ENDMDL
MODEL 8
REMARK VINA RESULT:      -6.8      5.757      9.919
REMARK  4 active torsions:
REMARK  status: ('A' for Active; 'I' for Inactive)
REMARK    1  A    between atoms: C_7  and  C_9 
REMARK    2  A    between atoms: C_9  and  C_19 
REMARK    3  A    between atoms: C_19  and  C_20 
REMARK    4  A    between atoms: C_20  and  O_21 
ROOT
HETATM    1  C   UNK N   1      34.481  14.230   7.273  0.00  0.00     0.011 A 
HETATM    2  C   UNK N   1      34.187  14.576   4.494  0.00  0.00     0.011 A 
HETATM    3  C   UNK N   1      33.911  15.400   6.757  0.00  0.00    -0.006 A 
HETATM    4  C   UNK N   1      34.901  13.227   6.392  0.00  0.00     0.001 A 
HETATM    5  C   UNK N   1      34.750  13.397   5.006  0.00  0.00     0.001 A 
HETATM    6  C   UNK N   1      33.772  15.572   5.383  0.00  0.00    -0.007 A 
HETATM    7  C   UNK N   1      33.435  16.608   7.550  0.00  0.00     0.152 C 
HETATM    8  C   UNK N   1      33.196  16.929   5.028  0.00  0.00     0.148 C 
HETATM    9  O   UNK N   1      34.199  17.708   7.026  0.00  0.00    -0.218 OA
HETATM   10  C   UNK N   1      33.096  17.173   3.526  0.00  0.00     0.060 C 
HETATM   11  O   UNK N   1      34.067  17.883   5.662  0.00  0.00    -0.218 OA
HETATM   12  C   UNK N   1      32.002  16.900   7.129  0.00  0.00    -0.006 A 
HETATM   13  C   UNK N   1      29.512  17.501   6.021  0.00  0.00     0.001 A 
HETATM   14  C   UNK N   1      30.892  17.046   7.970  0.00  0.00     0.011 A 
HETATM   15  C   UNK N   1      31.872  17.063   5.752  0.00  0.00    -0.007 A 
HETATM   16  C   UNK N   1      30.629  17.363   5.184  0.00  0.00     0.011 A 
HETATM   17  C   UNK N   1      29.645  17.347   7.410  0.00  0.00     0.001 A 
ENDROOT
BRANCH   7  18
HETATM   18  C   UNK N   1      33.608  16.440   9.072  0.00  0.00     0.062 C 
BRANCH  18  19
HETATM   19  C   UNK N   1      34.959  17.015   9.507  0.00  0.00     0.113 C 
BRANCH  19  20
HETATM   20  C   UNK N   1      35.563  16.282  10.650  0.00  0.00     0.139 C 
HETATM   21  O   UNK N   1      34.845  15.664  11.419  0.00  0.00    -0.650 OA
BRANCH  20  22
HETATM   22  O   UNK N   1      36.900  16.243  10.800  0.00  0.00    -0.776 OA
HETATM   23  H   UNK N   1      37.434  16.965  11.064  0.00  0.00     0.167 HD
ENDBRANCH  20  22
ENDBRANCH  19  20
ENDBRANCH  18  19
ENDBRANCH   7  18
TORSDOF 4
ENDMDL
MODEL 9
REMARK VINA RESULT:      -6.8     16.660     19.389
REMARK  4 active torsions:
REMARK  status: ('A' for Active; 'I' for Inactive)
REMARK    1  A    between atoms: C_7  and  C_9 
REMARK    2  A    between atoms: C_9  and  C_19 
REMARK    3  A    between atoms: C_19  and  C_20 
REMARK    4  A    between atoms: C_20  and  O_21 
ROOT
HETATM    1  C   UNK N   1      24.384  18.766   4.838  0.00  0.00     0.011 A 
HETATM    2  C   UNK N   1      23.858  20.506   2.687  0.00  0.00     0.011 A 
HETATM    3  C   UNK N   1      23.085  18.905   4.336  0.00  0.00    -0.006 A 
HETATM    4  C   UNK N   1      25.425  19.498   4.255  0.00  0.00     0.001 A 
HETATM    5  C   UNK N   1      25.164  20.363   3.180  0.00  0.00     0.001 A 
HETATM    6  C   UNK N   1      22.825  19.770   3.277  0.00  0.00    -0.007 A 
HETATM    7  C   UNK N   1      21.828  18.227   4.860  0.00  0.00     0.152 C 
HETATM    8  C   UNK N   1      21.351  19.827   2.928  0.00  0.00     0.148 C 
HETATM    9  O   UNK N   1      20.948  19.311   5.203  0.00  0.00    -0.218 OA
HETATM   10  C   UNK N   1      21.027  20.819   1.816  0.00  0.00     0.060 C 
HETATM   11  O   UNK N   1      20.688  20.175   4.157  0.00  0.00    -0.218 OA
HETATM   12  C   UNK N   1      21.150  17.540   3.683  0.00  0.00    -0.006 A 
HETATM   13  C   UNK N   1      19.866  16.618   1.383  0.00  0.00     0.001 A 
HETATM   14  C   UNK N   1      20.750  16.201   3.608  0.00  0.00     0.011 A 
HETATM   15  C   UNK N   1      20.902  18.412   2.626  0.00  0.00    -0.007 A 
HETATM   16  C   UNK N   1      20.260  17.962   1.467  0.00  0.00     0.011 A 
HETATM   17  C   UNK N   1      20.107  15.742   2.452  0.00  0.00     0.001 A 
ENDROOT
BRANCH   7  18
HETATM   18  C   UNK N   1      22.098  17.287   6.050  0.00  0.00     0.062 C 
BRANCH  18  19
HETATM   19  C   UNK N   1      20.941  17.368   7.050  0.00  0.00     0.113 C 
BRANCH  19  20
HETATM   20  C   UNK N   1      20.537  16.041   7.581  0.00  0.00     0.139 C 
HETATM   21  O   UNK N   1      21.026  15.631   8.621  0.00  0.00    -0.650 OA
BRANCH  20  22
HETATM   22  O   UNK N   1      19.588  15.320   6.955  0.00  0.00    -0.776 OA
HETATM   23  H   UNK N   1      19.698  14.877   6.137  0.00  0.00     0.167 HD
ENDBRANCH  20  22
ENDBRANCH  19  20
ENDBRANCH  18  19
ENDBRANCH   7  18
TORSDOF 4
ENDMDL
