REMARK  4 active torsions:
REMARK  status: ('A' for Active; 'I' for Inactive)
REMARK    1  A    between atoms: C_7  and  C_9 
REMARK    2  A    between atoms: C_9  and  C_19 
REMARK    3  A    between atoms: C_19  and  C_20 
REMARK    4  A    between atoms: C_20  and  O_21 
ROOT
HETATM    1  C   UNK N   1       2.315   0.002  -0.068  0.00  0.00     0.011 A 
HETATM    2  C   UNK N   1       1.765   2.681  -0.740  0.00  0.00     0.011 A 
HETATM    3  C   UNK N   1       1.097   0.591   0.292  0.00  0.00    -0.006 A 
HETATM    4  C   UNK N   1       3.259   0.758  -0.773  0.00  0.00     0.001 A 
HETATM    5  C   UNK N   1       2.983   2.093  -1.112  0.00  0.00     0.001 A 
HETATM    6  C   UNK N   1       0.829   1.917  -0.035  0.00  0.00    -0.007 A 
HETATM    7  C   UNK N   1      -0.027  -0.055   1.088  0.00  0.00     0.152 C 
HETATM    8  C   UNK N   1      -0.510   2.383   0.501  0.00  0.00     0.148 C 
HETATM    9  O   UNK N   1      -0.197   0.799   2.232  0.00  0.00    -0.218 OA
HETATM   10  C   UNK N   1      -0.801   3.853   0.217  0.00  0.00     0.060 C 
HETATM   11  O   UNK N   1      -0.461   2.117   1.914  0.00  0.00    -0.218 OA
HETATM   12  C   UNK N   1      -1.312   0.113   0.289  0.00  0.00    -0.006 A 
HETATM   13  C   UNK N   1      -3.620   0.783  -1.130  0.00  0.00     0.001 A 
HETATM   14  C   UNK N   1      -2.212  -0.895  -0.077  0.00  0.00     0.011 A 
HETATM   15  C   UNK N   1      -1.567   1.442  -0.040  0.00  0.00    -0.007 A 
HETATM   16  C   UNK N   1      -2.720   1.791  -0.752  0.00  0.00     0.011 A 
HETATM   17  C   UNK N   1      -3.368  -0.555  -0.789  0.00  0.00     0.001 A 
ENDROOT
BRANCH   7  18
HETATM   18  C   UNK N   1       0.269  -1.515   1.479  0.00  0.00     0.062 C 
BRANCH  18  19
HETATM   19  C   UNK N   1       0.406  -2.373   0.218  0.00  0.00     0.113 C 
BRANCH  19  20
HETATM   20  C   UNK N   1       0.875  -3.754   0.502  0.00  0.00     0.139 C 
HETATM   21  O   UNK N   1       0.172  -4.705   0.203  0.00  0.00    -0.650 OA
BRANCH  20  22
HETATM   22  O   UNK N   1       2.097  -3.960   1.027  0.00  0.00    -0.776 OA
HETATM   23  H   UNK N   1       2.399  -4.768   1.392  0.00  0.00     0.167 HD
ENDBRANCH  20  22
ENDBRANCH  19  20
ENDBRANCH  18  19
ENDBRANCH   7  18
TORSDOF 4
