MODEL 1
REMARK VINA RESULT:      -6.1      0.000      0.000
REMARK  5 active torsions:
REMARK  status: ('A' for Active; 'I' for Inactive)
REMARK    1  A    between atoms: C_1  and  O_2 
REMARK    2  A    between atoms: C_5  and  C_8 
REMARK    3  A    between atoms: N_9  and  O_11 
REMARK    4  A    between atoms: O_11  and  C_12 
REMARK    5  A    between atoms: C_12  and  C_14 
ROOT
HETATM    1  C   UNK N   1      29.380  23.059  -6.837  0.00  0.00     0.126 C 
HETATM    2  N   UNK N   1      28.148  22.976  -7.217  0.00  0.00    -0.268 N 
ATOM      3  HN  UNK N   1      27.925  22.835  -8.202  1.00  0.00     0.194 HD
ENDROOT
BRANCH   2   4
HETATM    4  O   UNK N   1      27.182  23.073  -6.328  0.00  0.00    -0.200 OA
BRANCH   4   5
HETATM    5  C   UNK N   1      26.201  24.011  -6.315  0.00  0.00     0.285 C 
HETATM    6  O   UNK N   1      25.179  23.774  -6.933  0.00  0.00    -0.263 OA
BRANCH   5   7
HETATM    7  C   UNK N   1      26.304  25.345  -5.618  0.00  0.00     0.087 C 
HETATM    8  C   UNK N   1      26.302  25.126  -4.105  0.00  0.00     0.015 C 
HETATM    9  C   UNK N   1      26.623  26.428  -3.384  0.00  0.00     0.001 C 
HETATM   10  C   UNK N   1      25.627  27.515  -3.779  0.00  0.00     0.000 C 
HETATM   11  C   UNK N   1      25.634  27.721  -5.292  0.00  0.00     0.001 C 
HETATM   12  C   UNK N   1      25.287  26.417  -6.003  0.00  0.00     0.015 C 
ENDBRANCH   5   7
ENDBRANCH   4   5
ENDBRANCH   2   4
BRANCH   1  13
HETATM   13  C   UNK N   1      29.744  23.053  -5.401  0.00  0.00    -0.019 A 
HETATM   14  C   UNK N   1      29.790  24.252  -4.682  0.00  0.00     0.015 A 
HETATM   15  C   UNK N   1      30.057  24.234  -3.308  0.00  0.00     0.037 A 
HETATM   16  C   UNK N   1      30.295  23.018  -2.654  0.00  0.00     0.065 A 
HETATM   17  C   UNK N   1      30.282  21.824  -3.373  0.00  0.00     0.037 A 
HETATM   18  C   UNK N   1      30.005  21.842  -4.738  0.00  0.00     0.015 A 
BRANCH  16  19
HETATM   19  O   UNK N   1      30.530  22.999  -1.333  0.00  0.00    -0.361 OA
HETATM   20  H   UNK N   1      29.885  23.286  -0.717  0.00  0.00     0.217 HD
ENDBRANCH  16  19
ENDBRANCH   1  13
TORSDOF 5
ENDMDL
MODEL 2
REMARK VINA RESULT:      -6.0     12.560     14.818
REMARK  5 active torsions:
REMARK  status: ('A' for Active; 'I' for Inactive)
REMARK    1  A    between atoms: C_1  and  O_2 
REMARK    2  A    between atoms: C_5  and  C_8 
REMARK    3  A    between atoms: N_9  and  O_11 
REMARK    4  A    between atoms: O_11  and  C_12 
REMARK    5  A    between atoms: C_12  and  C_14 
ROOT
HETATM    1  C   UNK N   1      31.012  16.659   9.015  0.00  0.00     0.126 C 
HETATM    2  N   UNK N   1      32.268  16.873   8.803  0.00  0.00    -0.268 N 
ATOM      3  HN  UNK N   1      32.970  16.296   9.266  1.00  0.00     0.194 HD
ENDROOT
BRANCH   2   4
HETATM    4  O   UNK N   1      32.640  17.838   7.987  0.00  0.00    -0.200 OA
BRANCH   4   5
HETATM    5  C   UNK N   1      33.457  17.703   6.913  0.00  0.00     0.285 C 
HETATM    6  O   UNK N   1      34.552  18.233   6.961  0.00  0.00    -0.263 OA
BRANCH   5   7
HETATM    7  C   UNK N   1      33.086  16.975   5.644  0.00  0.00     0.087 C 
HETATM    8  C   UNK N   1      34.171  15.949   5.317  0.00  0.00     0.015 C 
HETATM    9  C   UNK N   1      33.719  15.053   4.169  0.00  0.00     0.001 C 
HETATM   10  C   UNK N   1      33.376  15.894   2.942  0.00  0.00     0.000 C 
HETATM   11  C   UNK N   1      32.296  16.919   3.283  0.00  0.00     0.001 C 
HETATM   12  C   UNK N   1      32.768  17.825   4.416  0.00  0.00     0.015 C 
ENDBRANCH   5   7
ENDBRANCH   4   5
ENDBRANCH   2   4
BRANCH   1  13
HETATM   13  C   UNK N   1      29.970  17.333   8.205  0.00  0.00    -0.019 A 
HETATM   14  C   UNK N   1      29.659  16.860   6.926  0.00  0.00     0.015 A 
HETATM   15  C   UNK N   1      28.621  17.450   6.195  0.00  0.00     0.037 A 
HETATM   16  C   UNK N   1      27.903  18.524   6.736  0.00  0.00     0.065 A 
HETATM   17  C   UNK N   1      28.232  19.019   7.997  0.00  0.00     0.037 A 
HETATM   18  C   UNK N   1      29.257  18.424   8.728  0.00  0.00     0.015 A 
BRANCH  16  19
HETATM   19  O   UNK N   1      26.894  19.077   6.045  0.00  0.00    -0.361 OA
HETATM   20  H   UNK N   1      26.297  19.678   6.447  0.00  0.00     0.217 HD
ENDBRANCH  16  19
ENDBRANCH   1  13
TORSDOF 5
ENDMDL
MODEL 3
REMARK VINA RESULT:      -6.0      2.475      4.830
REMARK  5 active torsions:
REMARK  status: ('A' for Active; 'I' for Inactive)
REMARK    1  A    between atoms: C_1  and  O_2 
REMARK    2  A    between atoms: C_5  and  C_8 
REMARK    3  A    between atoms: N_9  and  O_11 
REMARK    4  A    between atoms: O_11  and  C_12 
REMARK    5  A    between atoms: C_12  and  C_14 
ROOT
HETATM    1  C   UNK N   1      26.078  26.234  -8.206  0.00  0.00     0.126 C 
HETATM    2  N   UNK N   1      25.794  24.981  -8.345  0.00  0.00    -0.268 N 
ATOM      3  HN  UNK N   1      25.955  24.517  -9.238  1.00  0.00     0.194 HD
ENDROOT
BRANCH   2   4
HETATM    4  O   UNK N   1      25.297  24.306  -7.330  0.00  0.00    -0.200 OA
BRANCH   4   5
HETATM    5  C   UNK N   1      25.896  23.270  -6.691  0.00  0.00     0.285 C 
HETATM    6  O   UNK N   1      25.552  22.140  -6.990  0.00  0.00    -0.263 OA
BRANCH   5   7
HETATM    7  C   UNK N   1      26.933  23.421  -5.605  0.00  0.00     0.087 C 
HETATM    8  C   UNK N   1      26.344  24.238  -4.455  0.00  0.00     0.015 C 
HETATM    9  C   UNK N   1      27.287  24.221  -3.259  0.00  0.00     0.001 C 
HETATM   10  C   UNK N   1      28.661  24.753  -3.659  0.00  0.00     0.000 C 
HETATM   11  C   UNK N   1      29.237  23.932  -4.811  0.00  0.00     0.001 C 
HETATM   12  C   UNK N   1      28.295  23.977  -6.011  0.00  0.00     0.015 C 
ENDBRANCH   5   7
ENDBRANCH   4   5
ENDBRANCH   2   4
BRANCH   1  13
HETATM   13  C   UNK N   1      26.054  26.884  -6.874  0.00  0.00    -0.019 A 
HETATM   14  C   UNK N   1      27.223  27.436  -6.342  0.00  0.00     0.015 A 
HETATM   15  C   UNK N   1      27.181  28.119  -5.119  0.00  0.00     0.037 A 
HETATM   16  C   UNK N   1      25.972  28.235  -4.421  0.00  0.00     0.065 A 
HETATM   17  C   UNK N   1      24.812  27.657  -4.933  0.00  0.00     0.037 A 
HETATM   18  C   UNK N   1      24.852  26.988  -6.155  0.00  0.00     0.015 A 
BRANCH  16  19
HETATM   19  O   UNK N   1      25.927  28.906  -3.260  0.00  0.00    -0.361 OA
HETATM   20  H   UNK N   1      26.393  28.607  -2.503  0.00  0.00     0.217 HD
ENDBRANCH  16  19
ENDBRANCH   1  13
TORSDOF 5
ENDMDL
MODEL 4
REMARK VINA RESULT:      -5.9      1.777      5.425
REMARK  5 active torsions:
REMARK  status: ('A' for Active; 'I' for Inactive)
REMARK    1  A    between atoms: C_1  and  O_2 
REMARK    2  A    between atoms: C_5  and  C_8 
REMARK    3  A    between atoms: N_9  and  O_11 
REMARK    4  A    between atoms: O_11  and  C_12 
REMARK    5  A    between atoms: C_12  and  C_14 
ROOT
HETATM    1  C   UNK N   1      25.787  23.705  -5.741  0.00  0.00     0.126 C 
HETATM    2  N   UNK N   1      26.724  23.303  -6.534  0.00  0.00    -0.268 N 
ATOM      3  HN  UNK N   1      26.615  22.432  -7.054  1.00  0.00     0.194 HD
ENDROOT
BRANCH   2   4
HETATM    4  O   UNK N   1      27.819  24.020  -6.670  0.00  0.00    -0.200 OA
BRANCH   4   5
HETATM    5  C   UNK N   1      29.075  23.631  -6.335  0.00  0.00     0.285 C 
HETATM    6  O   UNK N   1      29.965  23.818  -7.146  0.00  0.00    -0.263 OA
BRANCH   5   7
HETATM    7  C   UNK N   1      29.441  22.947  -5.040  0.00  0.00     0.087 C 
HETATM    8  C   UNK N   1      29.992  23.983  -4.061  0.00  0.00     0.015 C 
HETATM    9  C   UNK N   1      30.163  23.362  -2.680  0.00  0.00     0.001 C 
HETATM   10  C   UNK N   1      31.077  22.142  -2.755  0.00  0.00     0.000 C 
HETATM   11  C   UNK N   1      30.519  21.117  -3.740  0.00  0.00     0.001 C 
HETATM   12  C   UNK N   1      30.375  21.742  -5.125  0.00  0.00     0.015 C 
ENDBRANCH   5   7
ENDBRANCH   4   5
ENDBRANCH   2   4
BRANCH   1  13
HETATM   13  C   UNK N   1      25.819  25.058  -5.137  0.00  0.00    -0.019 A 
HETATM   14  C   UNK N   1      25.190  26.129  -5.780  0.00  0.00     0.015 A 
HETATM   15  C   UNK N   1      25.155  27.389  -5.168  0.00  0.00     0.037 A 
HETATM   16  C   UNK N   1      25.763  27.581  -3.921  0.00  0.00     0.065 A 
HETATM   17  C   UNK N   1      26.419  26.523  -3.293  0.00  0.00     0.037 A 
HETATM   18  C   UNK N   1      26.443  25.268  -3.896  0.00  0.00     0.015 A 
BRANCH  16  19
HETATM   19  O   UNK N   1      25.712  28.783  -3.325  0.00  0.00    -0.361 OA
HETATM   20  H   UNK N   1      25.661  28.864  -2.393  0.00  0.00     0.217 HD
ENDBRANCH  16  19
ENDBRANCH   1  13
TORSDOF 5
ENDMDL
MODEL 5
REMARK VINA RESULT:      -5.9     26.278     29.289
REMARK  5 active torsions:
REMARK  status: ('A' for Active; 'I' for Inactive)
REMARK    1  A    between atoms: C_1  and  O_2 
REMARK    2  A    between atoms: C_5  and  C_8 
REMARK    3  A    between atoms: N_9  and  O_11 
REMARK    4  A    between atoms: O_11  and  C_12 
REMARK    5  A    between atoms: C_12  and  C_14 
ROOT
HETATM    1  C   UNK N   1      36.082  11.078  20.286  0.00  0.00     0.126 C 
HETATM    2  N   UNK N   1      35.248  10.630  21.166  0.00  0.00    -0.268 N 
ATOM      3  HN  UNK N   1      35.571  10.403  22.106  1.00  0.00     0.194 HD
ENDROOT
BRANCH   2   4
HETATM    4  O   UNK N   1      33.982  10.469  20.845  0.00  0.00    -0.200 OA
BRANCH   4   5
HETATM    5  C   UNK N   1      32.977  10.148  21.699  0.00  0.00     0.285 C 
HETATM    6  O   UNK N   1      32.868  10.802  22.721  0.00  0.00    -0.263 OA
BRANCH   5   7
HETATM    7  C   UNK N   1      32.007   9.011  21.489  0.00  0.00     0.087 C 
HETATM    8  C   UNK N   1      32.578   7.740  22.116  0.00  0.00     0.015 C 
HETATM    9  C   UNK N   1      31.530   6.634  22.110  0.00  0.00     0.001 C 
HETATM   10  C   UNK N   1      31.043   6.369  20.688  0.00  0.00     0.000 C 
HETATM   11  C   UNK N   1      30.481   7.648  20.070  0.00  0.00     0.001 C 
HETATM   12  C   UNK N   1      31.546   8.740  20.058  0.00  0.00     0.015 C 
ENDBRANCH   5   7
ENDBRANCH   4   5
ENDBRANCH   2   4
BRANCH   1  13
HETATM   13  C   UNK N   1      35.613  11.612  18.986  0.00  0.00    -0.019 A 
HETATM   14  C   UNK N   1      35.295  12.968  18.857  0.00  0.00     0.015 A 
HETATM   15  C   UNK N   1      34.929  13.486  17.608  0.00  0.00     0.037 A 
HETATM   16  C   UNK N   1      34.864  12.644  16.491  0.00  0.00     0.065 A 
HETATM   17  C   UNK N   1      35.149  11.285  16.622  0.00  0.00     0.037 A 
HETATM   18  C   UNK N   1      35.525  10.774  17.862  0.00  0.00     0.015 A 
BRANCH  16  19
HETATM   19  O   UNK N   1      34.533  13.143  15.289  0.00  0.00    -0.361 OA
HETATM   20  H   UNK N   1      34.326  12.582  14.567  0.00  0.00     0.217 HD
ENDBRANCH  16  19
ENDBRANCH   1  13
TORSDOF 5
ENDMDL
MODEL 6
REMARK VINA RESULT:      -5.8     14.665     17.702
REMARK  5 active torsions:
REMARK  status: ('A' for Active; 'I' for Inactive)
REMARK    1  A    between atoms: C_1  and  O_2 
REMARK    2  A    between atoms: C_5  and  C_8 
REMARK    3  A    between atoms: N_9  and  O_11 
REMARK    4  A    between atoms: O_11  and  C_12 
REMARK    5  A    between atoms: C_12  and  C_14 
ROOT
HETATM    1  C   UNK N   1      35.379  16.172  11.271  0.00  0.00     0.126 C 
HETATM    2  N   UNK N   1      35.210  17.246  10.573  0.00  0.00    -0.268 N 
ATOM      3  HN  UNK N   1      35.143  18.151  11.038  1.00  0.00     0.194 HD
ENDROOT
BRANCH   2   4
HETATM    4  O   UNK N   1      35.128  17.169   9.262  0.00  0.00    -0.200 OA
BRANCH   4   5
HETATM    5  C   UNK N   1      34.685  18.146   8.431  0.00  0.00     0.285 C 
HETATM    6  O   UNK N   1      35.245  19.226   8.474  0.00  0.00    -0.263 OA
BRANCH   5   7
HETATM    7  C   UNK N   1      33.518  17.999   7.485  0.00  0.00     0.087 C 
HETATM    8  C   UNK N   1      32.373  17.285   8.203  0.00  0.00     0.015 C 
HETATM    9  C   UNK N   1      31.113  17.318   7.347  0.00  0.00     0.001 C 
HETATM   10  C   UNK N   1      31.380  16.686   5.984  0.00  0.00     0.000 C 
HETATM   11  C   UNK N   1      32.529  17.404   5.279  0.00  0.00     0.001 C 
HETATM   12  C   UNK N   1      33.792  17.343   6.134  0.00  0.00     0.015 C 
ENDBRANCH   5   7
ENDBRANCH   4   5
ENDBRANCH   2   4
BRANCH   1  13
HETATM   13  C   UNK N   1      35.689  14.876  10.623  0.00  0.00    -0.019 A 
HETATM   14  C   UNK N   1      37.005  14.568  10.263  0.00  0.00     0.015 A 
HETATM   15  C   UNK N   1      37.307  13.311   9.723  0.00  0.00     0.037 A 
HETATM   16  C   UNK N   1      36.290  12.367   9.529  0.00  0.00     0.065 A 
HETATM   17  C   UNK N   1      34.973  12.683   9.857  0.00  0.00     0.037 A 
HETATM   18  C   UNK N   1      34.675  13.929  10.405  0.00  0.00     0.015 A 
BRANCH  16  19
HETATM   19  O   UNK N   1      36.582  11.156   9.031  0.00  0.00    -0.361 OA
HETATM   20  H   UNK N   1      36.117  10.803   8.297  0.00  0.00     0.217 HD
ENDBRANCH  16  19
ENDBRANCH   1  13
TORSDOF 5
ENDMDL
MODEL 7
REMARK VINA RESULT:      -5.6     10.921     13.204
REMARK  5 active torsions:
REMARK  status: ('A' for Active; 'I' for Inactive)
REMARK    1  A    between atoms: C_1  and  O_2 
REMARK    2  A    between atoms: C_5  and  C_8 
REMARK    3  A    between atoms: N_9  and  O_11 
REMARK    4  A    between atoms: O_11  and  C_12 
REMARK    5  A    between atoms: C_12  and  C_14 
ROOT
HETATM    1  C   UNK N   1      28.497  17.612   8.835  0.00  0.00     0.126 C 
HETATM    2  N   UNK N   1      27.765  18.668   8.709  0.00  0.00    -0.268 N 
ATOM      3  HN  UNK N   1      26.932  18.784   9.286  1.00  0.00     0.194 HD
ENDROOT
BRANCH   2   4
HETATM    4  O   UNK N   1      28.097  19.596   7.836  0.00  0.00    -0.200 OA
BRANCH   4   5
HETATM    5  C   UNK N   1      27.272  20.161   6.920  0.00  0.00     0.285 C 
HETATM    6  O   UNK N   1      26.629  21.138   7.259  0.00  0.00    -0.263 OA
BRANCH   5   7
HETATM    7  C   UNK N   1      27.067  19.640   5.518  0.00  0.00     0.087 C 
HETATM    8  C   UNK N   1      26.004  20.485   4.816  0.00  0.00     0.015 C 
HETATM    9  C   UNK N   1      25.934  20.122   3.338  0.00  0.00     0.001 C 
HETATM   10  C   UNK N   1      25.645  18.632   3.170  0.00  0.00     0.000 C 
HETATM   11  C   UNK N   1      26.710  17.799   3.880  0.00  0.00     0.001 C 
HETATM   12  C   UNK N   1      26.754  18.153   5.364  0.00  0.00     0.015 C 
ENDBRANCH   5   7
ENDBRANCH   4   5
ENDBRANCH   2   4
BRANCH   1  13
HETATM   13  C   UNK N   1      29.818  17.509   8.171  0.00  0.00    -0.019 A 
HETATM   14  C   UNK N   1      29.913  16.998   6.872  0.00  0.00     0.015 A 
HETATM   15  C   UNK N   1      31.151  16.975   6.218  0.00  0.00     0.037 A 
HETATM   16  C   UNK N   1      32.298  17.449   6.868  0.00  0.00     0.065 A 
HETATM   17  C   UNK N   1      32.212  17.929   8.174  0.00  0.00     0.037 A 
HETATM   18  C   UNK N   1      30.978  17.962   8.820  0.00  0.00     0.015 A 
BRANCH  16  19
HETATM   19  O   UNK N   1      33.481  17.446   6.234  0.00  0.00    -0.361 OA
HETATM   20  H   UNK N   1      34.247  17.816   6.628  0.00  0.00     0.217 HD
ENDBRANCH  16  19
ENDBRANCH   1  13
TORSDOF 5
ENDMDL
MODEL 8
REMARK VINA RESULT:      -5.6      2.890      5.732
REMARK  5 active torsions:
REMARK  status: ('A' for Active; 'I' for Inactive)
REMARK    1  A    between atoms: C_1  and  O_2 
REMARK    2  A    between atoms: C_5  and  C_8 
REMARK    3  A    between atoms: N_9  and  O_11 
REMARK    4  A    between atoms: O_11  and  C_12 
REMARK    5  A    between atoms: C_12  and  C_14 
ROOT
HETATM    1  C   UNK N   1      25.557  27.685  -4.843  0.00  0.00     0.126 C 
HETATM    2  N   UNK N   1      25.784  26.951  -3.804  0.00  0.00    -0.268 N 
ATOM      3  HN  UNK N   1      25.139  26.970  -3.015  1.00  0.00     0.194 HD
ENDROOT
BRANCH   2   4
HETATM    4  O   UNK N   1      26.849  26.179  -3.768  0.00  0.00    -0.200 OA
BRANCH   4   5
HETATM    5  C   UNK N   1      26.852  24.826  -3.662  0.00  0.00     0.285 C 
HETATM    6  O   UNK N   1      26.760  24.343  -2.548  0.00  0.00    -0.263 OA
BRANCH   5   7
HETATM    7  C   UNK N   1      26.998  23.878  -4.827  0.00  0.00     0.087 C 
HETATM    8  C   UNK N   1      28.211  24.289  -5.662  0.00  0.00     0.015 C 
HETATM    9  C   UNK N   1      28.511  23.228  -6.713  0.00  0.00     0.001 C 
HETATM   10  C   UNK N   1      27.290  22.999  -7.600  0.00  0.00     0.000 C 
HETATM   11  C   UNK N   1      26.084  22.594  -6.755  0.00  0.00     0.001 C 
HETATM   12  C   UNK N   1      25.778  23.675  -5.722  0.00  0.00     0.015 C 
ENDBRANCH   5   7
ENDBRANCH   4   5
ENDBRANCH   2   4
BRANCH   1  13
HETATM   13  C   UNK N   1      26.351  27.527  -6.084  0.00  0.00    -0.019 A 
HETATM   14  C   UNK N   1      25.921  26.652  -7.087  0.00  0.00     0.015 A 
HETATM   15  C   UNK N   1      26.632  26.564  -8.291  0.00  0.00     0.037 A 
HETATM   16  C   UNK N   1      27.782  27.340  -8.486  0.00  0.00     0.065 A 
HETATM   17  C   UNK N   1      28.231  28.189  -7.476  0.00  0.00     0.037 A 
HETATM   18  C   UNK N   1      27.517  28.284  -6.283  0.00  0.00     0.015 A 
BRANCH  16  19
HETATM   19  O   UNK N   1      28.451  27.271  -9.647  0.00  0.00    -0.361 OA
HETATM   20  H   UNK N   1      28.424  27.972 -10.269  0.00  0.00     0.217 HD
ENDBRANCH  16  19
ENDBRANCH   1  13
TORSDOF 5
ENDMDL
MODEL 9
REMARK VINA RESULT:      -5.6      2.436      4.155
REMARK  5 active torsions:
REMARK  status: ('A' for Active; 'I' for Inactive)
REMARK    1  A    between atoms: C_1  and  O_2 
REMARK    2  A    between atoms: C_5  and  C_8 
REMARK    3  A    between atoms: N_9  and  O_11 
REMARK    4  A    between atoms: O_11  and  C_12 
REMARK    5  A    between atoms: C_12  and  C_14 
ROOT
HETATM    1  C   UNK N   1      29.784  24.209  -3.182  0.00  0.00     0.126 C 
HETATM    2  N   UNK N   1      30.559  25.218  -3.408  0.00  0.00    -0.268 N 
ATOM      3  HN  UNK N   1      31.464  25.281  -2.943  1.00  0.00     0.194 HD
ENDROOT
BRANCH   2   4
HETATM    4  O   UNK N   1      30.177  26.163  -4.241  0.00  0.00    -0.200 OA
BRANCH   4   5
HETATM    5  C   UNK N   1      29.557  27.321  -3.904  0.00  0.00     0.285 C 
HETATM    6  O   UNK N   1      30.098  28.038  -3.081  0.00  0.00    -0.263 OA
BRANCH   5   7
HETATM    7  C   UNK N   1      28.222  27.766  -4.451  0.00  0.00     0.087 C 
HETATM    8  C   UNK N   1      27.164  27.645  -3.355  0.00  0.00     0.015 C 
HETATM    9  C   UNK N   1      25.859  28.288  -3.809  0.00  0.00     0.001 C 
HETATM   10  C   UNK N   1      25.376  27.650  -5.109  0.00  0.00     0.000 C 
HETATM   11  C   UNK N   1      26.444  27.773  -6.193  0.00  0.00     0.001 C 
HETATM   12  C   UNK N   1      27.737  27.103  -5.738  0.00  0.00     0.015 C 
ENDBRANCH   5   7
ENDBRANCH   4   5
ENDBRANCH   2   4
BRANCH   1  13
HETATM   13  C   UNK N   1      28.565  23.980  -3.992  0.00  0.00    -0.019 A 
HETATM   14  C   UNK N   1      27.302  24.248  -3.453  0.00  0.00     0.015 A 
HETATM   15  C   UNK N   1      26.158  24.105  -4.248  0.00  0.00     0.037 A 
HETATM   16  C   UNK N   1      26.274  23.678  -5.577  0.00  0.00     0.065 A 
HETATM   17  C   UNK N   1      27.528  23.380  -6.107  0.00  0.00     0.037 A 
HETATM   18  C   UNK N   1      28.667  23.533  -5.320  0.00  0.00     0.015 A 
BRANCH  16  19
HETATM   19  O   UNK N   1      25.179  23.561  -6.345  0.00  0.00    -0.361 OA
HETATM   20  H   UNK N   1      25.167  23.002  -7.097  0.00  0.00     0.217 HD
ENDBRANCH  16  19
ENDBRANCH   1  13
TORSDOF 5
ENDMDL
