MODEL 1
REMARK VINA RESULT:      -6.3      0.000      0.000
REMARK  5 active torsions:
REMARK  status: ('A' for Active; 'I' for Inactive)
REMARK    1  A    between atoms: O_1  and  C_2 
REMARK    2  A    between atoms: C_6  and  C_9 
REMARK    3  A    between atoms: N_10  and  O_12 
REMARK    4  A    between atoms: O_12  and  C_13 
REMARK    5  A    between atoms: C_13  and  C_15 
ROOT
HETATM    1  C   UNK N   1      30.911  16.770   8.704  0.00  0.00     0.126 C 
HETATM    2  N   UNK N   1      32.131  17.186   8.764  0.00  0.00    -0.268 N 
ATOM      3  HN  UNK N   1      32.747  16.849   9.503  1.00  0.00     0.194 HD
ENDROOT
BRANCH   2   4
HETATM    4  O   UNK N   1      32.585  18.044   7.872  0.00  0.00    -0.200 OA
BRANCH   4   5
HETATM    5  C   UNK N   1      33.497  17.749   6.912  0.00  0.00     0.285 C 
HETATM    6  O   UNK N   1      34.643  18.135   7.066  0.00  0.00    -0.263 OA
BRANCH   5   7
HETATM    7  C   UNK N   1      33.195  16.903   5.702  0.00  0.00     0.087 C 
HETATM    8  C   UNK N   1      32.811  17.785   4.518  0.00  0.00     0.015 C 
HETATM    9  C   UNK N   1      32.313  16.921   3.366  0.00  0.00     0.001 C 
HETATM   10  C   UNK N   1      33.384  15.909   2.966  0.00  0.00     0.000 C 
HETATM   11  C   UNK N   1      33.741  15.018   4.154  0.00  0.00     0.001 C 
HETATM   12  C   UNK N   1      34.246  15.859   5.324  0.00  0.00     0.015 C 
ENDBRANCH   5   7
ENDBRANCH   4   5
ENDBRANCH   2   4
BRANCH   1  13
HETATM   13  C   UNK N   1      29.930  17.385   7.787  0.00  0.00    -0.016 A 
HETATM   14  C   UNK N   1      29.138  18.450   8.226  0.00  0.00     0.058 A 
HETATM   15  C   UNK N   1      28.163  18.994   7.381  0.00  0.00     0.150 A 
HETATM   16  C   UNK N   1      27.995  18.485   6.086  0.00  0.00     0.104 A 
HETATM   17  F   UNK N   1      27.372  20.001   7.826  0.00  0.00    -0.203 F 
HETATM   18  C   UNK N   1      28.800  17.436   5.639  0.00  0.00     0.040 A 
HETATM   19  C   UNK N   1      29.757  16.882   6.489  0.00  0.00     0.016 A 
BRANCH  16  20
HETATM   20  O   UNK N   1      27.058  19.000   5.271  0.00  0.00    -0.358 OA
HETATM   21  H   UNK N   1      26.230  19.294   5.596  0.00  0.00     0.217 HD
ENDBRANCH  16  20
ENDBRANCH   1  13
TORSDOF 5
ENDMDL
MODEL 2
REMARK VINA RESULT:      -6.3     12.363     14.569
REMARK  5 active torsions:
REMARK  status: ('A' for Active; 'I' for Inactive)
REMARK    1  A    between atoms: O_1  and  C_2 
REMARK    2  A    between atoms: C_6  and  C_9 
REMARK    3  A    between atoms: N_10  and  O_12 
REMARK    4  A    between atoms: O_12  and  C_13 
REMARK    5  A    between atoms: C_13  and  C_15 
ROOT
HETATM    1  C   UNK N   1      29.360  23.658  -6.961  0.00  0.00     0.126 C 
HETATM    2  N   UNK N   1      28.130  23.579  -7.343  0.00  0.00    -0.268 N 
ATOM      3  HN  UNK N   1      27.872  23.862  -8.288  1.00  0.00     0.194 HD
ENDROOT
BRANCH   2   4
HETATM    4  O   UNK N   1      27.204  23.134  -6.517  0.00  0.00    -0.200 OA
BRANCH   4   5
HETATM    5  C   UNK N   1      26.161  23.870  -6.058  0.00  0.00     0.285 C 
HETATM    6  O   UNK N   1      25.045  23.382  -6.106  0.00  0.00    -0.263 OA
BRANCH   5   7
HETATM    7  C   UNK N   1      26.311  25.225  -5.416  0.00  0.00     0.087 C 
HETATM    8  C   UNK N   1      25.248  26.184  -5.942  0.00  0.00     0.015 C 
HETATM    9  C   UNK N   1      25.531  27.597  -5.445  0.00  0.00     0.001 C 
HETATM   10  C   UNK N   1      25.577  27.619  -3.920  0.00  0.00     0.000 C 
HETATM   11  C   UNK N   1      26.661  26.673  -3.408  0.00  0.00     0.001 C 
HETATM   12  C   UNK N   1      26.401  25.248  -3.890  0.00  0.00     0.015 C 
ENDBRANCH   5   7
ENDBRANCH   4   5
ENDBRANCH   2   4
BRANCH   1  13
HETATM   13  C   UNK N   1      29.743  23.462  -5.548  0.00  0.00    -0.016 A 
HETATM   14  C   UNK N   1      29.937  22.170  -5.050  0.00  0.00     0.058 A 
HETATM   15  C   UNK N   1      30.239  21.979  -3.696  0.00  0.00     0.150 A 
HETATM   16  C   UNK N   1      30.368  23.083  -2.843  0.00  0.00     0.104 A 
HETATM   17  F   UNK N   1      30.388  20.722  -3.211  0.00  0.00    -0.203 F 
HETATM   18  C   UNK N   1      30.197  24.375  -3.344  0.00  0.00     0.040 A 
HETATM   19  C   UNK N   1      29.877  24.563  -4.689  0.00  0.00     0.016 A 
BRANCH  16  20
HETATM   20  O   UNK N   1      30.653  22.906  -1.543  0.00  0.00    -0.358 OA
HETATM   21  H   UNK N   1      30.089  22.419  -0.975  0.00  0.00     0.217 HD
ENDBRANCH  16  20
ENDBRANCH   1  13
TORSDOF 5
ENDMDL
MODEL 3
REMARK VINA RESULT:      -6.1      4.657      6.960
REMARK  5 active torsions:
REMARK  status: ('A' for Active; 'I' for Inactive)
REMARK    1  A    between atoms: O_1  and  C_2 
REMARK    2  A    between atoms: C_6  and  C_9 
REMARK    3  A    between atoms: N_10  and  O_12 
REMARK    4  A    between atoms: O_12  and  C_13 
REMARK    5  A    between atoms: C_13  and  C_15 
ROOT
HETATM    1  C   UNK N   1      35.004  15.645  10.906  0.00  0.00     0.126 C 
HETATM    2  N   UNK N   1      34.801  16.906  10.719  0.00  0.00    -0.268 N 
ATOM      3  HN  UNK N   1      34.188  17.422  11.349  1.00  0.00     0.194 HD
ENDROOT
BRANCH   2   4
HETATM    4  O   UNK N   1      35.386  17.531   9.716  0.00  0.00    -0.200 OA
BRANCH   4   5
HETATM    5  C   UNK N   1      34.729  18.118   8.684  0.00  0.00     0.285 C 
HETATM    6  O   UNK N   1      35.057  19.245   8.358  0.00  0.00    -0.263 OA
BRANCH   5   7
HETATM    7  C   UNK N   1      33.669  17.427   7.866  0.00  0.00     0.087 C 
HETATM    8  C   UNK N   1      32.279  17.867   8.314  0.00  0.00     0.015 C 
HETATM    9  C   UNK N   1      31.217  17.018   7.624  0.00  0.00     0.001 C 
HETATM   10  C   UNK N   1      31.361  17.125   6.109  0.00  0.00     0.000 C 
HETATM   11  C   UNK N   1      32.748  16.658   5.673  0.00  0.00     0.001 C 
HETATM   12  C   UNK N   1      33.832  17.495   6.347  0.00  0.00     0.015 C 
ENDBRANCH   5   7
ENDBRANCH   4   5
ENDBRANCH   2   4
BRANCH   1  13
HETATM   13  C   UNK N   1      35.708  14.819   9.905  0.00  0.00    -0.016 A 
HETATM   14  C   UNK N   1      37.083  14.597  10.027  0.00  0.00     0.058 A 
HETATM   15  C   UNK N   1      37.765  13.866   9.046  0.00  0.00     0.150 A 
HETATM   16  C   UNK N   1      37.066  13.339   7.952  0.00  0.00     0.104 A 
HETATM   17  F   UNK N   1      39.104  13.687   9.150  0.00  0.00    -0.203 F 
HETATM   18  C   UNK N   1      35.690  13.542   7.840  0.00  0.00     0.040 A 
HETATM   19  C   UNK N   1      35.015  14.287   8.808  0.00  0.00     0.016 A 
BRANCH  16  20
HETATM   20  O   UNK N   1      37.715  12.642   7.005  0.00  0.00    -0.358 OA
HETATM   21  H   UNK N   1      38.540  12.230   7.173  0.00  0.00     0.217 HD
ENDBRANCH  16  20
ENDBRANCH   1  13
TORSDOF 5
ENDMDL
MODEL 4
REMARK VINA RESULT:      -6.0     13.627     15.346
REMARK  5 active torsions:
REMARK  status: ('A' for Active; 'I' for Inactive)
REMARK    1  A    between atoms: O_1  and  C_2 
REMARK    2  A    between atoms: C_6  and  C_9 
REMARK    3  A    between atoms: N_10  and  O_12 
REMARK    4  A    between atoms: O_12  and  C_13 
REMARK    5  A    between atoms: C_13  and  C_15 
ROOT
HETATM    1  C   UNK N   1      26.572  26.704  -7.509  0.00  0.00     0.126 C 
HETATM    2  N   UNK N   1      25.824  25.684  -7.765  0.00  0.00    -0.268 N 
ATOM      3  HN  UNK N   1      25.645  25.415  -8.732  1.00  0.00     0.194 HD
ENDROOT
BRANCH   2   4
HETATM    4  O   UNK N   1      25.292  24.987  -6.781  0.00  0.00    -0.200 OA
BRANCH   4   5
HETATM    5  C   UNK N   1      25.726  23.767  -6.377  0.00  0.00     0.285 C 
HETATM    6  O   UNK N   1      25.336  22.785  -6.984  0.00  0.00    -0.263 OA
BRANCH   5   7
HETATM    7  C   UNK N   1      26.727  23.560  -5.269  0.00  0.00     0.087 C 
HETATM    8  C   UNK N   1      28.148  23.736  -5.796  0.00  0.00     0.015 C 
HETATM    9  C   UNK N   1      29.154  23.328  -4.726  0.00  0.00     0.001 C 
HETATM   10  C   UNK N   1      28.936  24.150  -3.459  0.00  0.00     0.000 C 
HETATM   11  C   UNK N   1      27.518  23.945  -2.930  0.00  0.00     0.001 C 
HETATM   12  C   UNK N   1      26.489  24.350  -3.982  0.00  0.00     0.015 C 
ENDBRANCH   5   7
ENDBRANCH   4   5
ENDBRANCH   2   4
BRANCH   1  13
HETATM   13  C   UNK N   1      26.688  27.253  -6.143  0.00  0.00    -0.016 A 
HETATM   14  C   UNK N   1      27.937  27.312  -5.518  0.00  0.00     0.058 A 
HETATM   15  C   UNK N   1      28.040  27.775  -4.200  0.00  0.00     0.150 A 
HETATM   16  C   UNK N   1      26.894  28.199  -3.514  0.00  0.00     0.104 A 
HETATM   17  F   UNK N   1      29.249  27.793  -3.587  0.00  0.00    -0.203 F 
HETATM   18  C   UNK N   1      25.650  28.162  -4.145  0.00  0.00     0.040 A 
HETATM   19  C   UNK N   1      25.546  27.682  -5.451  0.00  0.00     0.016 A 
BRANCH  16  20
HETATM   20  O   UNK N   1      26.986  28.639  -2.248  0.00  0.00    -0.358 OA
HETATM   21  H   UNK N   1      27.667  28.350  -1.673  0.00  0.00     0.217 HD
ENDBRANCH  16  20
ENDBRANCH   1  13
TORSDOF 5
ENDMDL
MODEL 5
REMARK VINA RESULT:      -5.9     13.786     16.161
REMARK  5 active torsions:
REMARK  status: ('A' for Active; 'I' for Inactive)
REMARK    1  A    between atoms: O_1  and  C_2 
REMARK    2  A    between atoms: C_6  and  C_9 
REMARK    3  A    between atoms: N_10  and  O_12 
REMARK    4  A    between atoms: O_12  and  C_13 
REMARK    5  A    between atoms: C_13  and  C_15 
ROOT
HETATM    1  C   UNK N   1      36.015  10.914  20.311  0.00  0.00     0.126 C 
HETATM    2  N   UNK N   1      35.185  10.408  21.161  0.00  0.00    -0.268 N 
ATOM      3  HN  UNK N   1      35.535   9.892  21.967  1.00  0.00     0.194 HD
ENDROOT
BRANCH   2   4
HETATM    4  O   UNK N   1      33.887  10.559  20.990  0.00  0.00    -0.200 OA
BRANCH   4   5
HETATM    5  C   UNK N   1      32.941  10.160  21.877  0.00  0.00     0.285 C 
HETATM    6  O   UNK N   1      32.748  10.848  22.864  0.00  0.00    -0.263 OA
BRANCH   5   7
HETATM    7  C   UNK N   1      32.058   8.956  21.673  0.00  0.00     0.087 C 
HETATM    8  C   UNK N   1      31.623   8.856  20.214  0.00  0.00     0.015 C 
HETATM    9  C   UNK N   1      30.573   7.762  20.058  0.00  0.00     0.001 C 
HETATM   10  C   UNK N   1      31.126   6.428  20.554  0.00  0.00     0.000 C 
HETATM   11  C   UNK N   1      31.534   6.537  22.022  0.00  0.00     0.001 C 
HETATM   12  C   UNK N   1      32.589   7.625  22.206  0.00  0.00     0.015 C 
ENDBRANCH   5   7
ENDBRANCH   4   5
ENDBRANCH   2   4
BRANCH   1  13
HETATM   13  C   UNK N   1      35.557  11.482  19.028  0.00  0.00    -0.016 A 
HETATM   14  C   UNK N   1      35.347  10.643  17.929  0.00  0.00     0.058 A 
HETATM   15  C   UNK N   1      34.973  11.187  16.693  0.00  0.00     0.150 A 
HETATM   16  C   UNK N   1      34.788  12.570  16.563  0.00  0.00     0.104 A 
HETATM   17  F   UNK N   1      34.808  10.373  15.622  0.00  0.00    -0.203 F 
HETATM   18  C   UNK N   1      34.976  13.406  17.665  0.00  0.00     0.040 A 
HETATM   19  C   UNK N   1      35.368  12.865  18.889  0.00  0.00     0.016 A 
BRANCH  16  20
HETATM   20  O   UNK N   1      34.434  13.098  15.379  0.00  0.00    -0.358 OA
HETATM   21  H   UNK N   1      33.614  12.894  14.973  0.00  0.00     0.217 HD
ENDBRANCH  16  20
ENDBRANCH   1  13
TORSDOF 5
ENDMDL
MODEL 6
REMARK VINA RESULT:      -5.8      8.006     10.210
REMARK  5 active torsions:
REMARK  status: ('A' for Active; 'I' for Inactive)
REMARK    1  A    between atoms: O_1  and  C_2 
REMARK    2  A    between atoms: C_6  and  C_9 
REMARK    3  A    between atoms: N_10  and  O_12 
REMARK    4  A    between atoms: O_12  and  C_13 
REMARK    5  A    between atoms: C_13  and  C_15 
ROOT
HETATM    1  C   UNK N   1      37.158  13.238  11.436  0.00  0.00     0.126 C 
HETATM    2  N   UNK N   1      37.269  12.958  12.691  0.00  0.00    -0.268 N 
ATOM      3  HN  UNK N   1      37.879  12.198  12.990  1.00  0.00     0.194 HD
ENDROOT
BRANCH   2   4
HETATM    4  O   UNK N   1      36.598  13.652  13.588  0.00  0.00    -0.200 OA
BRANCH   4   5
HETATM    5  C   UNK N   1      35.608  13.152  14.369  0.00  0.00     0.285 C 
HETATM    6  O   UNK N   1      34.485  13.078  13.901  0.00  0.00    -0.263 OA
BRANCH   5   7
HETATM    7  C   UNK N   1      35.831  12.605  15.755  0.00  0.00     0.087 C 
HETATM    8  C   UNK N   1      34.835  13.218  16.735  0.00  0.00     0.015 C 
HETATM    9  C   UNK N   1      35.196  12.817  18.161  0.00  0.00     0.001 C 
HETATM   10  C   UNK N   1      35.222  11.297  18.290  0.00  0.00     0.000 C 
HETATM   11  C   UNK N   1      36.240  10.700  17.321  0.00  0.00     0.001 C 
HETATM   12  C   UNK N   1      35.901  11.083  15.883  0.00  0.00     0.015 C 
ENDBRANCH   5   7
ENDBRANCH   4   5
ENDBRANCH   2   4
BRANCH   1  13
HETATM   13  C   UNK N   1      36.134  14.181  10.943  0.00  0.00    -0.016 A 
HETATM   14  C   UNK N   1      34.923  13.697  10.439  0.00  0.00     0.058 A 
HETATM   15  C   UNK N   1      33.977  14.585   9.913  0.00  0.00     0.150 A 
HETATM   16  C   UNK N   1      34.234  15.963   9.911  0.00  0.00     0.104 A 
HETATM   17  F   UNK N   1      32.821  14.106   9.392  0.00  0.00    -0.203 F 
HETATM   18  C   UNK N   1      35.433  16.450  10.433  0.00  0.00     0.040 A 
HETATM   19  C   UNK N   1      36.383  15.562  10.938  0.00  0.00     0.016 A 
BRANCH  16  20
HETATM   20  O   UNK N   1      33.333  16.820   9.403  0.00  0.00    -0.358 OA
HETATM   21  H   UNK N   1      33.300  17.718   9.670  0.00  0.00     0.217 HD
ENDBRANCH  16  20
ENDBRANCH   1  13
TORSDOF 5
ENDMDL
MODEL 7
REMARK VINA RESULT:      -5.7     11.237     12.600
REMARK  5 active torsions:
REMARK  status: ('A' for Active; 'I' for Inactive)
REMARK    1  A    between atoms: O_1  and  C_2 
REMARK    2  A    between atoms: C_6  and  C_9 
REMARK    3  A    between atoms: N_10  and  O_12 
REMARK    4  A    between atoms: O_12  and  C_13 
REMARK    5  A    between atoms: C_13  and  C_15 
ROOT
HETATM    1  C   UNK N   1      30.278  25.932  -4.583  0.00  0.00     0.126 C 
HETATM    2  N   UNK N   1      30.980  25.344  -3.673  0.00  0.00    -0.268 N 
ATOM      3  HN  UNK N   1      31.992  25.462  -3.656  1.00  0.00     0.194 HD
ENDROOT
BRANCH   2   4
HETATM    4  O   UNK N   1      30.392  24.590  -2.766  0.00  0.00    -0.200 OA
BRANCH   4   5
HETATM    5  C   UNK N   1      30.680  23.283  -2.544  0.00  0.00     0.285 C 
HETATM    6  O   UNK N   1      30.422  22.813  -1.449  0.00  0.00    -0.263 OA
BRANCH   5   7
HETATM    7  C   UNK N   1      31.226  22.356  -3.598  0.00  0.00     0.087 C 
HETATM    8  C   UNK N   1      32.463  21.629  -3.079  0.00  0.00     0.015 C 
HETATM    9  C   UNK N   1      33.124  20.852  -4.212  0.00  0.00     0.001 C 
HETATM   10  C   UNK N   1      32.130  19.869  -4.825  0.00  0.00     0.000 C 
HETATM   11  C   UNK N   1      30.910  20.613  -5.362  0.00  0.00     0.001 C 
HETATM   12  C   UNK N   1      30.226  21.398  -4.246  0.00  0.00     0.015 C 
ENDBRANCH   5   7
ENDBRANCH   4   5
ENDBRANCH   2   4
BRANCH   1  13
HETATM   13  C   UNK N   1      28.847  25.623  -4.775  0.00  0.00    -0.016 A 
HETATM   14  C   UNK N   1      27.872  26.478  -4.252  0.00  0.00     0.058 A 
HETATM   15  C   UNK N   1      26.515  26.155  -4.378  0.00  0.00     0.150 A 
HETATM   16  C   UNK N   1      26.132  24.985  -5.048  0.00  0.00     0.104 A 
HETATM   17  F   UNK N   1      25.576  26.969  -3.836  0.00  0.00    -0.203 F 
HETATM   18  C   UNK N   1      27.103  24.141  -5.589  0.00  0.00     0.040 A 
HETATM   19  C   UNK N   1      28.455  24.454  -5.445  0.00  0.00     0.016 A 
BRANCH  16  20
HETATM   20  O   UNK N   1      24.833  24.667  -5.168  0.00  0.00    -0.358 OA
HETATM   21  H   UNK N   1      24.158  25.188  -4.778  0.00  0.00     0.217 HD
ENDBRANCH  16  20
ENDBRANCH   1  13
TORSDOF 5
ENDMDL
MODEL 8
REMARK VINA RESULT:      -5.7      1.363      2.176
REMARK  5 active torsions:
REMARK  status: ('A' for Active; 'I' for Inactive)
REMARK    1  A    between atoms: O_1  and  C_2 
REMARK    2  A    between atoms: C_6  and  C_9 
REMARK    3  A    between atoms: N_10  and  O_12 
REMARK    4  A    between atoms: O_12  and  C_13 
REMARK    5  A    between atoms: C_13  and  C_15 
ROOT
HETATM    1  C   UNK N   1      30.387  17.125   8.880  0.00  0.00     0.126 C 
HETATM    2  N   UNK N   1      31.600  17.517   9.079  0.00  0.00    -0.268 N 
ATOM      3  HN  UNK N   1      32.105  17.206   9.908  1.00  0.00     0.194 HD
ENDROOT
BRANCH   2   4
HETATM    4  O   UNK N   1      32.189  18.318   8.213  0.00  0.00    -0.200 OA
BRANCH   4   5
HETATM    5  C   UNK N   1      33.461  18.168   7.765  0.00  0.00     0.285 C 
HETATM    6  O   UNK N   1      34.367  18.633   8.435  0.00  0.00    -0.263 OA
BRANCH   5   7
HETATM    7  C   UNK N   1      33.827  17.390   6.528  0.00  0.00     0.087 C 
HETATM    8  C   UNK N   1      34.385  16.021   6.905  0.00  0.00     0.015 C 
HETATM    9  C   UNK N   1      34.937  15.325   5.666  0.00  0.00     0.001 C 
HETATM   10  C   UNK N   1      33.847  15.196   4.605  0.00  0.00     0.000 C 
HETATM   11  C   UNK N   1      33.316  16.575   4.220  0.00  0.00     0.001 C 
HETATM   12  C   UNK N   1      32.753  17.294   5.444  0.00  0.00     0.015 C 
ENDBRANCH   5   7
ENDBRANCH   4   5
ENDBRANCH   2   4
BRANCH   1  13
HETATM   13  C   UNK N   1      29.550  17.713   7.814  0.00  0.00    -0.016 A 
HETATM   14  C   UNK N   1      29.610  17.197   6.516  0.00  0.00     0.058 A 
HETATM   15  C   UNK N   1      28.865  17.792   5.490  0.00  0.00     0.150 A 
HETATM   16  C   UNK N   1      28.042  18.892   5.768  0.00  0.00     0.104 A 
HETATM   17  F   UNK N   1      28.957  17.311   4.226  0.00  0.00    -0.203 F 
HETATM   18  C   UNK N   1      27.965  19.394   7.067  0.00  0.00     0.040 A 
HETATM   19  C   UNK N   1      28.722  18.813   8.084  0.00  0.00     0.016 A 
BRANCH  16  20
HETATM   20  O   UNK N   1      27.329  19.470   4.787  0.00  0.00    -0.358 OA
HETATM   21  H   UNK N   1      26.890  18.964   4.131  0.00  0.00     0.217 HD
ENDBRANCH  16  20
ENDBRANCH   1  13
TORSDOF 5
ENDMDL
MODEL 9
REMARK VINA RESULT:      -5.6     11.901     14.089
REMARK  5 active torsions:
REMARK  status: ('A' for Active; 'I' for Inactive)
REMARK    1  A    between atoms: O_1  and  C_2 
REMARK    2  A    between atoms: C_6  and  C_9 
REMARK    3  A    between atoms: N_10  and  O_12 
REMARK    4  A    between atoms: O_12  and  C_13 
REMARK    5  A    between atoms: C_13  and  C_15 
ROOT
HETATM    1  C   UNK N   1      30.389  22.731  -2.479  0.00  0.00     0.126 C 
HETATM    2  N   UNK N   1      29.311  23.420  -2.305  0.00  0.00    -0.268 N 
ATOM      3  HN  UNK N   1      28.919  23.524  -1.370  1.00  0.00     0.194 HD
ENDROOT
BRANCH   2   4
HETATM    4  O   UNK N   1      28.716  23.991  -3.334  0.00  0.00    -0.200 OA
BRANCH   4   5
HETATM    5  C   UNK N   1      27.405  24.339  -3.370  0.00  0.00     0.285 C 
HETATM    6  O   UNK N   1      26.637  23.779  -2.607  0.00  0.00    -0.263 OA
BRANCH   5   7
HETATM    7  C   UNK N   1      26.855  25.436  -4.245  0.00  0.00     0.087 C 
HETATM    8  C   UNK N   1      25.856  24.867  -5.247  0.00  0.00     0.015 C 
HETATM    9  C   UNK N   1      25.460  25.941  -6.254  0.00  0.00     0.001 C 
HETATM   10  C   UNK N   1      24.876  27.151  -5.530  0.00  0.00     0.000 C 
HETATM   11  C   UNK N   1      25.896  27.725  -4.548  0.00  0.00     0.001 C 
HETATM   12  C   UNK N   1      26.308  26.669  -3.525  0.00  0.00     0.015 C 
ENDBRANCH   5   7
ENDBRANCH   4   5
ENDBRANCH   2   4
BRANCH   1  13
HETATM   13  C   UNK N   1      30.872  22.379  -3.829  0.00  0.00    -0.016 A 
HETATM   14  C   UNK N   1      30.338  21.272  -4.495  0.00  0.00     0.058 A 
HETATM   15  C   UNK N   1      30.838  20.898  -5.748  0.00  0.00     0.150 A 
HETATM   16  C   UNK N   1      31.860  21.648  -6.347  0.00  0.00     0.104 A 
HETATM   17  F   UNK N   1      30.343  19.801  -6.371  0.00  0.00    -0.203 F 
HETATM   18  C   UNK N   1      32.379  22.767  -5.694  0.00  0.00     0.040 A 
HETATM   19  C   UNK N   1      31.893  23.125  -4.436  0.00  0.00     0.016 A 
BRANCH  16  20
HETATM   20  O   UNK N   1      32.347  21.292  -7.547  0.00  0.00    -0.358 OA
HETATM   21  H   UNK N   1      31.800  21.240  -8.307  0.00  0.00     0.217 HD
ENDBRANCH  16  20
ENDBRANCH   1  13
TORSDOF 5
ENDMDL
