MODEL 1
REMARK VINA RESULT:      -5.8      0.000      0.000
REMARK  6 active torsions:
REMARK  status: ('A' for Active; 'I' for Inactive)
REMARK    1  A    between atoms: O_1  and  C_2 
REMARK    2  A    between atoms: C_5  and  C_8 
REMARK    3  A    between atoms: N_9  and  O_11 
REMARK    4  A    between atoms: O_11  and  C_12 
REMARK    5  A    between atoms: C_12  and  C_13 
REMARK    6  A    between atoms: C_13  and  C_16 
ROOT
HETATM    1  C   UNK N   1      25.936  24.090  -5.084  0.00  0.00     0.126 C 
HETATM    2  N   UNK N   1      25.174  23.643  -6.021  0.00  0.00    -0.268 N 
ATOM      3  HN  UNK N   1      24.525  24.276  -6.488  1.00  0.00     0.194 HD
ENDROOT
BRANCH   2   4
HETATM    4  O   UNK N   1      25.221  22.371  -6.385  0.00  0.00    -0.200 OA
BRANCH   4   5
HETATM    5  C   UNK N   1      25.126  21.971  -7.682  0.00  0.00     0.281 C 
HETATM    6  O   UNK N   1      24.360  22.531  -8.454  0.00  0.00    -0.263 OA
BRANCH   5   7
HETATM    7  C   UNK N   1      25.958  20.816  -8.158  0.00  0.00     0.121 C 
BRANCH   7   8
HETATM    8  C   UNK N   1      27.325  21.222  -8.726  0.00  0.00    -0.043 C 
HETATM    9  C   UNK N   1      27.321  21.165 -10.243  0.00  0.00     0.015 C 
HETATM   10  C   UNK N   1      28.361  20.242  -8.217  0.00  0.00     0.015 C 
HETATM   11  C   UNK N   1      27.722  22.617  -8.273  0.00  0.00     0.015 C 
ENDBRANCH   7   8
ENDBRANCH   5   7
ENDBRANCH   4   5
ENDBRANCH   2   4
BRANCH   1  12
HETATM   12  C   UNK N   1      25.948  25.503  -4.695  0.00  0.00    -0.019 A 
HETATM   13  C   UNK N   1      25.270  26.425  -5.498  0.00  0.00     0.015 A 
HETATM   14  C   UNK N   1      25.225  27.773  -5.138  0.00  0.00     0.037 A 
HETATM   15  C   UNK N   1      25.856  28.207  -3.970  0.00  0.00     0.065 A 
HETATM   16  C   UNK N   1      26.542  27.291  -3.164  0.00  0.00     0.037 A 
HETATM   17  C   UNK N   1      26.588  25.939  -3.525  0.00  0.00     0.015 A 
BRANCH  15  18
HETATM   18  O   UNK N   1      25.803  29.502  -3.622  0.00  0.00    -0.361 OA
HETATM   19  H   UNK N   1      25.747  29.745  -2.718  0.00  0.00     0.217 HD
ENDBRANCH  15  18
ENDBRANCH   1  12
TORSDOF 6
ENDMDL
MODEL 2
REMARK VINA RESULT:      -5.6      3.922      6.610
REMARK  6 active torsions:
REMARK  status: ('A' for Active; 'I' for Inactive)
REMARK    1  A    between atoms: O_1  and  C_2 
REMARK    2  A    between atoms: C_5  and  C_8 
REMARK    3  A    between atoms: N_9  and  O_11 
REMARK    4  A    between atoms: O_11  and  C_12 
REMARK    5  A    between atoms: C_12  and  C_13 
REMARK    6  A    between atoms: C_13  and  C_16 
ROOT
HETATM    1  C   UNK N   1      28.757  22.985  -5.834  0.00  0.00     0.126 C 
HETATM    2  N   UNK N   1      27.719  23.650  -5.462  0.00  0.00    -0.268 N 
ATOM      3  HN  UNK N   1      27.562  23.825  -4.469  1.00  0.00     0.194 HD
ENDROOT
BRANCH   2   4
HETATM    4  O   UNK N   1      26.853  24.110  -6.351  0.00  0.00    -0.200 OA
BRANCH   4   5
HETATM    5  C   UNK N   1      25.951  25.088  -6.066  0.00  0.00     0.281 C 
HETATM    6  O   UNK N   1      24.928  24.832  -5.446  0.00  0.00    -0.263 OA
BRANCH   5   7
HETATM    7  C   UNK N   1      26.209  26.488  -6.541  0.00  0.00     0.121 C 
BRANCH   7   8
HETATM    8  C   UNK N   1      26.640  27.455  -5.430  0.00  0.00    -0.043 C 
HETATM    9  C   UNK N   1      25.436  27.961  -4.654  0.00  0.00     0.015 C 
HETATM   10  C   UNK N   1      27.324  28.643  -6.072  0.00  0.00     0.015 C 
HETATM   11  C   UNK N   1      27.619  26.799  -4.471  0.00  0.00     0.015 C 
ENDBRANCH   7   8
ENDBRANCH   5   7
ENDBRANCH   4   5
ENDBRANCH   2   4
BRANCH   1  12
HETATM   12  C   UNK N   1      29.764  22.510  -4.879  0.00  0.00    -0.019 A 
HETATM   13  C   UNK N   1      30.159  23.362  -3.845  0.00  0.00     0.015 A 
HETATM   14  C   UNK N   1      31.085  22.930  -2.892  0.00  0.00     0.037 A 
HETATM   15  C   UNK N   1      31.618  21.642  -2.969  0.00  0.00     0.065 A 
HETATM   16  C   UNK N   1      31.231  20.785  -4.006  0.00  0.00     0.037 A 
HETATM   17  C   UNK N   1      30.303  21.217  -4.961  0.00  0.00     0.015 A 
BRANCH  15  18
HETATM   18  O   UNK N   1      32.501  21.227  -2.047  0.00  0.00    -0.361 OA
HETATM   19  H   UNK N   1      32.740  20.322  -1.998  0.00  0.00     0.217 HD
ENDBRANCH  15  18
ENDBRANCH   1  12
TORSDOF 6
ENDMDL
MODEL 3
REMARK VINA RESULT:      -5.6      3.840      6.131
REMARK  6 active torsions:
REMARK  status: ('A' for Active; 'I' for Inactive)
REMARK    1  A    between atoms: O_1  and  C_2 
REMARK    2  A    between atoms: C_5  and  C_8 
REMARK    3  A    between atoms: N_9  and  O_11 
REMARK    4  A    between atoms: O_11  and  C_12 
REMARK    5  A    between atoms: C_12  and  C_13 
REMARK    6  A    between atoms: C_13  and  C_16 
ROOT
HETATM    1  C   UNK N   1      29.039  23.176  -6.085  0.00  0.00     0.126 C 
HETATM    2  N   UNK N   1      27.813  22.803  -6.216  0.00  0.00    -0.268 N 
ATOM      3  HN  UNK N   1      27.426  22.112  -5.573  1.00  0.00     0.194 HD
ENDROOT
BRANCH   2   4
HETATM    4  O   UNK N   1      27.049  23.306  -7.172  0.00  0.00    -0.200 OA
BRANCH   4   5
HETATM    5  C   UNK N   1      25.942  24.055  -6.917  0.00  0.00     0.281 C 
HETATM    6  O   UNK N   1      25.162  24.342  -7.814  0.00  0.00    -0.263 OA
BRANCH   5   7
HETATM    7  C   UNK N   1      25.692  24.547  -5.521  0.00  0.00     0.121 C 
BRANCH   7   8
HETATM    8  C   UNK N   1      26.029  26.029  -5.312  0.00  0.00    -0.043 C 
HETATM    9  C   UNK N   1      27.213  26.443  -6.169  0.00  0.00     0.015 C 
HETATM   10  C   UNK N   1      26.402  26.232  -3.859  0.00  0.00     0.015 C 
HETATM   11  C   UNK N   1      24.840  26.920  -5.631  0.00  0.00     0.015 C 
ENDBRANCH   7   8
ENDBRANCH   5   7
ENDBRANCH   4   5
ENDBRANCH   2   4
BRANCH   1  12
HETATM   12  C   UNK N   1      29.895  22.681  -5.003  0.00  0.00    -0.019 A 
HETATM   13  C   UNK N   1      30.318  21.349  -5.041  0.00  0.00     0.015 A 
HETATM   14  C   UNK N   1      31.168  20.852  -4.049  0.00  0.00     0.037 A 
HETATM   15  C   UNK N   1      31.600  21.687  -3.016  0.00  0.00     0.065 A 
HETATM   16  C   UNK N   1      31.175  23.019  -2.969  0.00  0.00     0.037 A 
HETATM   17  C   UNK N   1      30.324  23.518  -3.962  0.00  0.00     0.015 A 
BRANCH  15  18
HETATM   18  O   UNK N   1      32.424  21.209  -2.070  0.00  0.00    -0.361 OA
HETATM   19  H   UNK N   1      33.283  20.914  -2.300  0.00  0.00     0.217 HD
ENDBRANCH  15  18
ENDBRANCH   1  12
TORSDOF 6
ENDMDL
MODEL 4
REMARK VINA RESULT:      -5.6     19.815     21.235
REMARK  6 active torsions:
REMARK  status: ('A' for Active; 'I' for Inactive)
REMARK    1  A    between atoms: O_1  and  C_2 
REMARK    2  A    between atoms: C_5  and  C_8 
REMARK    3  A    between atoms: N_9  and  O_11 
REMARK    4  A    between atoms: O_11  and  C_12 
REMARK    5  A    between atoms: C_12  and  C_13 
REMARK    6  A    between atoms: C_13  and  C_16 
ROOT
HETATM    1  C   UNK N   1      35.973  15.921  10.831  0.00  0.00     0.126 C 
HETATM    2  N   UNK N   1      35.122  16.873  10.668  0.00  0.00    -0.268 N 
ATOM      3  HN  UNK N   1      34.235  16.848  11.172  1.00  0.00     0.194 HD
ENDROOT
BRANCH   2   4
HETATM    4  O   UNK N   1      35.382  17.884   9.854  0.00  0.00    -0.200 OA
BRANCH   4   5
HETATM    5  C   UNK N   1      34.687  18.106   8.706  0.00  0.00     0.281 C 
HETATM    6  O   UNK N   1      35.070  18.938   7.895  0.00  0.00    -0.263 OA
BRANCH   5   7
HETATM    7  C   UNK N   1      33.426  17.333   8.448  0.00  0.00     0.121 C 
BRANCH   7   8
HETATM    8  C   UNK N   1      33.513  16.377   7.250  0.00  0.00    -0.043 C 
HETATM    9  C   UNK N   1      33.357  17.131   5.941  0.00  0.00     0.015 C 
HETATM   10  C   UNK N   1      32.383  15.376   7.359  0.00  0.00     0.015 C 
HETATM   11  C   UNK N   1      34.828  15.616   7.242  0.00  0.00     0.015 C 
ENDBRANCH   7   8
ENDBRANCH   5   7
ENDBRANCH   4   5
ENDBRANCH   2   4
BRANCH   1  12
HETATM   12  C   UNK N   1      35.740  14.816  11.766  0.00  0.00    -0.019 A 
HETATM   13  C   UNK N   1      35.124  13.655  11.290  0.00  0.00     0.015 A 
HETATM   14  C   UNK N   1      34.921  12.566  12.141  0.00  0.00     0.037 A 
HETATM   15  C   UNK N   1      35.337  12.632  13.473  0.00  0.00     0.065 A 
HETATM   16  C   UNK N   1      35.948  13.794  13.958  0.00  0.00     0.037 A 
HETATM   17  C   UNK N   1      36.152  14.885  13.105  0.00  0.00     0.015 A 
BRANCH  15  18
HETATM   18  O   UNK N   1      35.149  11.580  14.285  0.00  0.00    -0.361 OA
HETATM   19  H   UNK N   1      35.525  11.576  15.144  0.00  0.00     0.217 HD
ENDBRANCH  15  18
ENDBRANCH   1  12
TORSDOF 6
ENDMDL
MODEL 5
REMARK VINA RESULT:      -5.6     17.141     18.574
REMARK  6 active torsions:
REMARK  status: ('A' for Active; 'I' for Inactive)
REMARK    1  A    between atoms: O_1  and  C_2 
REMARK    2  A    between atoms: C_5  and  C_8 
REMARK    3  A    between atoms: N_9  and  O_11 
REMARK    4  A    between atoms: O_11  and  C_12 
REMARK    5  A    between atoms: C_12  and  C_13 
REMARK    6  A    between atoms: C_13  and  C_16 
ROOT
HETATM    1  C   UNK N   1      34.250  17.526   7.644  0.00  0.00     0.126 C 
HETATM    2  N   UNK N   1      33.995  17.540   8.906  0.00  0.00    -0.268 N 
ATOM      3  HN  UNK N   1      33.026  17.529   9.224  1.00  0.00     0.194 HD
ENDROOT
BRANCH   2   4
HETATM    4  O   UNK N   1      34.975  17.569   9.796  0.00  0.00    -0.200 OA
BRANCH   4   5
HETATM    5  C   UNK N   1      35.412  16.458  10.449  0.00  0.00     0.281 C 
HETATM    6  O   UNK N   1      36.581  16.358  10.796  0.00  0.00    -0.263 OA
BRANCH   5   7
HETATM    7  C   UNK N   1      34.451  15.338  10.722  0.00  0.00     0.121 C 
BRANCH   7   8
HETATM    8  C   UNK N   1      34.545  14.176   9.725  0.00  0.00    -0.043 C 
HETATM    9  C   UNK N   1      33.251  14.024   8.945  0.00  0.00     0.015 C 
HETATM   10  C   UNK N   1      34.781  12.899  10.504  0.00  0.00     0.015 C 
HETATM   11  C   UNK N   1      35.699  14.367   8.756  0.00  0.00     0.015 C 
ENDBRANCH   7   8
ENDBRANCH   5   7
ENDBRANCH   4   5
ENDBRANCH   2   4
BRANCH   1  12
HETATM   12  C   UNK N   1      33.191  17.438   6.634  0.00  0.00    -0.019 A 
HETATM   13  C   UNK N   1      31.875  17.234   7.060  0.00  0.00     0.015 A 
HETATM   14  C   UNK N   1      30.834  17.185   6.131  0.00  0.00     0.037 A 
HETATM   15  C   UNK N   1      31.103  17.344   4.770  0.00  0.00     0.065 A 
HETATM   16  C   UNK N   1      32.419  17.543   4.335  0.00  0.00     0.037 A 
HETATM   17  C   UNK N   1      33.463  17.591   5.266  0.00  0.00     0.015 A 
BRANCH  15  18
HETATM   18  O   UNK N   1      30.099  17.306   3.880  0.00  0.00    -0.361 OA
HETATM   19  H   UNK N   1      29.653  18.095   3.640  0.00  0.00     0.217 HD
ENDBRANCH  15  18
ENDBRANCH   1  12
TORSDOF 6
ENDMDL
MODEL 6
REMARK VINA RESULT:      -5.6      1.398      2.099
REMARK  6 active torsions:
REMARK  status: ('A' for Active; 'I' for Inactive)
REMARK    1  A    between atoms: O_1  and  C_2 
REMARK    2  A    between atoms: C_5  and  C_8 
REMARK    3  A    between atoms: N_9  and  O_11 
REMARK    4  A    between atoms: O_11  and  C_12 
REMARK    5  A    between atoms: C_12  and  C_13 
REMARK    6  A    between atoms: C_13  and  C_16 
ROOT
HETATM    1  C   UNK N   1      25.740  24.873  -7.555  0.00  0.00     0.126 C 
HETATM    2  N   UNK N   1      25.165  23.730  -7.704  0.00  0.00    -0.268 N 
ATOM      3  HN  UNK N   1      24.737  23.273  -6.898  1.00  0.00     0.194 HD
ENDROOT
BRANCH   2   4
HETATM    4  O   UNK N   1      25.124  23.140  -8.888  0.00  0.00    -0.200 OA
BRANCH   4   5
HETATM    5  C   UNK N   1      25.634  21.898  -9.112  0.00  0.00     0.281 C 
HETATM    6  O   UNK N   1      25.473  21.343 -10.191  0.00  0.00    -0.263 OA
BRANCH   5   7
HETATM    7  C   UNK N   1      26.382  21.200  -8.015  0.00  0.00     0.121 C 
BRANCH   7   8
HETATM    8  C   UNK N   1      27.900  21.422  -8.053  0.00  0.00    -0.043 C 
HETATM    9  C   UNK N   1      28.643  20.098  -8.046  0.00  0.00     0.015 C 
HETATM   10  C   UNK N   1      28.299  22.196  -6.814  0.00  0.00     0.015 C 
HETATM   11  C   UNK N   1      28.313  22.227  -9.274  0.00  0.00     0.015 C 
ENDBRANCH   7   8
ENDBRANCH   5   7
ENDBRANCH   4   5
ENDBRANCH   2   4
BRANCH   1  12
HETATM   12  C   UNK N   1      25.755  25.579  -6.270  0.00  0.00    -0.019 A 
HETATM   13  C   UNK N   1      26.330  24.944  -5.165  0.00  0.00     0.015 A 
HETATM   14  C   UNK N   1      26.399  25.601  -3.934  0.00  0.00     0.037 A 
HETATM   15  C   UNK N   1      25.896  26.897  -3.804  0.00  0.00     0.065 A 
HETATM   16  C   UNK N   1      25.314  27.536  -4.905  0.00  0.00     0.037 A 
HETATM   17  C   UNK N   1      25.244  26.878  -6.138  0.00  0.00     0.015 A 
BRANCH  15  18
HETATM   18  O   UNK N   1      25.973  27.529  -2.622  0.00  0.00    -0.361 OA
HETATM   19  H   UNK N   1      26.793  27.870  -2.323  0.00  0.00     0.217 HD
ENDBRANCH  15  18
ENDBRANCH   1  12
TORSDOF 6
ENDMDL
MODEL 7
REMARK VINA RESULT:      -5.5     24.893     26.270
REMARK  6 active torsions:
REMARK  status: ('A' for Active; 'I' for Inactive)
REMARK    1  A    between atoms: O_1  and  C_2 
REMARK    2  A    between atoms: C_5  and  C_8 
REMARK    3  A    between atoms: N_9  and  O_11 
REMARK    4  A    between atoms: O_11  and  C_12 
REMARK    5  A    between atoms: C_12  and  C_13 
REMARK    6  A    between atoms: C_13  and  C_16 
ROOT
HETATM    1  C   UNK N   1      35.175  13.133  15.885  0.00  0.00     0.126 C 
HETATM    2  N   UNK N   1      34.735  12.489  14.860  0.00  0.00    -0.268 N 
ATOM      3  HN  UNK N   1      34.466  11.510  14.958  1.00  0.00     0.194 HD
ENDROOT
BRANCH   2   4
HETATM    4  O   UNK N   1      34.628  13.081  13.681  0.00  0.00    -0.200 OA
BRANCH   4   5
HETATM    5  C   UNK N   1      35.704  13.373  12.900  0.00  0.00     0.281 C 
HETATM    6  O   UNK N   1      36.468  12.489  12.535  0.00  0.00    -0.263 OA
BRANCH   5   7
HETATM    7  C   UNK N   1      35.962  14.797  12.505  0.00  0.00     0.121 C 
BRANCH   7   8
HETATM    8  C   UNK N   1      35.650  15.104  11.035  0.00  0.00    -0.043 C 
HETATM    9  C   UNK N   1      36.829  14.752  10.145  0.00  0.00     0.015 C 
HETATM   10  C   UNK N   1      35.385  16.589  10.905  0.00  0.00     0.015 C 
HETATM   11  C   UNK N   1      34.417  14.353  10.560  0.00  0.00     0.015 C 
ENDBRANCH   7   8
ENDBRANCH   5   7
ENDBRANCH   4   5
ENDBRANCH   2   4
BRANCH   1  12
HETATM   12  C   UNK N   1      35.254  12.524  17.216  0.00  0.00    -0.019 A 
HETATM   13  C   UNK N   1      35.160  13.352  18.338  0.00  0.00     0.015 A 
HETATM   14  C   UNK N   1      35.190  12.804  19.622  0.00  0.00     0.037 A 
HETATM   15  C   UNK N   1      35.311  11.423  19.790  0.00  0.00     0.065 A 
HETATM   16  C   UNK N   1      35.412  10.588  18.671  0.00  0.00     0.037 A 
HETATM   17  C   UNK N   1      35.382  11.137  17.384  0.00  0.00     0.015 A 
BRANCH  15  18
HETATM   18  O   UNK N   1      35.331  10.899  21.026  0.00  0.00    -0.361 OA
HETATM   19  H   UNK N   1      34.740  11.216  21.681  0.00  0.00     0.217 HD
ENDBRANCH  15  18
ENDBRANCH   1  12
TORSDOF 6
ENDMDL
MODEL 8
REMARK VINA RESULT:      -5.5     19.222     20.769
REMARK  6 active torsions:
REMARK  status: ('A' for Active; 'I' for Inactive)
REMARK    1  A    between atoms: O_1  and  C_2 
REMARK    2  A    between atoms: C_5  and  C_8 
REMARK    3  A    between atoms: N_9  and  O_11 
REMARK    4  A    between atoms: O_11  and  C_12 
REMARK    5  A    between atoms: C_12  and  C_13 
REMARK    6  A    between atoms: C_13  and  C_16 
ROOT
HETATM    1  C   UNK N   1      35.538  15.955  10.042  0.00  0.00     0.126 C 
HETATM    2  N   UNK N   1      34.902  17.068  10.167  0.00  0.00    -0.268 N 
ATOM      3  HN  UNK N   1      34.324  17.227  10.993  1.00  0.00     0.194 HD
ENDROOT
BRANCH   2   4
HETATM    4  O   UNK N   1      34.989  18.007   9.239  0.00  0.00    -0.200 OA
BRANCH   4   5
HETATM    5  C   UNK N   1      34.186  18.035   8.140  0.00  0.00     0.281 C 
HETATM    6  O   UNK N   1      34.664  17.970   7.016  0.00  0.00    -0.263 OA
BRANCH   5   7
HETATM    7  C   UNK N   1      32.702  18.171   8.316  0.00  0.00     0.121 C 
BRANCH   7   8
HETATM    8  C   UNK N   1      31.892  17.020   7.705  0.00  0.00    -0.043 C 
HETATM    9  C   UNK N   1      32.501  15.676   8.065  0.00  0.00     0.015 C 
HETATM   10  C   UNK N   1      31.922  17.166   6.198  0.00  0.00     0.015 C 
HETATM   11  C   UNK N   1      30.443  17.057   8.161  0.00  0.00     0.015 C 
ENDBRANCH   7   8
ENDBRANCH   5   7
ENDBRANCH   4   5
ENDBRANCH   2   4
BRANCH   1  12
HETATM   12  C   UNK N   1      35.507  14.917  11.078  0.00  0.00    -0.019 A 
HETATM   13  C   UNK N   1      35.997  15.227  12.350  0.00  0.00     0.015 A 
HETATM   14  C   UNK N   1      35.947  14.278  13.374  0.00  0.00     0.037 A 
HETATM   15  C   UNK N   1      35.404  13.014  13.130  0.00  0.00     0.065 A 
HETATM   16  C   UNK N   1      34.918  12.695  11.857  0.00  0.00     0.037 A 
HETATM   17  C   UNK N   1      34.968  13.646  10.831  0.00  0.00     0.015 A 
BRANCH  15  18
HETATM   18  O   UNK N   1      35.350  12.108  14.119  0.00  0.00    -0.361 OA
HETATM   19  H   UNK N   1      36.008  11.443  14.184  0.00  0.00     0.217 HD
ENDBRANCH  15  18
ENDBRANCH   1  12
TORSDOF 6
ENDMDL
MODEL 9
REMARK VINA RESULT:      -5.5     16.846     18.262
REMARK  6 active torsions:
REMARK  status: ('A' for Active; 'I' for Inactive)
REMARK    1  A    between atoms: O_1  and  C_2 
REMARK    2  A    between atoms: C_5  and  C_8 
REMARK    3  A    between atoms: N_9  and  O_11 
REMARK    4  A    between atoms: O_11  and  C_12 
REMARK    5  A    between atoms: C_12  and  C_13 
REMARK    6  A    between atoms: C_13  and  C_16 
ROOT
HETATM    1  C   UNK N   1      20.861  14.674   8.320  0.00  0.00     0.126 C 
HETATM    2  N   UNK N   1      20.632  15.929   8.496  0.00  0.00    -0.268 N 
ATOM      3  HN  UNK N   1      20.756  16.339   9.421  1.00  0.00     0.194 HD
ENDROOT
BRANCH   2   4
HETATM    4  O   UNK N   1      20.235  16.694   7.490  0.00  0.00    -0.200 OA
BRANCH   4   5
HETATM    5  C   UNK N   1      21.033  17.638   6.922  0.00  0.00     0.281 C 
HETATM    6  O   UNK N   1      20.884  18.823   7.188  0.00  0.00    -0.263 OA
BRANCH   5   7
HETATM    7  C   UNK N   1      22.090  17.217   5.943  0.00  0.00     0.121 C 
BRANCH   7   8
HETATM    8  C   UNK N   1      21.676  17.369   4.473  0.00  0.00    -0.043 C 
HETATM    9  C   UNK N   1      22.501  16.458   3.581  0.00  0.00     0.015 C 
HETATM   10  C   UNK N   1      21.930  18.801   4.053  0.00  0.00     0.015 C 
HETATM   11  C   UNK N   1      20.200  17.065   4.278  0.00  0.00     0.015 C 
ENDBRANCH   7   8
ENDBRANCH   5   7
ENDBRANCH   4   5
ENDBRANCH   2   4
BRANCH   1  12
HETATM   12  C   UNK N   1      21.354  13.812   9.399  0.00  0.00    -0.019 A 
HETATM   13  C   UNK N   1      20.428  13.251  10.283  0.00  0.00     0.015 A 
HETATM   14  C   UNK N   1      20.856  12.392  11.298  0.00  0.00     0.037 A 
HETATM   15  C   UNK N   1      22.212  12.088  11.432  0.00  0.00     0.065 A 
HETATM   16  C   UNK N   1      23.145  12.651  10.554  0.00  0.00     0.037 A 
HETATM   17  C   UNK N   1      22.718  13.512   9.536  0.00  0.00     0.015 A 
BRANCH  15  18
HETATM   18  O   UNK N   1      22.619  11.255  12.403  0.00  0.00    -0.361 OA
HETATM   19  H   UNK N   1      22.085  10.526  12.651  0.00  0.00     0.217 HD
ENDBRANCH  15  18
ENDBRANCH   1  12
TORSDOF 6
ENDMDL
