REMARK  6 active torsions:
REMARK  status: ('A' for Active; 'I' for Inactive)
REMARK    1  A    between atoms: O_1  and  C_2 
REMARK    2  A    between atoms: C_5  and  C_8 
REMARK    3  A    between atoms: N_9  and  O_11 
REMARK    4  A    between atoms: O_11  and  C_12 
REMARK    5  A    between atoms: C_12  and  C_13 
REMARK    6  A    between atoms: C_13  and  C_16 
ROOT
HETATM    1  C   UNK N   1      -2.149   2.133   0.421  0.00  0.00     0.126 C 
HETATM    2  N   UNK N   1      -2.154   0.862   0.214  0.00  0.00    -0.268 N 
ATOM      3  HN  UNK N   1      -3.040   0.380   0.062  1.00  0.00     0.194 HD
ENDROOT
BRANCH   2   4
HETATM    4  O   UNK N   1      -1.024   0.173   0.196  0.00  0.00    -0.200 OA
BRANCH   4   5
HETATM    5  C   UNK N   1       0.065   0.559  -0.523  0.00  0.00     0.281 C 
HETATM    6  O   UNK N   1      -0.024   1.443  -1.364  0.00  0.00    -0.263 OA
BRANCH   5   7
HETATM    7  C   UNK N   1       1.380  -0.126  -0.292  0.00  0.00     0.121 C 
BRANCH   7   8
HETATM    8  C   UNK N   1       2.512   0.820   0.130  0.00  0.00    -0.043 C 
HETATM    9  C   UNK N   1       2.902   1.743  -1.011  0.00  0.00     0.015 C 
HETATM   10  C   UNK N   1       3.719  -0.017   0.497  0.00  0.00     0.015 C 
HETATM   11  C   UNK N   1       2.119   1.651   1.340  0.00  0.00     0.015 C 
ENDBRANCH   7   8
ENDBRANCH   5   7
ENDBRANCH   4   5
ENDBRANCH   2   4
BRANCH   1  12
HETATM   12  C   UNK N   1      -3.377   2.934   0.392  0.00  0.00    -0.019 A 
HETATM   13  C   UNK N   1      -3.283   4.311   0.613  0.00  0.00     0.015 A 
HETATM   14  C   UNK N   1      -4.425   5.113   0.553  0.00  0.00     0.037 A 
HETATM   15  C   UNK N   1      -5.667   4.541   0.268  0.00  0.00     0.065 A 
HETATM   16  C   UNK N   1      -5.769   3.162   0.052  0.00  0.00     0.037 A 
HETATM   17  C   UNK N   1      -4.625   2.358   0.112  0.00  0.00     0.015 A 
BRANCH  15  18
HETATM   18  O   UNK N   1      -6.761   5.316   0.202  0.00  0.00    -0.361 OA
HETATM   19  H   UNK N   1      -6.675   6.248   0.155  0.00  0.00     0.217 HD
ENDBRANCH  15  18
ENDBRANCH   1  12
TORSDOF 6
