MODEL 1
REMARK VINA RESULT:      -5.7      0.000      0.000
REMARK  5 active torsions:
REMARK  status: ('A' for Active; 'I' for Inactive)
REMARK    1  A    between atoms: C_3  and  O_4 
REMARK       I    between atoms: C_3  and  N_9 
REMARK    2  A    between atoms: O_4  and  C_5 
REMARK    3  A    between atoms: C_10  and  N_9 
REMARK    4  A    between atoms: C_10  and  C_14 
REMARK    5  A    between atoms: C_10  and  C_11 
ROOT
HETATM    1  C   UNK N   1      19.843  16.134   8.086  0.00  0.00     0.166 C 
ENDROOT
BRANCH   1   2
HETATM    2  N   UNK N   1      20.941  15.488   8.781  0.00  0.00    -0.324 N 
HETATM    3  C   UNK N   1      20.776  14.378   9.544  0.00  0.00     0.362 C 
HETATM    4  O   UNK N   1      19.656  13.920   9.732  0.00  0.00    -0.238 OA
HETATM    5  H   UNK N   1      21.843  15.871   8.694  0.00  0.00     0.165 HD
BRANCH   3   6
HETATM    6  O   UNK N   1      21.867  13.792  10.109  0.00  0.00    -0.294 OA
BRANCH   6   7
HETATM    7  C   UNK N   1      22.637  12.796   9.525  0.00  0.00     0.061 C 
HETATM    8  C   UNK N   1      22.694  11.613  10.469  0.00  0.00     0.046 C 
HETATM    9  C   UNK N   1      22.003  12.336   8.223  0.00  0.00     0.046 C 
HETATM   10  C   UNK N   1      24.062  13.262   9.268  0.00  0.00     0.046 C 
ENDBRANCH   6   7
ENDBRANCH   3   6
ENDBRANCH   1   2
BRANCH   1  11
HETATM   11  C   UNK N   1      19.366  17.310   8.900  0.00  0.00     0.162 A 
HETATM   12  N   UNK N   1      18.134  17.461   9.417  0.00  0.00    -0.280 N 
HETATM   13  N   UNK N   1      18.145  18.602  10.085  0.00  0.00    -0.288 N 
ATOM     14  HN  UNK N   1      17.346  16.822   9.314  1.00  0.00     0.189 HD
HETATM   15  C   UNK N   1      19.383  19.125   9.964  0.00  0.00     0.251 A 
ATOM     16  HN  UNK N   1      17.363  19.011  10.597  1.00  0.00     0.188 HD
HETATM   17  O   UNK N   1      20.125  18.323   9.235  0.00  0.00    -0.288 OA
ENDBRANCH   1  11
BRANCH   1  18
HETATM   18  C   UNK N   1      20.277  16.491   6.647  0.00  0.00     0.008 C 
HETATM   19  C   UNK N   1      21.785  16.623   6.508  0.00  0.00     0.012 C 
HETATM   20  C   UNK N   1      19.739  15.519   5.607  0.00  0.00     0.012 C 
ENDBRANCH   1  18
TORSDOF 5
ENDMDL
MODEL 2
REMARK VINA RESULT:      -5.5     10.332     12.542
REMARK  5 active torsions:
REMARK  status: ('A' for Active; 'I' for Inactive)
REMARK    1  A    between atoms: C_3  and  O_4 
REMARK       I    between atoms: C_3  and  N_9 
REMARK    2  A    between atoms: O_4  and  C_5 
REMARK    3  A    between atoms: C_10  and  N_9 
REMARK    4  A    between atoms: C_10  and  C_14 
REMARK    5  A    between atoms: C_10  and  C_11 
ROOT
HETATM    1  C   UNK N   1      33.299  17.557   7.902  0.00  0.00     0.166 C 
ENDROOT
BRANCH   1   2
HETATM    2  N   UNK N   1      31.952  17.026   7.807  0.00  0.00    -0.324 N 
HETATM    3  C   UNK N   1      30.869  17.675   8.307  0.00  0.00     0.362 C 
HETATM    4  O   UNK N   1      31.010  18.719   8.932  0.00  0.00    -0.238 OA
HETATM    5  H   UNK N   1      31.817  16.160   7.361  0.00  0.00     0.165 HD
BRANCH   3   6
HETATM    6  O   UNK N   1      29.630  17.143   8.120  0.00  0.00    -0.294 OA
BRANCH   6   7
HETATM    7  C   UNK N   1      28.704  17.575   7.181  0.00  0.00     0.061 C 
HETATM    8  C   UNK N   1      29.391  17.680   5.836  0.00  0.00     0.046 C 
HETATM    9  C   UNK N   1      27.569  16.571   7.060  0.00  0.00     0.046 C 
HETATM   10  C   UNK N   1      28.144  18.946   7.532  0.00  0.00     0.046 C 
ENDBRANCH   6   7
ENDBRANCH   3   6
ENDBRANCH   1   2
BRANCH   1  11
HETATM   11  C   UNK N   1      33.960  17.012   9.141  0.00  0.00     0.162 A 
HETATM   12  N   UNK N   1      33.504  15.996   9.894  0.00  0.00    -0.280 N 
HETATM   13  N   UNK N   1      34.393  15.814  10.857  0.00  0.00    -0.288 N 
ATOM     14  HN  UNK N   1      32.643  15.469   9.751  1.00  0.00     0.189 HD
HETATM   15  C   UNK N   1      35.374  16.721  10.672  0.00  0.00     0.251 A 
ATOM     16  HN  UNK N   1      34.345  15.117  11.599  1.00  0.00     0.188 HD
HETATM   17  O   UNK N   1      35.099  17.451   9.616  0.00  0.00    -0.288 OA
ENDBRANCH   1  11
BRANCH   1  18
HETATM   18  C   UNK N   1      34.064  17.268   6.592  0.00  0.00     0.008 C 
HETATM   19  C   UNK N   1      34.619  15.854   6.540  0.00  0.00     0.012 C 
HETATM   20  C   UNK N   1      33.236  17.550   5.347  0.00  0.00     0.012 C 
ENDBRANCH   1  18
TORSDOF 5
ENDMDL
MODEL 3
REMARK VINA RESULT:      -5.4     16.609     17.895
REMARK  5 active torsions:
REMARK  status: ('A' for Active; 'I' for Inactive)
REMARK    1  A    between atoms: C_3  and  O_4 
REMARK       I    between atoms: C_3  and  N_9 
REMARK    2  A    between atoms: O_4  and  C_5 
REMARK    3  A    between atoms: C_10  and  N_9 
REMARK    4  A    between atoms: C_10  and  C_14 
REMARK    5  A    between atoms: C_10  and  C_11 
ROOT
HETATM    1  C   UNK N   1      26.172  25.919  -4.336  0.00  0.00     0.166 C 
ENDROOT
BRANCH   1   2
HETATM    2  N   UNK N   1      27.324  25.063  -4.546  0.00  0.00    -0.324 N 
HETATM    3  C   UNK N   1      27.693  24.097  -3.665  0.00  0.00     0.362 C 
HETATM    4  O   UNK N   1      27.091  23.967  -2.606  0.00  0.00    -0.238 OA
HETATM    5  H   UNK N   1      27.860  25.186  -5.361  0.00  0.00     0.165 HD
BRANCH   3   6
HETATM    6  O   UNK N   1      28.747  23.290  -3.966  0.00  0.00    -0.294 OA
BRANCH   6   7
HETATM    7  C   UNK N   1      30.056  23.489  -3.549  0.00  0.00     0.061 C 
HETATM    8  C   UNK N   1      30.221  22.885  -2.171  0.00  0.00     0.046 C 
HETATM    9  C   UNK N   1      31.021  22.791  -4.494  0.00  0.00     0.046 C 
HETATM   10  C   UNK N   1      30.401  24.968  -3.459  0.00  0.00     0.046 C 
ENDBRANCH   6   7
ENDBRANCH   3   6
ENDBRANCH   1   2
BRANCH   1  11
HETATM   11  C   UNK N   1      26.638  27.258  -3.822  0.00  0.00     0.162 A 
HETATM   12  N   UNK N   1      26.148  27.903  -2.750  0.00  0.00    -0.280 N 
HETATM   13  N   UNK N   1      26.854  29.015  -2.627  0.00  0.00    -0.288 N 
ATOM     14  HN  UNK N   1      25.384  27.595  -2.148  1.00  0.00     0.189 HD
HETATM   15  C   UNK N   1      27.760  29.027  -3.626  0.00  0.00     0.251 A 
ATOM     16  HN  UNK N   1      26.735  29.730  -1.910  1.00  0.00     0.188 HD
HETATM   17  O   UNK N   1      27.619  27.943  -4.354  0.00  0.00    -0.288 OA
ENDBRANCH   1  11
BRANCH   1  18
HETATM   18  C   UNK N   1      25.335  25.991  -5.632  0.00  0.00     0.008 C 
HETATM   19  C   UNK N   1      24.480  27.245  -5.707  0.00  0.00     0.012 C 
HETATM   20  C   UNK N   1      26.179  25.857  -6.891  0.00  0.00     0.012 C 
ENDBRANCH   1  18
TORSDOF 5
ENDMDL
MODEL 4
REMARK VINA RESULT:      -5.3     10.441     12.305
REMARK  5 active torsions:
REMARK  status: ('A' for Active; 'I' for Inactive)
REMARK    1  A    between atoms: C_3  and  O_4 
REMARK       I    between atoms: C_3  and  N_9 
REMARK    2  A    between atoms: O_4  and  C_5 
REMARK    3  A    between atoms: C_10  and  N_9 
REMARK    4  A    between atoms: C_10  and  C_14 
REMARK    5  A    between atoms: C_10  and  C_11 
ROOT
HETATM    1  C   UNK N   1      32.236  16.960   8.028  0.00  0.00     0.166 C 
ENDROOT
BRANCH   1   2
HETATM    2  N   UNK N   1      32.843  16.502   9.265  0.00  0.00    -0.324 N 
HETATM    3  C   UNK N   1      33.001  15.187   9.564  0.00  0.00     0.362 C 
HETATM    4  O   UNK N   1      32.559  14.327   8.812  0.00  0.00    -0.238 OA
HETATM    5  H   UNK N   1      33.154  17.174   9.913  0.00  0.00     0.165 HD
BRANCH   3   6
HETATM    6  O   UNK N   1      33.640  14.840  10.714  0.00  0.00    -0.294 OA
BRANCH   6   7
HETATM    7  C   UNK N   1      35.016  14.820  10.894  0.00  0.00     0.061 C 
HETATM    8  C   UNK N   1      35.472  16.210  11.283  0.00  0.00     0.046 C 
HETATM    9  C   UNK N   1      35.386  13.866  12.018  0.00  0.00     0.046 C 
HETATM   10  C   UNK N   1      35.746  14.424   9.620  0.00  0.00     0.046 C 
ENDBRANCH   6   7
ENDBRANCH   3   6
ENDBRANCH   1   2
BRANCH   1  11
HETATM   11  C   UNK N   1      30.898  17.582   8.334  0.00  0.00     0.162 A 
HETATM   12  N   UNK N   1      30.561  18.202   9.479  0.00  0.00    -0.280 N 
HETATM   13  N   UNK N   1      29.320  18.630   9.322  0.00  0.00    -0.288 N 
ATOM     14  HN  UNK N   1      31.148  18.320  10.304  1.00  0.00     0.189 HD
HETATM   15  C   UNK N   1      28.923  18.263   8.086  0.00  0.00     0.251 A 
ATOM     16  HN  UNK N   1      28.766  19.142  10.008  1.00  0.00     0.188 HD
HETATM   17  O   UNK N   1      29.900  17.621   7.487  0.00  0.00    -0.288 OA
ENDBRANCH   1  11
BRANCH   1  18
HETATM   18  C   UNK N   1      33.216  17.893   7.284  0.00  0.00     0.008 C 
HETATM   19  C   UNK N   1      34.403  18.299   8.142  0.00  0.00     0.012 C 
HETATM   20  C   UNK N   1      33.701  17.312   5.963  0.00  0.00     0.012 C 
ENDBRANCH   1  18
TORSDOF 5
ENDMDL
MODEL 5
REMARK VINA RESULT:      -5.2     13.053     15.835
REMARK  5 active torsions:
REMARK  status: ('A' for Active; 'I' for Inactive)
REMARK    1  A    between atoms: C_3  and  O_4 
REMARK       I    between atoms: C_3  and  N_9 
REMARK    2  A    between atoms: O_4  and  C_5 
REMARK    3  A    between atoms: C_10  and  N_9 
REMARK    4  A    between atoms: C_10  and  C_14 
REMARK    5  A    between atoms: C_10  and  C_11 
ROOT
HETATM    1  C   UNK N   1      36.413  14.653  11.471  0.00  0.00     0.166 C 
ENDROOT
BRANCH   1   2
HETATM    2  N   UNK N   1      35.199  15.142  10.847  0.00  0.00    -0.324 N 
HETATM    3  C   UNK N   1      35.080  16.402  10.355  0.00  0.00     0.362 C 
HETATM    4  O   UNK N   1      35.994  17.205  10.494  0.00  0.00    -0.238 OA
HETATM    5  H   UNK N   1      34.428  14.534  10.775  0.00  0.00     0.165 HD
BRANCH   3   6
HETATM    6  O   UNK N   1      33.930  16.764   9.724  0.00  0.00    -0.294 OA
BRANCH   6   7
HETATM    7  C   UNK N   1      33.723  16.731   8.352  0.00  0.00     0.061 C 
HETATM    8  C   UNK N   1      32.341  16.173   8.085  0.00  0.00     0.046 C 
HETATM    9  C   UNK N   1      33.788  18.136   7.776  0.00  0.00     0.046 C 
HETATM   10  C   UNK N   1      34.735  15.838   7.649  0.00  0.00     0.046 C 
ENDBRANCH   6   7
ENDBRANCH   3   6
ENDBRANCH   1   2
BRANCH   1  11
HETATM   11  C   UNK N   1      36.098  14.189  12.871  0.00  0.00     0.162 A 
HETATM   12  N   UNK N   1      36.802  14.488  13.976  0.00  0.00    -0.280 N 
HETATM   13  N   UNK N   1      36.170  13.917  14.989  0.00  0.00    -0.288 N 
ATOM     14  HN  UNK N   1      37.654  15.046  14.025  1.00  0.00     0.189 HD
HETATM   15  C   UNK N   1      35.094  13.282  14.482  0.00  0.00     0.251 A 
ATOM     16  HN  UNK N   1      36.446  13.952  15.969  1.00  0.00     0.188 HD
HETATM   17  O   UNK N   1      35.058  13.456  13.180  0.00  0.00    -0.288 OA
ENDBRANCH   1  11
BRANCH   1  18
HETATM   18  C   UNK N   1      37.061  13.575  10.574  0.00  0.00     0.008 C 
HETATM   19  C   UNK N   1      37.960  14.169   9.503  0.00  0.00     0.012 C 
HETATM   20  C   UNK N   1      37.819  12.521  11.368  0.00  0.00     0.012 C 
ENDBRANCH   1  18
TORSDOF 5
ENDMDL
MODEL 6
REMARK VINA RESULT:      -5.1      3.992      5.393
REMARK  5 active torsions:
REMARK  status: ('A' for Active; 'I' for Inactive)
REMARK    1  A    between atoms: C_3  and  O_4 
REMARK       I    between atoms: C_3  and  N_9 
REMARK    2  A    between atoms: O_4  and  C_5 
REMARK    3  A    between atoms: C_10  and  N_9 
REMARK    4  A    between atoms: C_10  and  C_14 
REMARK    5  A    between atoms: C_10  and  C_11 
ROOT
HETATM    1  C   UNK N   1      19.779  16.056   3.390  0.00  0.00     0.166 C 
ENDROOT
BRANCH   1   2
HETATM    2  N   UNK N   1      20.094  15.770   4.777  0.00  0.00    -0.324 N 
HETATM    3  C   UNK N   1      19.144  15.669   5.742  0.00  0.00     0.362 C 
HETATM    4  O   UNK N   1      17.970  15.894   5.476  0.00  0.00    -0.238 OA
HETATM    5  H   UNK N   1      21.037  15.643   5.029  0.00  0.00     0.165 HD
BRANCH   3   6
HETATM    6  O   UNK N   1      19.515  15.332   7.008  0.00  0.00    -0.294 OA
BRANCH   6   7
HETATM    7  C   UNK N   1      19.947  16.222   7.982  0.00  0.00     0.061 C 
HETATM    8  C   UNK N   1      18.741  16.722   8.748  0.00  0.00     0.046 C 
HETATM    9  C   UNK N   1      20.875  15.521   8.960  0.00  0.00     0.046 C 
HETATM   10  C   UNK N   1      20.651  17.426   7.375  0.00  0.00     0.046 C 
ENDBRANCH   6   7
ENDBRANCH   3   6
ENDBRANCH   1   2
BRANCH   1  11
HETATM   11  C   UNK N   1      19.842  17.545   3.165  0.00  0.00     0.162 A 
HETATM   12  N   UNK N   1      18.946  18.276   2.481  0.00  0.00    -0.280 N 
HETATM   13  N   UNK N   1      19.353  19.533   2.554  0.00  0.00    -0.288 N 
ATOM     14  HN  UNK N   1      18.116  17.931   2.000  1.00  0.00     0.189 HD
HETATM   15  C   UNK N   1      20.489  19.544   3.282  0.00  0.00     0.251 A 
ATOM     16  HN  UNK N   1      18.893  20.342   2.138  1.00  0.00     0.188 HD
HETATM   17  O   UNK N   1      20.780  18.318   3.653  0.00  0.00    -0.288 OA
ENDBRANCH   1  11
BRANCH   1  18
HETATM   18  C   UNK N   1      20.704  15.232   2.467  0.00  0.00     0.008 C 
HETATM   19  C   UNK N   1      20.638  15.687   1.018  0.00  0.00     0.012 C 
HETATM   20  C   UNK N   1      22.149  15.210   2.943  0.00  0.00     0.012 C 
ENDBRANCH   1  18
TORSDOF 5
ENDMDL
MODEL 7
REMARK VINA RESULT:      -5.1     18.025     19.473
REMARK  5 active torsions:
REMARK  status: ('A' for Active; 'I' for Inactive)
REMARK    1  A    between atoms: C_3  and  O_4 
REMARK       I    between atoms: C_3  and  N_9 
REMARK    2  A    between atoms: O_4  and  C_5 
REMARK    3  A    between atoms: C_10  and  N_9 
REMARK    4  A    between atoms: C_10  and  C_14 
REMARK    5  A    between atoms: C_10  and  C_11 
ROOT
HETATM    1  C   UNK N   1      28.498  29.875  -2.161  0.00  0.00     0.166 C 
ENDROOT
BRANCH   1   2
HETATM    2  N   UNK N   1      27.468  28.947  -2.588  0.00  0.00    -0.324 N 
HETATM    3  C   UNK N   1      26.499  29.283  -3.478  0.00  0.00     0.362 C 
HETATM    4  O   UNK N   1      26.421  30.429  -3.901  0.00  0.00    -0.238 OA
HETATM    5  H   UNK N   1      27.473  28.035  -2.219  0.00  0.00     0.165 HD
BRANCH   3   6
HETATM    6  O   UNK N   1      25.609  28.335  -3.880  0.00  0.00    -0.294 OA
BRANCH   6   7
HETATM    7  C   UNK N   1      25.855  27.351  -4.827  0.00  0.00     0.061 C 
HETATM    8  C   UNK N   1      26.231  26.072  -4.109  0.00  0.00     0.046 C 
HETATM    9  C   UNK N   1      24.604  27.085  -5.648  0.00  0.00     0.046 C 
HETATM   10  C   UNK N   1      27.006  27.729  -5.747  0.00  0.00     0.046 C 
ENDBRANCH   6   7
ENDBRANCH   3   6
ENDBRANCH   1   2
BRANCH   1  11
HETATM   11  C   UNK N   1      28.404  30.065  -0.668  0.00  0.00     0.162 A 
HETATM   12  N   UNK N   1      27.786  29.239   0.193  0.00  0.00    -0.280 N 
HETATM   13  N   UNK N   1      27.969  29.749   1.399  0.00  0.00    -0.288 N 
ATOM     14  HN  UNK N   1      27.277  28.386  -0.038  1.00  0.00     0.189 HD
HETATM   15  C   UNK N   1      28.695  30.876   1.251  0.00  0.00     0.251 A 
ATOM     16  HN  UNK N   1      27.625  29.362   2.278  1.00  0.00     0.188 HD
HETATM   17  O   UNK N   1      28.958  31.061  -0.022  0.00  0.00    -0.288 OA
ENDBRANCH   1  11
BRANCH   1  18
HETATM   18  C   UNK N   1      29.877  29.385  -2.654  0.00  0.00     0.008 C 
HETATM   19  C   UNK N   1      30.422  30.226  -3.797  0.00  0.00     0.012 C 
HETATM   20  C   UNK N   1      30.907  29.289  -1.538  0.00  0.00     0.012 C 
ENDBRANCH   1  18
TORSDOF 5
ENDMDL
MODEL 8
REMARK VINA RESULT:      -5.0     14.206     15.767
REMARK  5 active torsions:
REMARK  status: ('A' for Active; 'I' for Inactive)
REMARK    1  A    between atoms: C_3  and  O_4 
REMARK       I    between atoms: C_3  and  N_9 
REMARK    2  A    between atoms: O_4  and  C_5 
REMARK    3  A    between atoms: C_10  and  N_9 
REMARK    4  A    between atoms: C_10  and  C_14 
REMARK    5  A    between atoms: C_10  and  C_11 
ROOT
HETATM    1  C   UNK N   1      35.576  13.879  11.195  0.00  0.00     0.166 C 
ENDROOT
BRANCH   1   2
HETATM    2  N   UNK N   1      35.408  14.033  12.628  0.00  0.00    -0.324 N 
HETATM    3  C   UNK N   1      34.946  13.036  13.425  0.00  0.00     0.362 C 
HETATM    4  O   UNK N   1      34.579  11.975  12.936  0.00  0.00    -0.238 OA
HETATM    5  H   UNK N   1      35.640  14.896  13.039  0.00  0.00     0.165 HD
BRANCH   3   6
HETATM    6  O   UNK N   1      34.879  13.237  14.770  0.00  0.00    -0.294 OA
BRANCH   6   7
HETATM    7  C   UNK N   1      35.926  13.051  15.663  0.00  0.00     0.061 C 
HETATM    8  C   UNK N   1      35.349  12.848  17.048  0.00  0.00     0.046 C 
HETATM    9  C   UNK N   1      36.720  11.810  15.291  0.00  0.00     0.046 C 
HETATM   10  C   UNK N   1      36.849  14.259  15.710  0.00  0.00     0.046 C 
ENDBRANCH   6   7
ENDBRANCH   3   6
ENDBRANCH   1   2
BRANCH   1  11
HETATM   11  C   UNK N   1      35.110  15.135  10.504  0.00  0.00     0.162 A 
HETATM   12  N   UNK N   1      35.047  16.359  11.056  0.00  0.00    -0.280 N 
HETATM   13  N   UNK N   1      34.623  17.177  10.106  0.00  0.00    -0.288 N 
ATOM     14  HN  UNK N   1      35.280  16.609  12.016  1.00  0.00     0.189 HD
HETATM   15  C   UNK N   1      34.437  16.436   8.994  0.00  0.00     0.251 A 
ATOM     16  HN  UNK N   1      34.467  18.180  10.198  1.00  0.00     0.188 HD
HETATM   17  O   UNK N   1      34.739  15.184   9.249  0.00  0.00    -0.288 OA
ENDBRANCH   1  11
BRANCH   1  18
HETATM   18  C   UNK N   1      37.037  13.485  10.883  0.00  0.00     0.008 C 
HETATM   19  C   UNK N   1      37.186  12.011  10.546  0.00  0.00     0.012 C 
HETATM   20  C   UNK N   1      37.659  14.338   9.787  0.00  0.00     0.012 C 
ENDBRANCH   1  18
TORSDOF 5
ENDMDL
MODEL 9
REMARK VINA RESULT:      -4.9     10.890     12.851
REMARK  5 active torsions:
REMARK  status: ('A' for Active; 'I' for Inactive)
REMARK    1  A    between atoms: C_3  and  O_4 
REMARK       I    between atoms: C_3  and  N_9 
REMARK    2  A    between atoms: O_4  and  C_5 
REMARK    3  A    between atoms: C_10  and  N_9 
REMARK    4  A    between atoms: C_10  and  C_14 
REMARK    5  A    between atoms: C_10  and  C_11 
ROOT
HETATM    1  C   UNK N   1      31.858  17.266   6.395  0.00  0.00     0.166 C 
ENDROOT
BRANCH   1   2
HETATM    2  N   UNK N   1      32.850  16.352   6.928  0.00  0.00    -0.324 N 
HETATM    3  C   UNK N   1      34.134  16.722   7.173  0.00  0.00     0.362 C 
HETATM    4  O   UNK N   1      34.518  17.846   6.876  0.00  0.00    -0.238 OA
HETATM    5  H   UNK N   1      32.582  15.425   7.122  0.00  0.00     0.165 HD
BRANCH   3   6
HETATM    6  O   UNK N   1      34.988  15.824   7.737  0.00  0.00    -0.294 OA
BRANCH   6   7
HETATM    7  C   UNK N   1      35.002  15.460   9.076  0.00  0.00     0.061 C 
HETATM    8  C   UNK N   1      34.944  16.717   9.919  0.00  0.00     0.046 C 
HETATM    9  C   UNK N   1      33.786  14.610   9.403  0.00  0.00     0.046 C 
HETATM   10  C   UNK N   1      36.272  14.707   9.443  0.00  0.00     0.046 C 
ENDBRANCH   6   7
ENDBRANCH   3   6
ENDBRANCH   1   2
BRANCH   1  11
HETATM   11  C   UNK N   1      31.661  16.982   4.928  0.00  0.00     0.162 A 
HETATM   12  N   UNK N   1      31.775  17.877   3.931  0.00  0.00    -0.280 N 
HETATM   13  N   UNK N   1      31.562  17.214   2.806  0.00  0.00    -0.288 N 
ATOM     14  HN  UNK N   1      31.985  18.870   4.024  1.00  0.00     0.189 HD
HETATM   15  C   UNK N   1      31.323  15.929   3.138  0.00  0.00     0.251 A 
ATOM     16  HN  UNK N   1      31.576  17.603   1.864  1.00  0.00     0.188 HD
HETATM   17  O   UNK N   1      31.388  15.796   4.443  0.00  0.00    -0.288 OA
ENDBRANCH   1  11
BRANCH   1  18
HETATM   18  C   UNK N   1      30.566  17.179   7.238  0.00  0.00     0.008 C 
HETATM   19  C   UNK N   1      30.700  17.873   8.585  0.00  0.00     0.012 C 
HETATM   20  C   UNK N   1      29.341  17.699   6.502  0.00  0.00     0.012 C 
ENDBRANCH   1  18
TORSDOF 5
ENDMDL
