REMARK  5 active torsions:
REMARK  status: ('A' for Active; 'I' for Inactive)
REMARK    1  A    between atoms: C_3  and  O_4 
REMARK       I    between atoms: C_3  and  N_9 
REMARK    2  A    between atoms: O_4  and  C_5 
REMARK    3  A    between atoms: C_10  and  N_9 
REMARK    4  A    between atoms: C_10  and  C_14 
REMARK    5  A    between atoms: C_10  and  C_11 
ROOT
HETATM    1  C   UNK N   1       1.603   1.109  -0.400  0.00  0.00     0.166 C 
ENDROOT
BRANCH   1   2
HETATM    2  N   UNK N   1       0.350   0.842   0.281  0.00  0.00    -0.324 N 
HETATM    3  C   UNK N   1      -0.531  -0.100  -0.143  0.00  0.00     0.362 C 
HETATM    4  O   UNK N   1      -0.322  -0.717  -1.180  0.00  0.00    -0.238 OA
HETATM    5  H   UNK N   1       0.130   1.365   1.085  0.00  0.00     0.165 HD
BRANCH   3   6
HETATM    6  O   UNK N   1      -1.654  -0.337   0.589  0.00  0.00    -0.294 OA
BRANCH   6   7
HETATM    7  C   UNK N   1      -2.730  -1.113   0.181  0.00  0.00     0.061 C 
HETATM    8  C   UNK N   1      -3.725  -1.196   1.319  0.00  0.00     0.046 C 
HETATM    9  C   UNK N   1      -3.421  -0.470  -1.010  0.00  0.00     0.046 C 
HETATM   10  C   UNK N   1      -2.302  -2.529  -0.174  0.00  0.00     0.046 C 
ENDBRANCH   6   7
ENDBRANCH   3   6
ENDBRANCH   1   2
BRANCH   1  11
HETATM   11  C   UNK N   1       2.147   2.435   0.067  0.00  0.00     0.162 A 
HETATM   12  N   UNK N   1       3.355   2.639   0.620  0.00  0.00    -0.280 N 
HETATM   13  N   UNK N   1       3.448   3.939   0.848  0.00  0.00    -0.288 N 
ATOM     14  HN  UNK N   1       4.061   1.932   0.823  1.00  0.00     0.189 HD
HETATM   15  C   UNK N   1       2.296   4.502   0.430  0.00  0.00     0.251 A 
ATOM     16  HN  UNK N   1       4.243   4.424   1.263  1.00  0.00     0.188 HD
HETATM   17  O   UNK N   1       1.504   3.570  -0.049  0.00  0.00    -0.288 OA
ENDBRANCH   1  11
BRANCH   1  18
HETATM   18  C   UNK N   1       2.567  -0.081  -0.199  0.00  0.00     0.008 C 
HETATM   19  C   UNK N   1       3.872   0.089  -0.960  0.00  0.00     0.012 C 
HETATM   20  C   UNK N   1       2.851  -0.373   1.267  0.00  0.00     0.012 C 
ENDBRANCH   1  18
TORSDOF 5
