MODEL 1
REMARK VINA RESULT:      -7.9      0.000      0.000
REMARK  4 active torsions:
REMARK  status: ('A' for Active; 'I' for Inactive)
REMARK    1  A    between atoms: O_1  and  C_2 
REMARK    2  A    between atoms: C_2  and  C_3 
REMARK    3  A    between atoms: C_7  and  N_8 
REMARK       I    between atoms: N_8  and  C_9 
REMARK    4  A    between atoms: C_15  and  C_23 
ROOT
HETATM    1  N   UNK N   1      33.821  17.652   9.087  0.00  0.00    -0.192 N 
HETATM    2  C   UNK N   1      34.343  16.564   9.846  0.00  0.00     0.684 A 
HETATM    3  N   UNK N   1      35.139  16.790  10.929  0.00  0.00    -0.201 N 
ATOM      4  HN  UNK N   1      35.361  17.747  11.202  1.00  0.00     0.183 HD
HETATM    5  C   UNK N   1      35.642  15.746  11.649  0.00  0.00     0.121 A 
HETATM    6  C   UNK N   1      35.338  14.431  11.279  0.00  0.00     0.026 A 
HETATM    7  C   UNK N   1      35.811  13.338  11.992  0.00  0.00     0.034 A 
HETATM    8  C   UNK N   1      35.471  12.022  11.626  0.00  0.00     0.047 A 
HETATM    9  C   UNK N   1      34.608  11.860  10.504  0.00  0.00     0.260 A 
HETATM   10  O   UNK N   1      34.196  10.757  10.193  0.00  0.00    -0.267 OA
HETATM   11  N   UNK N   1      34.179  12.959   9.790  0.00  0.00    -0.303 N 
HETATM   12  C   UNK N   1      34.526  14.221  10.166  0.00  0.00     0.137 A 
HETATM   13  N   UNK N   1      34.063  15.288   9.481  0.00  0.00    -0.175 N 
ATOM     14  HN  UNK N   1      33.480  15.130   8.659  1.00  0.00     0.186 HD
HETATM   15  C   UNK N   1      33.307  12.771   8.629  0.00  0.00     0.161 C 
HETATM   16  H   UNK N   1      34.118  18.564   9.306  0.00  0.00     0.184 HD
ENDROOT
BRANCH   1  17
HETATM   17  C   UNK N   1      32.884  17.476   8.022  0.00  0.00     0.049 A 
HETATM   18  C   UNK N   1      31.520  17.339   8.303  0.00  0.00     0.030 A 
HETATM   19  C   UNK N   1      30.596  17.221   7.253  0.00  0.00     0.003 A 
HETATM   20  C   UNK N   1      31.032  17.241   5.921  0.00  0.00     0.009 A 
HETATM   21  C   UNK N   1      32.395  17.359   5.640  0.00  0.00    -0.033 A 
HETATM   22  C   UNK N   1      33.303  17.469   6.683  0.00  0.00     0.039 A 
BRANCH  21  23
HETATM   23  C   UNK N   1      32.902  17.388   4.240  0.00  0.00     0.203 C 
BRANCH  23  24
HETATM   24  O   UNK N   1      31.861  17.701   3.364  0.00  0.00    -0.396 OA
HETATM   25  H   UNK N   1      30.982  18.110   3.342  0.00  0.00     0.209 HD
ENDBRANCH  23  24
ENDBRANCH  21  23
ENDBRANCH   1  17
BRANCH   8  26
HETATM   26  C   UNK N   1      35.993  10.865  12.461  0.00  0.00     0.023 A 
HETATM   27  C   UNK N   1      37.217  10.211  12.097  0.00  0.00     0.046 A 
HETATM   28 Cl   UNK N   1      38.224  10.685  10.730  0.00  0.00    -0.083 Cl
HETATM   29  C   UNK N   1      37.712   9.154  12.863  0.00  0.00     0.025 A 
HETATM   30  C   UNK N   1      37.032   8.704  13.982  0.00  0.00     0.003 A 
HETATM   31  C   UNK N   1      35.831   9.293  14.343  0.00  0.00     0.025 A 
HETATM   32  C   UNK N   1      35.297  10.356  13.612  0.00  0.00     0.046 A 
HETATM   33 Cl   UNK N   1      33.697  10.872  14.141  0.00  0.00    -0.083 Cl
ENDBRANCH   8  26
TORSDOF 4
ENDMDL
MODEL 2
REMARK VINA RESULT:      -7.8      3.664      8.938
REMARK  4 active torsions:
REMARK  status: ('A' for Active; 'I' for Inactive)
REMARK    1  A    between atoms: O_1  and  C_2 
REMARK    2  A    between atoms: C_2  and  C_3 
REMARK    3  A    between atoms: C_7  and  N_8 
REMARK       I    between atoms: N_8  and  C_9 
REMARK    4  A    between atoms: C_15  and  C_23 
ROOT
HETATM    1  N   UNK N   1      36.029  16.425  10.843  0.00  0.00    -0.192 N 
HETATM    2  C   UNK N   1      35.074  16.641   9.806  0.00  0.00     0.684 A 
HETATM    3  N   UNK N   1      34.887  17.885   9.281  0.00  0.00    -0.201 N 
ATOM      4  HN  UNK N   1      35.438  18.668   9.630  1.00  0.00     0.183 HD
HETATM    5  C   UNK N   1      33.968  18.088   8.293  0.00  0.00     0.121 A 
HETATM    6  C   UNK N   1      33.212  17.014   7.810  0.00  0.00     0.026 A 
HETATM    7  C   UNK N   1      32.279  17.170   6.793  0.00  0.00     0.034 A 
HETATM    8  C   UNK N   1      31.549  16.075   6.296  0.00  0.00     0.047 A 
HETATM    9  C   UNK N   1      31.819  14.798   6.867  0.00  0.00     0.260 A 
HETATM   10  O   UNK N   1      31.295  13.795   6.418  0.00  0.00    -0.267 OA
HETATM   11  N   UNK N   1      32.724  14.673   7.900  0.00  0.00    -0.303 N 
HETATM   12  C   UNK N   1      33.415  15.751   8.363  0.00  0.00     0.137 A 
HETATM   13  N   UNK N   1      34.329  15.605   9.346  0.00  0.00    -0.175 N 
ATOM     14  HN  UNK N   1      34.465  14.682   9.757  1.00  0.00     0.186 HD
HETATM   15  C   UNK N   1      32.975  13.355   8.486  0.00  0.00     0.161 C 
HETATM   16  H   UNK N   1      36.485  17.205  11.232  0.00  0.00     0.184 HD
ENDROOT
BRANCH   1  17
HETATM   17  C   UNK N   1      36.353  15.124  11.340  0.00  0.00     0.049 A 
HETATM   18  C   UNK N   1      37.105  14.241  10.557  0.00  0.00     0.030 A 
HETATM   19  C   UNK N   1      37.469  12.986  11.068  0.00  0.00     0.003 A 
HETATM   20  C   UNK N   1      37.084  12.611  12.364  0.00  0.00     0.009 A 
HETATM   21  C   UNK N   1      36.318  13.484  13.139  0.00  0.00    -0.033 A 
HETATM   22  C   UNK N   1      35.957  14.721  12.624  0.00  0.00     0.039 A 
BRANCH  21  23
HETATM   23  C   UNK N   1      35.889  13.128  14.520  0.00  0.00     0.203 C 
BRANCH  23  24
HETATM   24  O   UNK N   1      34.496  13.101  14.592  0.00  0.00    -0.396 OA
HETATM   25  H   UNK N   1      33.768  13.017  15.228  0.00  0.00     0.209 HD
ENDBRANCH  23  24
ENDBRANCH  21  23
ENDBRANCH   1  17
BRANCH   8  26
HETATM   26  C   UNK N   1      30.562  16.298   5.162  0.00  0.00     0.023 A 
HETATM   27  C   UNK N   1      29.207  16.671   5.451  0.00  0.00     0.046 A 
HETATM   28 Cl   UNK N   1      28.580  16.940   7.077  0.00  0.00    -0.083 Cl
HETATM   29  C   UNK N   1      28.296  16.890   4.417  0.00  0.00     0.025 A 
HETATM   30  C   UNK N   1      28.670  16.743   3.092  0.00  0.00     0.003 A 
HETATM   31  C   UNK N   1      29.962  16.353   2.779  0.00  0.00     0.025 A 
HETATM   32  C   UNK N   1      30.912  16.127   3.777  0.00  0.00     0.046 A 
HETATM   33 Cl   UNK N   1      32.451  15.501   3.190  0.00  0.00    -0.083 Cl
ENDBRANCH   8  26
TORSDOF 4
ENDMDL
MODEL 3
REMARK VINA RESULT:      -7.7      3.353      8.623
REMARK  4 active torsions:
REMARK  status: ('A' for Active; 'I' for Inactive)
REMARK    1  A    between atoms: O_1  and  C_2 
REMARK    2  A    between atoms: C_2  and  C_3 
REMARK    3  A    between atoms: C_7  and  N_8 
REMARK       I    between atoms: N_8  and  C_9 
REMARK    4  A    between atoms: C_15  and  C_23 
ROOT
HETATM    1  N   UNK N   1      36.128  15.601  11.884  0.00  0.00    -0.192 N 
HETATM    2  C   UNK N   1      35.341  15.918  10.738  0.00  0.00     0.684 A 
HETATM    3  N   UNK N   1      35.304  17.190  10.250  0.00  0.00    -0.201 N 
ATOM      4  HN  UNK N   1      35.848  17.922  10.706  1.00  0.00     0.183 HD
HETATM    5  C   UNK N   1      34.546  17.490   9.156  0.00  0.00     0.121 A 
HETATM    6  C   UNK N   1      33.801  16.487   8.526  0.00  0.00     0.026 A 
HETATM    7  C   UNK N   1      33.029  16.742   7.400  0.00  0.00     0.034 A 
HETATM    8  C   UNK N   1      32.311  15.717   6.758  0.00  0.00     0.047 A 
HETATM    9  C   UNK N   1      32.421  14.404   7.301  0.00  0.00     0.260 A 
HETATM   10  O   UNK N   1      31.906  13.455   6.739  0.00  0.00    -0.267 OA
HETATM   11  N   UNK N   1      33.165  14.182   8.441  0.00  0.00    -0.303 N 
HETATM   12  C   UNK N   1      33.849  15.194   9.043  0.00  0.00     0.137 A 
HETATM   13  N   UNK N   1      34.606  14.951  10.133  0.00  0.00    -0.175 N 
ATOM     14  HN  UNK N   1      34.628  14.007  10.517  1.00  0.00     0.186 HD
HETATM   15  C   UNK N   1      33.252  12.829   8.995  0.00  0.00     0.161 C 
HETATM   16  H   UNK N   1      36.572  16.334  12.368  0.00  0.00     0.184 HD
ENDROOT
BRANCH   1  17
HETATM   17  C   UNK N   1      36.301  14.264  12.360  0.00  0.00     0.049 A 
HETATM   18  C   UNK N   1      37.115  13.368  11.658  0.00  0.00     0.030 A 
HETATM   19  C   UNK N   1      37.328  12.074  12.157  0.00  0.00     0.003 A 
HETATM   20  C   UNK N   1      36.728  11.672  13.359  0.00  0.00     0.009 A 
HETATM   21  C   UNK N   1      35.901  12.559  14.052  0.00  0.00    -0.033 A 
HETATM   22  C   UNK N   1      35.691  13.835  13.549  0.00  0.00     0.039 A 
BRANCH  21  23
HETATM   23  C   UNK N   1      35.246  12.175  15.333  0.00  0.00     0.203 C 
BRANCH  23  24
HETATM   24  O   UNK N   1      34.170  13.026  15.590  0.00  0.00    -0.396 OA
HETATM   25  H   UNK N   1      33.540  13.266  16.286  0.00  0.00     0.209 HD
ENDBRANCH  23  24
ENDBRANCH  21  23
ENDBRANCH   1  17
BRANCH   8  26
HETATM   26  C   UNK N   1      31.507  16.047   5.511  0.00  0.00     0.023 A 
HETATM   27  C   UNK N   1      32.111  15.928   4.215  0.00  0.00     0.046 A 
HETATM   28 Cl   UNK N   1      33.760  15.371   3.938  0.00  0.00    -0.083 Cl
HETATM   29  C   UNK N   1      31.379  16.218   3.063  0.00  0.00     0.025 A 
HETATM   30  C   UNK N   1      30.060  16.636   3.140  0.00  0.00     0.003 A 
HETATM   31  C   UNK N   1      29.458  16.792   4.378  0.00  0.00     0.025 A 
HETATM   32  C   UNK N   1      30.146  16.510   5.559  0.00  0.00     0.046 A 
HETATM   33 Cl   UNK N   1      29.260  16.906   7.030  0.00  0.00    -0.083 Cl
ENDBRANCH   8  26
TORSDOF 4
ENDMDL
MODEL 4
REMARK VINA RESULT:      -7.6      8.418     11.695
REMARK  4 active torsions:
REMARK  status: ('A' for Active; 'I' for Inactive)
REMARK    1  A    between atoms: O_1  and  C_2 
REMARK    2  A    between atoms: C_2  and  C_3 
REMARK    3  A    between atoms: C_7  and  N_8 
REMARK       I    between atoms: N_8  and  C_9 
REMARK    4  A    between atoms: C_15  and  C_23 
ROOT
HETATM    1  N   UNK N   1      21.778  14.929   4.771  0.00  0.00    -0.192 N 
HETATM    2  C   UNK N   1      23.074  15.148   5.326  0.00  0.00     0.684 A 
HETATM    3  N   UNK N   1      23.520  14.391   6.368  0.00  0.00    -0.201 N 
ATOM      4  HN  UNK N   1      22.924  13.659   6.752  1.00  0.00     0.183 HD
HETATM    5  C   UNK N   1      24.758  14.608   6.900  0.00  0.00     0.121 A 
HETATM    6  C   UNK N   1      25.579  15.611   6.374  0.00  0.00     0.026 A 
HETATM    7  C   UNK N   1      26.853  15.855   6.871  0.00  0.00     0.034 A 
HETATM    8  C   UNK N   1      27.680  16.846   6.310  0.00  0.00     0.047 A 
HETATM    9  C   UNK N   1      27.163  17.576   5.201  0.00  0.00     0.260 A 
HETATM   10  O   UNK N   1      27.860  18.378   4.608  0.00  0.00    -0.267 OA
HETATM   11  N   UNK N   1      25.882  17.340   4.747  0.00  0.00    -0.303 N 
HETATM   12  C   UNK N   1      25.102  16.376   5.311  0.00  0.00     0.137 A 
HETATM   13  N   UNK N   1      23.867  16.129   4.827  0.00  0.00    -0.175 N 
ATOM     14  HN  UNK N   1      23.516  16.700   4.059  1.00  0.00     0.186 HD
HETATM   15  C   UNK N   1      25.361  18.113   3.619  0.00  0.00     0.161 C 
HETATM   16  H   UNK N   1      21.181  14.284   5.211  0.00  0.00     0.184 HD
ENDROOT
BRANCH   1  17
HETATM   17  C   UNK N   1      21.312  15.607   3.601  0.00  0.00     0.049 A 
HETATM   18  C   UNK N   1      21.425  14.999   2.346  0.00  0.00     0.030 A 
HETATM   19  C   UNK N   1      20.916  15.642   1.207  0.00  0.00     0.003 A 
HETATM   20  C   UNK N   1      20.292  16.893   1.320  0.00  0.00     0.009 A 
HETATM   21  C   UNK N   1      20.195  17.508   2.569  0.00  0.00    -0.033 A 
HETATM   22  C   UNK N   1      20.706  16.869   3.690  0.00  0.00     0.039 A 
BRANCH  21  23
HETATM   23  C   UNK N   1      19.538  18.835   2.736  0.00  0.00     0.203 C 
BRANCH  23  24
HETATM   24  O   UNK N   1      18.196  18.750   2.362  0.00  0.00    -0.396 OA
HETATM   25  H   UNK N   1      17.437  19.303   2.123  0.00  0.00     0.209 HD
ENDBRANCH  23  24
ENDBRANCH  21  23
ENDBRANCH   1  17
BRANCH   8  26
HETATM   26  C   UNK N   1      29.076  17.049   6.875  0.00  0.00     0.023 A 
HETATM   27  C   UNK N   1      30.212  16.488   6.201  0.00  0.00     0.046 A 
HETATM   28 Cl   UNK N   1      30.120  15.582   4.692  0.00  0.00    -0.083 Cl
HETATM   29  C   UNK N   1      31.500  16.678   6.705  0.00  0.00     0.025 A 
HETATM   30  C   UNK N   1      31.713  17.400   7.867  0.00  0.00     0.003 A 
HETATM   31  C   UNK N   1      30.635  17.927   8.559  0.00  0.00     0.025 A 
HETATM   32  C   UNK N   1      29.328  17.769   8.094  0.00  0.00     0.046 A 
HETATM   33 Cl   UNK N   1      28.088  18.385   9.184  0.00  0.00    -0.083 Cl
ENDBRANCH   8  26
TORSDOF 4
ENDMDL
MODEL 5
REMARK VINA RESULT:      -7.6      7.958     11.422
REMARK  4 active torsions:
REMARK  status: ('A' for Active; 'I' for Inactive)
REMARK    1  A    between atoms: O_1  and  C_2 
REMARK    2  A    between atoms: C_2  and  C_3 
REMARK    3  A    between atoms: C_7  and  N_8 
REMARK       I    between atoms: N_8  and  C_9 
REMARK    4  A    between atoms: C_15  and  C_23 
ROOT
HETATM    1  N   UNK N   1      22.160  15.849   5.242  0.00  0.00    -0.192 N 
HETATM    2  C   UNK N   1      23.525  15.927   5.646  0.00  0.00     0.684 A 
HETATM    3  N   UNK N   1      24.084  14.939   6.400  0.00  0.00    -0.201 N 
ATOM      4  HN  UNK N   1      23.522  14.133   6.673  1.00  0.00     0.183 HD
HETATM    5  C   UNK N   1      25.389  15.020   6.790  0.00  0.00     0.121 A 
HETATM    6  C   UNK N   1      26.163  16.123   6.414  0.00  0.00     0.026 A 
HETATM    7  C   UNK N   1      27.500  16.240   6.773  0.00  0.00     0.034 A 
HETATM    8  C   UNK N   1      28.274  17.340   6.360  0.00  0.00     0.047 A 
HETATM    9  C   UNK N   1      27.636  18.319   5.546  0.00  0.00     0.260 A 
HETATM   10  O   UNK N   1      28.271  19.244   5.075  0.00  0.00    -0.267 OA
HETATM   11  N   UNK N   1      26.298  18.200   5.232  0.00  0.00    -0.303 N 
HETATM   12  C   UNK N   1      25.571  17.125   5.648  0.00  0.00     0.137 A 
HETATM   13  N   UNK N   1      24.274  17.002   5.296  0.00  0.00    -0.175 N 
ATOM     14  HN  UNK N   1      23.841  17.744   4.747  1.00  0.00     0.186 HD
HETATM   15  C   UNK N   1      25.654  19.226   4.410  0.00  0.00     0.161 C 
HETATM   16  H   UNK N   1      21.607  15.114   5.590  0.00  0.00     0.184 HD
ENDROOT
BRANCH   1  17
HETATM   17  C   UNK N   1      21.560  16.793   4.349  0.00  0.00     0.049 A 
HETATM   18  C   UNK N   1      21.462  18.140   4.714  0.00  0.00     0.030 A 
HETATM   19  C   UNK N   1      20.924  19.073   3.815  0.00  0.00     0.003 A 
HETATM   20  C   UNK N   1      20.484  18.662   2.548  0.00  0.00     0.009 A 
HETATM   21  C   UNK N   1      20.564  17.315   2.190  0.00  0.00    -0.033 A 
HETATM   22  C   UNK N   1      21.092  16.397   3.087  0.00  0.00     0.039 A 
BRANCH  21  23
HETATM   23  C   UNK N   1      20.111  16.835   0.855  0.00  0.00     0.203 C 
BRANCH  23  24
HETATM   24  O   UNK N   1      20.337  17.821  -0.106  0.00  0.00    -0.396 OA
HETATM   25  H   UNK N   1      21.003  18.125  -0.742  0.00  0.00     0.209 HD
ENDBRANCH  23  24
ENDBRANCH  21  23
ENDBRANCH   1  17
BRANCH   8  26
HETATM   26  C   UNK N   1      29.741  17.401   6.756  0.00  0.00     0.023 A 
HETATM   27  C   UNK N   1      30.111  17.818   8.078  0.00  0.00     0.046 A 
HETATM   28 Cl   UNK N   1      28.957  18.245   9.341  0.00  0.00    -0.083 Cl
HETATM   29  C   UNK N   1      31.453  17.867   8.456  0.00  0.00     0.025 A 
HETATM   30  C   UNK N   1      32.459  17.526   7.567  0.00  0.00     0.003 A 
HETATM   31  C   UNK N   1      32.137  17.149   6.273  0.00  0.00     0.025 A 
HETATM   32  C   UNK N   1      30.809  17.080   5.848  0.00  0.00     0.046 A 
HETATM   33 Cl   UNK N   1      30.611  16.722   4.134  0.00  0.00    -0.083 Cl
ENDBRANCH   8  26
TORSDOF 4
ENDMDL
MODEL 6
REMARK VINA RESULT:      -7.4      7.570     11.148
REMARK  4 active torsions:
REMARK  status: ('A' for Active; 'I' for Inactive)
REMARK    1  A    between atoms: O_1  and  C_2 
REMARK    2  A    between atoms: C_2  and  C_3 
REMARK    3  A    between atoms: C_7  and  N_8 
REMARK       I    between atoms: N_8  and  C_9 
REMARK    4  A    between atoms: C_15  and  C_23 
ROOT
HETATM    1  N   UNK N   1      23.265  19.354   3.724  0.00  0.00    -0.192 N 
HETATM    2  C   UNK N   1      24.670  19.200   3.921  0.00  0.00     0.684 A 
HETATM    3  N   UNK N   1      25.532  20.199   3.581  0.00  0.00    -0.201 N 
ATOM      4  HN  UNK N   1      25.171  21.067   3.186  1.00  0.00     0.183 HD
HETATM    5  C   UNK N   1      26.876  20.046   3.766  0.00  0.00     0.121 A 
HETATM    6  C   UNK N   1      27.375  18.858   4.310  0.00  0.00     0.026 A 
HETATM    7  C   UNK N   1      28.732  18.664   4.533  0.00  0.00     0.034 A 
HETATM    8  C   UNK N   1      29.216  17.476   5.111  0.00  0.00     0.047 A 
HETATM    9  C   UNK N   1      28.256  16.488   5.473  0.00  0.00     0.260 A 
HETATM   10  O   UNK N   1      28.597  15.480   6.064  0.00  0.00    -0.267 OA
HETATM   11  N   UNK N   1      26.917  16.688   5.209  0.00  0.00    -0.303 N 
HETATM   12  C   UNK N   1      26.477  17.847   4.646  0.00  0.00     0.137 A 
HETATM   13  N   UNK N   1      25.158  18.044   4.434  0.00  0.00    -0.175 N 
ATOM     14  HN  UNK N   1      24.505  17.297   4.669  1.00  0.00     0.186 HD
HETATM   15  C   UNK N   1      25.947  15.653   5.571  0.00  0.00     0.161 C 
HETATM   16  H   UNK N   1      22.941  20.157   3.257  0.00  0.00     0.184 HD
ENDROOT
BRANCH   1  17
HETATM   17  C   UNK N   1      22.309  18.392   4.177  0.00  0.00     0.049 A 
HETATM   18  C   UNK N   1      21.819  17.421   3.297  0.00  0.00     0.030 A 
HETATM   19  C   UNK N   1      20.923  16.445   3.758  0.00  0.00     0.003 A 
HETATM   20  C   UNK N   1      20.516  16.435   5.099  0.00  0.00     0.009 A 
HETATM   21  C   UNK N   1      20.989  17.415   5.974  0.00  0.00    -0.033 A 
HETATM   22  C   UNK N   1      21.871  18.381   5.510  0.00  0.00     0.039 A 
BRANCH  21  23
HETATM   23  C   UNK N   1      20.585  17.442   7.407  0.00  0.00     0.203 C 
BRANCH  23  24
HETATM   24  O   UNK N   1      20.512  18.761   7.855  0.00  0.00    -0.396 OA
HETATM   25  H   UNK N   1      21.028  19.582   7.893  0.00  0.00     0.209 HD
ENDBRANCH  23  24
ENDBRANCH  21  23
ENDBRANCH   1  17
BRANCH   8  26
HETATM   26  C   UNK N   1      30.709  17.331   5.359  0.00  0.00     0.023 A 
HETATM   27  C   UNK N   1      31.589  17.000   4.275  0.00  0.00     0.046 A 
HETATM   28 Cl   UNK N   1      31.065  16.779   2.607  0.00  0.00    -0.083 Cl
HETATM   29  C   UNK N   1      32.962  16.875   4.490  0.00  0.00     0.025 A 
HETATM   30  C   UNK N   1      33.508  17.056   5.751  0.00  0.00     0.003 A 
HETATM   31  C   UNK N   1      32.682  17.344   6.825  0.00  0.00     0.025 A 
HETATM   32  C   UNK N   1      31.303  17.484   6.661  0.00  0.00     0.046 A 
HETATM   33 Cl   UNK N   1      30.409  17.708   8.163  0.00  0.00    -0.083 Cl
ENDBRANCH   8  26
TORSDOF 4
ENDMDL
MODEL 7
REMARK VINA RESULT:      -7.4      3.689      9.023
REMARK  4 active torsions:
REMARK  status: ('A' for Active; 'I' for Inactive)
REMARK    1  A    between atoms: O_1  and  C_2 
REMARK    2  A    between atoms: C_2  and  C_3 
REMARK    3  A    between atoms: C_7  and  N_8 
REMARK       I    between atoms: N_8  and  C_9 
REMARK    4  A    between atoms: C_15  and  C_23 
ROOT
HETATM    1  N   UNK N   1      35.101  11.805  13.083  0.00  0.00    -0.192 N 
HETATM    2  C   UNK N   1      34.693  12.341  11.826  0.00  0.00     0.684 A 
HETATM    3  N   UNK N   1      34.121  11.540  10.883  0.00  0.00    -0.201 N 
ATOM      4  HN  UNK N   1      33.980  10.550  11.079  1.00  0.00     0.183 HD
HETATM    5  C   UNK N   1      33.738  12.055   9.678  0.00  0.00     0.121 A 
HETATM    6  C   UNK N   1      33.928  13.414   9.407  0.00  0.00     0.026 A 
HETATM    7  C   UNK N   1      33.537  13.986   8.203  0.00  0.00     0.034 A 
HETATM    8  C   UNK N   1      33.706  15.361   7.957  0.00  0.00     0.047 A 
HETATM    9  C   UNK N   1      34.279  16.145   9.000  0.00  0.00     0.260 A 
HETATM   10  O   UNK N   1      34.364  17.354   8.891  0.00  0.00    -0.267 OA
HETATM   11  N   UNK N   1      34.692  15.549  10.173  0.00  0.00    -0.303 N 
HETATM   12  C   UNK N   1      34.518  14.214  10.383  0.00  0.00     0.137 A 
HETATM   13  N   UNK N   1      34.890  13.655  11.554  0.00  0.00    -0.175 N 
ATOM     14  HN  UNK N   1      35.334  14.241  12.260  1.00  0.00     0.186 HD
HETATM   15  C   UNK N   1      35.296  16.368  11.226  0.00  0.00     0.161 C 
HETATM   16  H   UNK N   1      35.043  10.833  13.222  0.00  0.00     0.184 HD
ENDROOT
BRANCH   1  17
HETATM   17  C   UNK N   1      35.588  12.621  14.152  0.00  0.00     0.049 A 
HETATM   18  C   UNK N   1      36.503  13.647  13.891  0.00  0.00     0.030 A 
HETATM   19  C   UNK N   1      36.938  14.481  14.932  0.00  0.00     0.003 A 
HETATM   20  C   UNK N   1      36.458  14.293  16.236  0.00  0.00     0.009 A 
HETATM   21  C   UNK N   1      35.559  13.258  16.502  0.00  0.00    -0.033 A 
HETATM   22  C   UNK N   1      35.139  12.433  15.468  0.00  0.00     0.039 A 
BRANCH  21  23
HETATM   23  C   UNK N   1      35.022  13.024  17.871  0.00  0.00     0.203 C 
BRANCH  23  24
HETATM   24  O   UNK N   1      35.394  14.073  18.712  0.00  0.00    -0.396 OA
HETATM   25  H   UNK N   1      35.214  14.445  19.589  0.00  0.00     0.209 HD
ENDBRANCH  23  24
ENDBRANCH  21  23
ENDBRANCH   1  17
BRANCH   8  26
HETATM   26  C   UNK N   1      33.232  15.938   6.633  0.00  0.00     0.023 A 
HETATM   27  C   UNK N   1      31.985  16.644   6.563  0.00  0.00     0.046 A 
HETATM   28 Cl   UNK N   1      30.936  16.942   7.949  0.00  0.00    -0.083 Cl
HETATM   29  C   UNK N   1      31.545  17.187   5.355  0.00  0.00     0.025 A 
HETATM   30  C   UNK N   1      32.292  17.052   4.197  0.00  0.00     0.003 A 
HETATM   31  C   UNK N   1      33.485  16.349   4.224  0.00  0.00     0.025 A 
HETATM   32  C   UNK N   1      33.970  15.790   5.407  0.00  0.00     0.046 A 
HETATM   33 Cl   UNK N   1      35.425  14.816   5.211  0.00  0.00    -0.083 Cl
ENDBRANCH   8  26
TORSDOF 4
ENDMDL
MODEL 8
REMARK VINA RESULT:      -7.4      2.995      8.670
REMARK  4 active torsions:
REMARK  status: ('A' for Active; 'I' for Inactive)
REMARK    1  A    between atoms: O_1  and  C_2 
REMARK    2  A    between atoms: C_2  and  C_3 
REMARK    3  A    between atoms: C_7  and  N_8 
REMARK       I    between atoms: N_8  and  C_9 
REMARK    4  A    between atoms: C_15  and  C_23 
ROOT
HETATM    1  N   UNK N   1      36.678  14.006  13.058  0.00  0.00    -0.192 N 
HETATM    2  C   UNK N   1      36.075  14.596  11.908  0.00  0.00     0.684 A 
HETATM    3  N   UNK N   1      36.290  15.908  11.607  0.00  0.00    -0.201 N 
ATOM      4  HN  UNK N   1      36.891  16.472  12.207  1.00  0.00     0.183 HD
HETATM    5  C   UNK N   1      35.707  16.471  10.510  0.00  0.00     0.121 A 
HETATM    6  C   UNK N   1      34.883  15.699   9.683  0.00  0.00     0.026 A 
HETATM    7  C   UNK N   1      34.283  16.224   8.546  0.00  0.00     0.034 A 
HETATM    8  C   UNK N   1      33.483  15.426   7.706  0.00  0.00     0.047 A 
HETATM    9  C   UNK N   1      33.329  14.056   8.062  0.00  0.00     0.260 A 
HETATM   10  O   UNK N   1      32.732  13.289   7.329  0.00  0.00    -0.267 OA
HETATM   11  N   UNK N   1      33.905  13.565   9.215  0.00  0.00    -0.303 N 
HETATM   12  C   UNK N   1      34.673  14.361  10.010  0.00  0.00     0.137 A 
HETATM   13  N   UNK N   1      35.264  13.854  11.113  0.00  0.00    -0.175 N 
ATOM     14  HN  UNK N   1      35.097  12.879  11.356  1.00  0.00     0.186 HD
HETATM   15  C   UNK N   1      33.720  12.158   9.574  0.00  0.00     0.161 C 
HETATM   16  H   UNK N   1      37.178  14.584  13.676  0.00  0.00     0.184 HD
ENDROOT
BRANCH   1  17
HETATM   17  C   UNK N   1      36.588  12.609  13.349  0.00  0.00     0.049 A 
HETATM   18  C   UNK N   1      37.592  11.735  12.916  0.00  0.00     0.030 A 
HETATM   19  C   UNK N   1      37.529  10.374  13.251  0.00  0.00     0.003 A 
HETATM   20  C   UNK N   1      36.464   9.882  14.020  0.00  0.00     0.009 A 
HETATM   21  C   UNK N   1      35.452  10.750  14.436  0.00  0.00    -0.033 A 
HETATM   22  C   UNK N   1      35.518  12.093  14.097  0.00  0.00     0.039 A 
BRANCH  21  23
HETATM   23  C   UNK N   1      34.305  10.272  15.257  0.00  0.00     0.203 C 
BRANCH  23  24
HETATM   24  O   UNK N   1      33.106  10.727  14.706  0.00  0.00    -0.396 OA
HETATM   25  H   UNK N   1      32.757  11.364  14.064  0.00  0.00     0.209 HD
ENDBRANCH  23  24
ENDBRANCH  21  23
ENDBRANCH   1  17
BRANCH   8  26
HETATM   26  C   UNK N   1      32.876  16.046   6.458  0.00  0.00     0.023 A 
HETATM   27  C   UNK N   1      31.635  16.762   6.543  0.00  0.00     0.046 A 
HETATM   28 Cl   UNK N   1      30.744  17.024   8.040  0.00  0.00    -0.083 Cl
HETATM   29  C   UNK N   1      31.074  17.344   5.405  0.00  0.00     0.025 A 
HETATM   30  C   UNK N   1      31.691  17.238   4.170  0.00  0.00     0.003 A 
HETATM   31  C   UNK N   1      32.874  16.527   4.048  0.00  0.00     0.025 A 
HETATM   32  C   UNK N   1      33.477  15.930   5.156  0.00  0.00     0.046 A 
HETATM   33 Cl   UNK N   1      34.893  14.953   4.777  0.00  0.00    -0.083 Cl
ENDBRANCH   8  26
TORSDOF 4
ENDMDL
MODEL 9
REMARK VINA RESULT:      -7.3      3.046      8.583
REMARK  4 active torsions:
REMARK  status: ('A' for Active; 'I' for Inactive)
REMARK    1  A    between atoms: O_1  and  C_2 
REMARK    2  A    between atoms: C_2  and  C_3 
REMARK    3  A    between atoms: C_7  and  N_8 
REMARK       I    between atoms: N_8  and  C_9 
REMARK    4  A    between atoms: C_15  and  C_23 
ROOT
HETATM    1  N   UNK N   1      35.532  13.685  13.160  0.00  0.00    -0.192 N 
HETATM    2  C   UNK N   1      35.146  14.318  11.942  0.00  0.00     0.684 A 
HETATM    3  N   UNK N   1      35.455  15.625  11.709  0.00  0.00    -0.201 N 
ATOM      4  HN  UNK N   1      35.972  16.154  12.411  1.00  0.00     0.183 HD
HETATM    5  C   UNK N   1      35.079  16.229  10.545  0.00  0.00     0.121 A 
HETATM    6  C   UNK N   1      34.372  15.504   9.579  0.00  0.00     0.026 A 
HETATM    7  C   UNK N   1      33.984  16.072   8.372  0.00  0.00     0.034 A 
HETATM    8  C   UNK N   1      33.302  15.321   7.397  0.00  0.00     0.047 A 
HETATM    9  C   UNK N   1      33.041  13.952   7.691  0.00  0.00     0.260 A 
HETATM   10  O   UNK N   1      32.543  13.222   6.855  0.00  0.00    -0.267 OA
HETATM   11  N   UNK N   1      33.405  13.420   8.911  0.00  0.00    -0.303 N 
HETATM   12  C   UNK N   1      34.062  14.171   9.838  0.00  0.00     0.137 A 
HETATM   13  N   UNK N   1      34.448  13.623  11.009  0.00  0.00    -0.175 N 
ATOM     14  HN  UNK N   1      34.207  12.651  11.201  1.00  0.00     0.186 HD
HETATM   15  C   UNK N   1      33.111  12.016   9.203  0.00  0.00     0.161 C 
HETATM   16  H   UNK N   1      35.947  14.232  13.864  0.00  0.00     0.184 HD
ENDROOT
BRANCH   1  17
HETATM   17  C   UNK N   1      35.344  12.288  13.401  0.00  0.00     0.049 A 
HETATM   18  C   UNK N   1      34.275  11.849  14.189  0.00  0.00     0.030 A 
HETATM   19  C   UNK N   1      34.061  10.475  14.379  0.00  0.00     0.003 A 
HETATM   20  C   UNK N   1      34.913   9.537  13.780  0.00  0.00     0.009 A 
HETATM   21  C   UNK N   1      35.992   9.974  13.008  0.00  0.00    -0.033 A 
HETATM   22  C   UNK N   1      36.201  11.334  12.830  0.00  0.00     0.039 A 
BRANCH  21  23
HETATM   23  C   UNK N   1      36.921   9.013  12.351  0.00  0.00     0.203 C 
BRANCH  23  24
HETATM   24  O   UNK N   1      38.211   9.542  12.325  0.00  0.00    -0.396 OA
HETATM   25  H   UNK N   1      38.941   9.798  12.911  0.00  0.00     0.209 HD
ENDBRANCH  23  24
ENDBRANCH  21  23
ENDBRANCH   1  17
BRANCH   8  26
HETATM   26  C   UNK N   1      32.929  15.985   6.081  0.00  0.00     0.023 A 
HETATM   27  C   UNK N   1      31.779  16.841   6.010  0.00  0.00     0.046 A 
HETATM   28 Cl   UNK N   1      30.748  17.231   7.385  0.00  0.00    -0.083 Cl
HETATM   29  C   UNK N   1      31.433  17.465   4.810  0.00  0.00     0.025 A 
HETATM   30  C   UNK N   1      32.180  17.267   3.661  0.00  0.00     0.003 A 
HETATM   31  C   UNK N   1      33.277  16.421   3.688  0.00  0.00     0.025 A 
HETATM   32  C   UNK N   1      33.667  15.778   4.864  0.00  0.00     0.046 A 
HETATM   33 Cl   UNK N   1      34.994  14.636   4.665  0.00  0.00    -0.083 Cl
ENDBRANCH   8  26
TORSDOF 4
ENDMDL
