MODEL 1
REMARK VINA RESULT:      -7.6      0.000      0.000
REMARK  2 active torsions:
REMARK  status: ('A' for Active; 'I' for Inactive)
REMARK       I    between atoms: C_9  and  N_20 
REMARK       I    between atoms: C_12  and  N_13 
REMARK    1  A    between atoms: N_13  and  C_14 
REMARK    2  A    between atoms: N_20  and  C_21 
ROOT
HETATM    1  N   UNK N   1      30.472  17.482   9.480  0.00  0.00    -0.289 N 
ATOM      2  HN  UNK N   1      31.347  17.215   9.933  1.00  0.00     0.187 HD
HETATM    3  C   UNK N   1      29.343  17.886  10.109  0.00  0.00     0.112 A 
HETATM    4  C   UNK N   1      28.370  18.173   9.154  0.00  0.00     0.070 A 
HETATM    5  C   UNK N   1      29.004  17.909   7.966  0.00  0.00     0.162 A 
HETATM    6  N   UNK N   1      30.248  17.493   8.182  0.00  0.00    -0.069 N 
HETATM    7  N   UNK N   1      28.505  18.052   6.724  0.00  0.00    -0.173 N 
ATOM      8  HN  UNK N   1      27.548  18.371   6.583  1.00  0.00     0.186 HD
HETATM    9  C   UNK N   1      29.304  17.761   5.661  0.00  0.00     0.699 A 
HETATM   10  N   UNK N   1      30.584  17.319   5.874  0.00  0.00    -0.020 N 
ATOM     11  HN  UNK N   1      31.178  17.097   5.075  1.00  0.00     0.203 HD
HETATM   12  C   UNK N   1      31.077  17.171   7.142  0.00  0.00     0.720 A 
HETATM   13  N   UNK N   1      32.435  16.732   7.290  0.00  0.00    -0.189 N 
HETATM   14  N   UNK N   1      28.824  17.927   4.330  0.00  0.00    -0.191 N 
HETATM   15  H   UNK N   1      32.937  16.716   6.444  0.00  0.00     0.184 HD
HETATM   16  H   UNK N   1      29.406  17.627   3.596  0.00  0.00     0.184 HD
ENDROOT
BRANCH  14  17
HETATM   17  C   UNK N   1      27.561  18.495   3.981  0.00  0.00     0.049 A 
HETATM   18  C   UNK N   1      26.414  17.700   3.802  0.00  0.00     0.030 A 
HETATM   19  C   UNK N   1      25.189  18.279   3.469  0.00  0.00     0.002 A 
HETATM   20  C   UNK N   1      25.095  19.663   3.311  0.00  0.00     0.000 A 
HETATM   21  C   UNK N   1      26.225  20.464   3.491  0.00  0.00     0.002 A 
HETATM   22  C   UNK N   1      27.454  19.882   3.826  0.00  0.00     0.030 A 
ENDBRANCH  14  17
BRANCH  13  23
HETATM   23  C   UNK N   1      33.209  16.312   8.417  0.00  0.00     0.049 A 
HETATM   24  C   UNK N   1      34.198  17.180   8.898  0.00  0.00     0.030 A 
HETATM   25  C   UNK N   1      34.993  16.821   9.992  0.00  0.00     0.002 A 
HETATM   26  C   UNK N   1      34.808  15.584  10.614  0.00  0.00     0.000 A 
HETATM   27  C   UNK N   1      33.838  14.705  10.133  0.00  0.00     0.002 A 
HETATM   28  C   UNK N   1      33.054  15.066   9.035  0.00  0.00     0.030 A 
ENDBRANCH  13  23
TORSDOF 2
ENDMDL
MODEL 2
REMARK VINA RESULT:      -7.4      1.016      7.908
REMARK  2 active torsions:
REMARK  status: ('A' for Active; 'I' for Inactive)
REMARK       I    between atoms: C_9  and  N_20 
REMARK       I    between atoms: C_12  and  N_13 
REMARK    1  A    between atoms: N_13  and  C_14 
REMARK    2  A    between atoms: N_20  and  C_21 
ROOT
HETATM    1  N   UNK N   1      28.314  18.149   7.809  0.00  0.00    -0.289 N 
ATOM      2  HN  UNK N   1      27.629  18.338   7.076  1.00  0.00     0.187 HD
HETATM    3  C   UNK N   1      28.118  18.303   9.140  0.00  0.00     0.112 A 
HETATM    4  C   UNK N   1      29.278  17.934   9.816  0.00  0.00     0.070 A 
HETATM    5  C   UNK N   1      30.132  17.569   8.805  0.00  0.00     0.162 A 
HETATM    6  N   UNK N   1      29.543  17.711   7.621  0.00  0.00    -0.069 N 
HETATM    7  N   UNK N   1      31.388  17.103   8.924  0.00  0.00    -0.173 N 
ATOM      8  HN  UNK N   1      31.820  17.004   9.842  1.00  0.00     0.186 HD
HETATM    9  C   UNK N   1      32.072  16.768   7.796  0.00  0.00     0.699 A 
HETATM   10  N   UNK N   1      31.478  16.923   6.570  0.00  0.00    -0.020 N 
ATOM     11  HN  UNK N   1      31.994  16.675   5.727  1.00  0.00     0.203 HD
HETATM   12  C   UNK N   1      30.201  17.404   6.462  0.00  0.00     0.720 A 
HETATM   13  N   UNK N   1      29.631  17.514   5.150  0.00  0.00    -0.189 N 
HETATM   14  N   UNK N   1      33.393  16.242   7.881  0.00  0.00    -0.191 N 
HETATM   15  H   UNK N   1      30.175  17.087   4.449  0.00  0.00     0.184 HD
HETATM   16  H   UNK N   1      33.878  16.092   7.038  0.00  0.00     0.184 HD
ENDROOT
BRANCH  14  17
HETATM   17  C   UNK N   1      34.069  15.920   9.097  0.00  0.00     0.049 A 
HETATM   18  C   UNK N   1      34.909  16.842   9.747  0.00  0.00     0.030 A 
HETATM   19  C   UNK N   1      35.552  16.506  10.939  0.00  0.00     0.002 A 
HETATM   20  C   UNK N   1      35.361  15.242  11.499  0.00  0.00     0.000 A 
HETATM   21  C   UNK N   1      34.525  14.318  10.866  0.00  0.00     0.002 A 
HETATM   22  C   UNK N   1      33.879  14.657   9.670  0.00  0.00     0.030 A 
ENDBRANCH  14  17
BRANCH  13  23
HETATM   23  C   UNK N   1      28.434  18.116   4.651  0.00  0.00     0.049 A 
HETATM   24  C   UNK N   1      27.409  17.273   4.200  0.00  0.00     0.030 A 
HETATM   25  C   UNK N   1      26.218  17.804   3.693  0.00  0.00     0.002 A 
HETATM   26  C   UNK N   1      26.042  19.188   3.629  0.00  0.00     0.000 A 
HETATM   27  C   UNK N   1      27.061  20.037   4.059  0.00  0.00     0.002 A 
HETATM   28  C   UNK N   1      28.252  19.500   4.555  0.00  0.00     0.030 A 
ENDBRANCH  13  23
TORSDOF 2
ENDMDL
MODEL 3
REMARK VINA RESULT:      -7.1      4.367      7.359
REMARK  2 active torsions:
REMARK  status: ('A' for Active; 'I' for Inactive)
REMARK       I    between atoms: C_9  and  N_20 
REMARK       I    between atoms: C_12  and  N_13 
REMARK    1  A    between atoms: N_13  and  C_14 
REMARK    2  A    between atoms: N_20  and  C_21 
ROOT
HETATM    1  N   UNK N   1      34.721  11.805  11.380  0.00  0.00    -0.289 N 
ATOM      2  HN  UNK N   1      35.019  11.438  12.284  1.00  0.00     0.187 HD
HETATM    3  C   UNK N   1      34.362  11.068  10.301  0.00  0.00     0.112 A 
HETATM    4  C   UNK N   1      34.010  11.926   9.262  0.00  0.00     0.070 A 
HETATM    5  C   UNK N   1      34.188  13.173   9.806  0.00  0.00     0.162 A 
HETATM    6  N   UNK N   1      34.618  13.079  11.061  0.00  0.00    -0.069 N 
HETATM    7  N   UNK N   1      33.958  14.362   9.218  0.00  0.00    -0.173 N 
ATOM      8  HN  UNK N   1      33.630  14.409   8.254  1.00  0.00     0.186 HD
HETATM    9  C   UNK N   1      34.173  15.499   9.935  0.00  0.00     0.699 A 
HETATM   10  N   UNK N   1      34.629  15.412  11.225  0.00  0.00    -0.020 N 
ATOM     11  HN  UNK N   1      34.793  16.266  11.758  1.00  0.00     0.203 HD
HETATM   12  C   UNK N   1      34.865  14.197  11.809  0.00  0.00     0.720 A 
HETATM   13  N   UNK N   1      35.313  14.181  13.173  0.00  0.00    -0.189 N 
HETATM   14  N   UNK N   1      33.913  16.775   9.360  0.00  0.00    -0.191 N 
HETATM   15  H   UNK N   1      35.269  15.061  13.611  0.00  0.00     0.184 HD
HETATM   16  H   UNK N   1      34.161  17.570   9.885  0.00  0.00     0.184 HD
ENDROOT
BRANCH  14  17
HETATM   17  C   UNK N   1      33.323  16.990   8.077  0.00  0.00     0.049 A 
HETATM   18  C   UNK N   1      34.102  17.250   6.935  0.00  0.00     0.030 A 
HETATM   19  C   UNK N   1      33.502  17.448   5.690  0.00  0.00     0.002 A 
HETATM   20  C   UNK N   1      32.113  17.387   5.572  0.00  0.00     0.000 A 
HETATM   21  C   UNK N   1      31.328  17.124   6.697  0.00  0.00     0.002 A 
HETATM   22  C   UNK N   1      31.930  16.924   7.945  0.00  0.00     0.030 A 
ENDBRANCH  14  17
BRANCH  13  23
HETATM   23  C   UNK N   1      35.811  13.147  14.025  0.00  0.00     0.049 A 
HETATM   24  C   UNK N   1      35.059  12.804  15.156  0.00  0.00     0.030 A 
HETATM   25  C   UNK N   1      35.499  11.807  16.033  0.00  0.00     0.002 A 
HETATM   26  C   UNK N   1      36.703  11.142  15.787  0.00  0.00     0.000 A 
HETATM   27  C   UNK N   1      37.469  11.486  14.673  0.00  0.00     0.002 A 
HETATM   28  C   UNK N   1      37.028  12.490  13.807  0.00  0.00     0.030 A 
ENDBRANCH  13  23
TORSDOF 2
ENDMDL
MODEL 4
REMARK VINA RESULT:      -6.9      2.649      8.242
REMARK  2 active torsions:
REMARK  status: ('A' for Active; 'I' for Inactive)
REMARK       I    between atoms: C_9  and  N_20 
REMARK       I    between atoms: C_12  and  N_13 
REMARK    1  A    between atoms: N_13  and  C_14 
REMARK    2  A    between atoms: N_20  and  C_21 
ROOT
HETATM    1  N   UNK N   1      25.655  20.130   5.755  0.00  0.00    -0.289 N 
ATOM      2  HN  UNK N   1      24.640  20.081   5.668  1.00  0.00     0.187 HD
HETATM    3  C   UNK N   1      26.375  21.236   6.061  0.00  0.00     0.112 A 
HETATM    4  C   UNK N   1      27.727  20.903   6.099  0.00  0.00     0.070 A 
HETATM    5  C   UNK N   1      27.732  19.563   5.799  0.00  0.00     0.162 A 
HETATM    6  N   UNK N   1      26.493  19.126   5.591  0.00  0.00    -0.069 N 
HETATM    7  N   UNK N   1      28.797  18.744   5.731  0.00  0.00    -0.173 N 
ATOM      8  HN  UNK N   1      29.738  19.102   5.893  1.00  0.00     0.186 HD
HETATM    9  C   UNK N   1      28.595  17.430   5.442  0.00  0.00     0.699 A 
HETATM   10  N   UNK N   1      27.323  16.972   5.213  0.00  0.00    -0.020 N 
ATOM     11  HN  UNK N   1      27.176  15.988   4.992  1.00  0.00     0.203 HD
HETATM   12  C   UNK N   1      26.248  17.817   5.278  0.00  0.00     0.720 A 
HETATM   13  N   UNK N   1      24.942  17.264   5.057  0.00  0.00    -0.189 N 
HETATM   14  N   UNK N   1      29.693  16.524   5.390  0.00  0.00    -0.191 N 
HETATM   15  H   UNK N   1      24.933  16.281   5.020  0.00  0.00     0.184 HD
HETATM   16  H   UNK N   1      29.510  15.603   5.096  0.00  0.00     0.184 HD
ENDROOT
BRANCH  14  17
HETATM   17  C   UNK N   1      31.041  16.853   5.729  0.00  0.00     0.049 A 
HETATM   18  C   UNK N   1      31.993  17.184   4.749  0.00  0.00     0.030 A 
HETATM   19  C   UNK N   1      33.303  17.510   5.106  0.00  0.00     0.002 A 
HETATM   20  C   UNK N   1      33.676  17.509   6.451  0.00  0.00     0.000 A 
HETATM   21  C   UNK N   1      32.738  17.186   7.435  0.00  0.00     0.002 A 
HETATM   22  C   UNK N   1      31.424  16.861   7.076  0.00  0.00     0.030 A 
ENDBRANCH  14  17
BRANCH  13  23
HETATM   23  C   UNK N   1      23.650  17.850   4.879  0.00  0.00     0.049 A 
HETATM   24  C   UNK N   1      23.446  18.670   3.761  0.00  0.00     0.030 A 
HETATM   25  C   UNK N   1      22.206  19.279   3.538  0.00  0.00     0.002 A 
HETATM   26  C   UNK N   1      21.156  19.075   4.435  0.00  0.00     0.000 A 
HETATM   27  C   UNK N   1      21.352  18.275   5.561  0.00  0.00     0.002 A 
HETATM   28  C   UNK N   1      22.596  17.678   5.783  0.00  0.00     0.030 A 
ENDBRANCH  13  23
TORSDOF 2
ENDMDL
MODEL 5
REMARK VINA RESULT:      -6.9      4.389     10.283
REMARK  2 active torsions:
REMARK  status: ('A' for Active; 'I' for Inactive)
REMARK       I    between atoms: C_9  and  N_20 
REMARK       I    between atoms: C_12  and  N_13 
REMARK    1  A    between atoms: N_13  and  C_14 
REMARK    2  A    between atoms: N_20  and  C_21 
ROOT
HETATM    1  N   UNK N   1      33.625  13.553   8.302  0.00  0.00    -0.289 N 
ATOM      2  HN  UNK N   1      33.351  14.190   7.553  1.00  0.00     0.187 HD
HETATM    3  C   UNK N   1      33.651  12.201   8.226  0.00  0.00     0.112 A 
HETATM    4  C   UNK N   1      34.089  11.686   9.444  0.00  0.00     0.070 A 
HETATM    5  C   UNK N   1      34.305  12.808  10.204  0.00  0.00     0.162 A 
HETATM    6  N   UNK N   1      34.016  13.906   9.510  0.00  0.00    -0.069 N 
HETATM    7  N   UNK N   1      34.765  12.864  11.467  0.00  0.00    -0.173 N 
ATOM      8  HN  UNK N   1      34.978  12.010  11.980  1.00  0.00     0.186 HD
HETATM    9  C   UNK N   1      34.938  14.084  12.047  0.00  0.00     0.699 A 
HETATM   10  N   UNK N   1      34.630  15.220  11.345  0.00  0.00    -0.020 N 
ATOM     11  HN  UNK N   1      34.756  16.131  11.784  1.00  0.00     0.203 HD
HETATM   12  C   UNK N   1      34.157  15.149  10.062  0.00  0.00     0.720 A 
HETATM   13  N   UNK N   1      33.884  16.379   9.375  0.00  0.00    -0.189 N 
HETATM   14  N   UNK N   1      35.450  14.187  13.372  0.00  0.00    -0.191 N 
HETATM   15  H   UNK N   1      34.206  17.176   9.855  0.00  0.00     0.184 HD
HETATM   16  H   UNK N   1      35.480  15.083  13.779  0.00  0.00     0.184 HD
ENDROOT
BRANCH  14  17
HETATM   17  C   UNK N   1      35.921  13.090  14.155  0.00  0.00     0.049 A 
HETATM   18  C   UNK N   1      37.111  12.410  13.841  0.00  0.00     0.030 A 
HETATM   19  C   UNK N   1      37.555  11.345  14.626  0.00  0.00     0.002 A 
HETATM   20  C   UNK N   1      36.813  10.948  15.740  0.00  0.00     0.000 A 
HETATM   21  C   UNK N   1      35.631  11.618  16.066  0.00  0.00     0.002 A 
HETATM   22  C   UNK N   1      35.188  12.687  15.278  0.00  0.00     0.030 A 
ENDBRANCH  14  17
BRANCH  13  23
HETATM   23  C   UNK N   1      33.238  16.685   8.136  0.00  0.00     0.049 A 
HETATM   24  C   UNK N   1      34.042  17.010   7.036  0.00  0.00     0.030 A 
HETATM   25  C   UNK N   1      33.468  17.327   5.800  0.00  0.00     0.002 A 
HETATM   26  C   UNK N   1      32.080  17.325   5.654  0.00  0.00     0.000 A 
HETATM   27  C   UNK N   1      31.268  17.020   6.747  0.00  0.00     0.002 A 
HETATM   28  C   UNK N   1      31.848  16.714   7.981  0.00  0.00     0.030 A 
ENDBRANCH  13  23
TORSDOF 2
ENDMDL
MODEL 6
REMARK VINA RESULT:      -6.8      1.730      3.236
REMARK  2 active torsions:
REMARK  status: ('A' for Active; 'I' for Inactive)
REMARK       I    between atoms: C_9  and  N_20 
REMARK       I    between atoms: C_12  and  N_13 
REMARK    1  A    between atoms: N_13  and  C_14 
REMARK    2  A    between atoms: N_20  and  C_21 
ROOT
HETATM    1  N   UNK N   1      33.950  16.045   7.164  0.00  0.00    -0.289 N 
ATOM      2  HN  UNK N   1      34.643  15.528   7.707  1.00  0.00     0.187 HD
HETATM    3  C   UNK N   1      34.097  16.469   5.887  0.00  0.00     0.112 A 
HETATM    4  C   UNK N   1      32.934  17.125   5.490  0.00  0.00     0.070 A 
HETATM    5  C   UNK N   1      32.133  17.051   6.601  0.00  0.00     0.162 A 
HETATM    6  N   UNK N   1      32.758  16.413   7.587  0.00  0.00    -0.069 N 
HETATM    7  N   UNK N   1      30.877  17.515   6.737  0.00  0.00    -0.173 N 
ATOM      8  HN  UNK N   1      30.419  18.003   5.968  1.00  0.00     0.186 HD
HETATM    9  C   UNK N   1      30.231  17.321   7.919  0.00  0.00     0.699 A 
HETATM   10  N   UNK N   1      30.872  16.676   8.945  0.00  0.00    -0.020 N 
ATOM     11  HN  UNK N   1      30.387  16.537   9.831  1.00  0.00     0.203 HD
HETATM   12  C   UNK N   1      32.152  16.214   8.797  0.00  0.00     0.720 A 
HETATM   13  N   UNK N   1      32.751  15.522   9.902  0.00  0.00    -0.189 N 
HETATM   14  N   UNK N   1      28.891  17.770   8.093  0.00  0.00    -0.191 N 
HETATM   15  H   UNK N   1      32.117  15.316  10.626  0.00  0.00     0.184 HD
HETATM   16  H   UNK N   1      28.494  17.683   8.989  0.00  0.00     0.184 HD
ENDROOT
BRANCH  14  17
HETATM   17  C   UNK N   1      28.080  18.341   7.065  0.00  0.00     0.049 A 
HETATM   18  C   UNK N   1      27.433  17.545   6.102  0.00  0.00     0.030 A 
HETATM   19  C   UNK N   1      26.639  18.126   5.112  0.00  0.00     0.002 A 
HETATM   20  C   UNK N   1      26.480  19.512   5.074  0.00  0.00     0.000 A 
HETATM   21  C   UNK N   1      27.113  20.313   6.027  0.00  0.00     0.002 A 
HETATM   22  C   UNK N   1      27.908  19.730   7.021  0.00  0.00     0.030 A 
ENDBRANCH  14  17
BRANCH  13  23
HETATM   23  C   UNK N   1      34.081  15.070  10.168  0.00  0.00     0.049 A 
HETATM   24  C   UNK N   1      35.017  16.006  10.628  0.00  0.00     0.030 A 
HETATM   25  C   UNK N   1      36.336  15.625  10.897  0.00  0.00     0.002 A 
HETATM   26  C   UNK N   1      36.734  14.301  10.703  0.00  0.00     0.000 A 
HETATM   27  C   UNK N   1      35.817  13.364  10.228  0.00  0.00     0.002 A 
HETATM   28  C   UNK N   1      34.503  13.753   9.953  0.00  0.00     0.030 A 
ENDBRANCH  13  23
TORSDOF 2
ENDMDL
MODEL 7
REMARK VINA RESULT:      -6.8      1.555      8.268
REMARK  2 active torsions:
REMARK  status: ('A' for Active; 'I' for Inactive)
REMARK       I    between atoms: C_9  and  N_20 
REMARK       I    between atoms: C_12  and  N_13 
REMARK    1  A    between atoms: N_13  and  C_14 
REMARK    2  A    between atoms: N_20  and  C_21 
ROOT
HETATM    1  N   UNK N   1      30.994  17.797   4.576  0.00  0.00    -0.289 N 
ATOM      2  HN  UNK N   1      30.153  18.239   4.203  1.00  0.00     0.187 HD
HETATM    3  C   UNK N   1      32.139  17.563   3.892  0.00  0.00     0.112 A 
HETATM    4  C   UNK N   1      33.060  16.955   4.742  0.00  0.00     0.070 A 
HETATM    5  C   UNK N   1      32.380  16.859   5.930  0.00  0.00     0.162 A 
HETATM    6  N   UNK N   1      31.152  17.357   5.808  0.00  0.00    -0.069 N 
HETATM    7  N   UNK N   1      32.835  16.364   7.096  0.00  0.00    -0.173 N 
ATOM      8  HN  UNK N   1      33.779  15.986   7.165  1.00  0.00     0.186 HD
HETATM    9  C   UNK N   1      32.011  16.378   8.179  0.00  0.00     0.699 A 
HETATM   10  N   UNK N   1      30.740  16.878   8.060  0.00  0.00    -0.020 N 
ATOM     11  HN  UNK N   1      30.124  16.882   8.872  1.00  0.00     0.203 HD
HETATM   12  C   UNK N   1      30.286  17.372   6.867  0.00  0.00     0.720 A 
HETATM   13  N   UNK N   1      28.955  17.907   6.821  0.00  0.00    -0.189 N 
HETATM   14  N   UNK N   1      32.465  15.891   9.438  0.00  0.00    -0.191 N 
HETATM   15  H   UNK N   1      28.539  17.999   7.708  0.00  0.00     0.184 HD
HETATM   16  H   UNK N   1      31.810  15.845  10.171  0.00  0.00     0.184 HD
ENDROOT
BRANCH  14  17
HETATM   17  C   UNK N   1      33.799  15.464   9.717  0.00  0.00     0.049 A 
HETATM   18  C   UNK N   1      34.767  16.342  10.237  0.00  0.00     0.030 A 
HETATM   19  C   UNK N   1      36.062  15.898  10.509  0.00  0.00     0.002 A 
HETATM   20  C   UNK N   1      36.405  14.568  10.266  0.00  0.00     0.000 A 
HETATM   21  C   UNK N   1      35.451  13.684   9.755  0.00  0.00     0.002 A 
HETATM   22  C   UNK N   1      34.152  14.129   9.483  0.00  0.00     0.030 A 
ENDBRANCH  14  17
BRANCH  13  23
HETATM   23  C   UNK N   1      28.109  18.333   5.750  0.00  0.00     0.049 A 
HETATM   24  C   UNK N   1      27.955  19.709   5.539  0.00  0.00     0.030 A 
HETATM   25  C   UNK N   1      27.134  20.187   4.512  0.00  0.00     0.002 A 
HETATM   26  C   UNK N   1      26.453  19.290   3.686  0.00  0.00     0.000 A 
HETATM   27  C   UNK N   1      26.585  17.917   3.898  0.00  0.00     0.002 A 
HETATM   28  C   UNK N   1      27.400  17.447   4.931  0.00  0.00     0.030 A 
ENDBRANCH  13  23
TORSDOF 2
ENDMDL
MODEL 8
REMARK VINA RESULT:      -6.7      1.416      2.756
REMARK  2 active torsions:
REMARK  status: ('A' for Active; 'I' for Inactive)
REMARK       I    between atoms: C_9  and  N_20 
REMARK       I    between atoms: C_12  and  N_13 
REMARK    1  A    between atoms: N_13  and  C_14 
REMARK    2  A    between atoms: N_20  and  C_21 
ROOT
HETATM    1  N   UNK N   1      31.738  16.220   5.601  0.00  0.00    -0.289 N 
ATOM      2  HN  UNK N   1      32.405  15.803   6.251  1.00  0.00     0.187 HD
HETATM    3  C   UNK N   1      31.771  16.114   4.251  0.00  0.00     0.112 A 
HETATM    4  C   UNK N   1      30.689  16.808   3.715  0.00  0.00     0.070 A 
HETATM    5  C   UNK N   1      30.052  17.308   4.823  0.00  0.00     0.162 A 
HETATM    6  N   UNK N   1      30.695  16.954   5.932  0.00  0.00    -0.069 N 
HETATM    7  N   UNK N   1      28.923  18.039   4.856  0.00  0.00    -0.173 N 
ATOM      8  HN  UNK N   1      28.448  18.300   3.993  1.00  0.00     0.186 HD
HETATM    9  C   UNK N   1      28.428  18.424   6.064  0.00  0.00     0.699 A 
HETATM   10  N   UNK N   1      29.091  18.075   7.213  0.00  0.00    -0.020 N 
ATOM     11  HN  UNK N   1      28.720  18.370   8.116  1.00  0.00     0.203 HD
HETATM   12  C   UNK N   1      30.243  17.337   7.165  0.00  0.00     0.720 A 
HETATM   13  N   UNK N   1      30.868  16.982   8.407  0.00  0.00    -0.189 N 
HETATM   14  N   UNK N   1      27.219  19.173   6.145  0.00  0.00    -0.191 N 
HETATM   15  H   UNK N   1      30.318  17.188   9.196  0.00  0.00     0.184 HD
HETATM   16  H   UNK N   1      26.944  19.500   7.032  0.00  0.00     0.184 HD
ENDROOT
BRANCH  14  17
HETATM   17  C   UNK N   1      26.377  19.489   5.035  0.00  0.00     0.049 A 
HETATM   18  C   UNK N   1      26.769  20.406   4.044  0.00  0.00     0.030 A 
HETATM   19  C   UNK N   1      25.931  20.693   2.964  0.00  0.00     0.002 A 
HETATM   20  C   UNK N   1      24.691  20.062   2.862  0.00  0.00     0.000 A 
HETATM   21  C   UNK N   1      24.292  19.145   3.838  0.00  0.00     0.002 A 
HETATM   22  C   UNK N   1      25.133  18.857   4.920  0.00  0.00     0.030 A 
ENDBRANCH  14  17
BRANCH  13  23
HETATM   23  C   UNK N   1      32.129  16.391   8.733  0.00  0.00     0.049 A 
HETATM   24  C   UNK N   1      33.264  17.212   8.721  0.00  0.00     0.030 A 
HETATM   25  C   UNK N   1      34.527  16.689   9.023  0.00  0.00     0.002 A 
HETATM   26  C   UNK N   1      34.666  15.335   9.336  0.00  0.00     0.000 A 
HETATM   27  C   UNK N   1      33.545  14.505   9.334  0.00  0.00     0.002 A 
HETATM   28  C   UNK N   1      32.289  15.031   9.022  0.00  0.00     0.030 A 
ENDBRANCH  13  23
TORSDOF 2
ENDMDL
MODEL 9
REMARK VINA RESULT:      -6.7      3.230      5.653
REMARK  2 active torsions:
REMARK  status: ('A' for Active; 'I' for Inactive)
REMARK       I    between atoms: C_9  and  N_20 
REMARK       I    between atoms: C_12  and  N_13 
REMARK    1  A    between atoms: N_13  and  C_14 
REMARK    2  A    between atoms: N_20  and  C_21 
ROOT
HETATM    1  N   UNK N   1      27.512  18.955   5.159  0.00  0.00    -0.289 N 
ATOM      2  HN  UNK N   1      28.317  18.942   5.786  1.00  0.00     0.187 HD
HETATM    3  C   UNK N   1      27.297  19.844   4.160  0.00  0.00     0.112 A 
HETATM    4  C   UNK N   1      26.100  19.528   3.521  0.00  0.00     0.070 A 
HETATM    5  C   UNK N   1      25.655  18.427   4.207  0.00  0.00     0.162 A 
HETATM    6  N   UNK N   1      26.504  18.107   5.181  0.00  0.00    -0.069 N 
HETATM    7  N   UNK N   1      24.541  17.710   3.969  0.00  0.00    -0.173 N 
ATOM      8  HN  UNK N   1      23.904  17.975   3.219  1.00  0.00     0.186 HD
HETATM    9  C   UNK N   1      24.281  16.626   4.750  0.00  0.00     0.699 A 
HETATM   10  N   UNK N   1      25.143  16.296   5.764  0.00  0.00    -0.020 N 
ATOM     11  HN  UNK N   1      24.943  15.486   6.350  1.00  0.00     0.203 HD
HETATM   12  C   UNK N   1      26.270  17.037   6.000  0.00  0.00     0.720 A 
HETATM   13  N   UNK N   1      27.143  16.618   7.059  0.00  0.00    -0.189 N 
HETATM   14  N   UNK N   1      23.129  15.823   4.512  0.00  0.00    -0.191 N 
HETATM   15  H   UNK N   1      26.916  15.734   7.428  0.00  0.00     0.184 HD
HETATM   16  H   UNK N   1      22.938  15.100   5.151  0.00  0.00     0.184 HD
ENDROOT
BRANCH  14  17
HETATM   17  C   UNK N   1      22.228  15.990   3.416  0.00  0.00     0.049 A 
HETATM   18  C   UNK N   1      21.337  17.076   3.347  0.00  0.00     0.030 A 
HETATM   19  C   UNK N   1      20.471  17.222   2.262  0.00  0.00     0.002 A 
HETATM   20  C   UNK N   1      20.488  16.283   1.229  0.00  0.00     0.000 A 
HETATM   21  C   UNK N   1      21.373  15.203   1.283  0.00  0.00     0.002 A 
HETATM   22  C   UNK N   1      22.242  15.058   2.372  0.00  0.00     0.030 A 
ENDBRANCH  14  17
BRANCH  13  23
HETATM   23  C   UNK N   1      28.277  17.221   7.688  0.00  0.00     0.049 A 
HETATM   24  C   UNK N   1      29.547  16.941   7.167  0.00  0.00     0.030 A 
HETATM   25  C   UNK N   1      30.694  17.495   7.745  0.00  0.00     0.002 A 
HETATM   26  C   UNK N   1      30.581  18.334   8.856  0.00  0.00     0.000 A 
HETATM   27  C   UNK N   1      29.324  18.606   9.394  0.00  0.00     0.002 A 
HETATM   28  C   UNK N   1      28.183  18.041   8.818  0.00  0.00     0.030 A 
ENDBRANCH  13  23
TORSDOF 2
ENDMDL
