REMARK  7 active torsions:
REMARK  status: ('A' for Active; 'I' for Inactive)
REMARK    1  A    between atoms: C_1  and  N_24 
REMARK       I    between atoms: C_3  and  N_24 
REMARK    2  A    between atoms: C_6  and  C_9 
REMARK    3  A    between atoms: C_12  and  N_13 
REMARK    4  A    between atoms: C_14  and  N_13 
REMARK    5  A    between atoms: C_18  and  N_19 
REMARK    6  A    between atoms: C_28  and  S_29 
REMARK    7  A    between atoms: S_29  and  N_32 
ROOT
HETATM    1  C   UNK N   1      -1.382   1.569  -0.600  0.00  0.00     0.684 A 
HETATM    2  C   UNK N   1       0.016   0.008  -1.692  0.00  0.00     0.126 A 
HETATM    3  C   UNK N   1      -0.250  -0.949  -0.716  0.00  0.00     0.107 A 
HETATM    4  N   UNK N   1      -0.533   1.242  -1.608  0.00  0.00    -0.201 N 
ATOM      5  HN  UNK N   1      -0.305   1.940  -2.316  1.00  0.00     0.183 HD
HETATM    6  C   UNK N   1      -1.185  -0.611   0.301  0.00  0.00     0.134 A 
HETATM    7  N   UNK N   1      -1.692   0.650   0.342  0.00  0.00    -0.176 N 
ATOM      8  HN  UNK N   1      -2.321   0.909   1.101  1.00  0.00     0.186 HD
HETATM    9  N   UNK N   1      -1.530   2.940  -0.282  0.00  0.00    -0.192 N 
HETATM   10  H   UNK N   1      -2.392   3.409  -0.352  0.00  0.00     0.184 HD
ENDROOT
BRANCH   9  11
HETATM   11  C   UNK N   1      -0.341   3.587   0.145  0.00  0.00     0.049 A 
HETATM   12  C   UNK N   1      -0.081   4.917  -0.199  0.00  0.00     0.031 A 
HETATM   13  C   UNK N   1       1.210   5.437  -0.008  0.00  0.00     0.027 A 
HETATM   14  C   UNK N   1       2.221   4.627   0.537  0.00  0.00     0.079 A 
HETATM   15  C   UNK N   1       1.935   3.330   0.943  0.00  0.00     0.027 A 
HETATM   16  C   UNK N   1       0.671   2.817   0.748  0.00  0.00     0.031 A 
BRANCH  14  17
HETATM   17  S   UNK N   1       3.929   5.130   0.504  0.00  0.00     0.258 S 
HETATM   18  O   UNK N   1       5.022   4.138   0.934  0.00  0.00    -0.201 OA
HETATM   19  O   UNK N   1       3.928   4.427  -0.863  0.00  0.00    -0.201 OA
BRANCH  17  20
HETATM   20  N   UNK N   1       4.631   6.503  -0.347  0.00  0.00    -0.320 N 
HETATM   21  C   UNK N   1       5.125   7.418   0.663  0.00  0.00     0.159 C 
HETATM   22  H   UNK N   1       4.681   6.631  -1.357  0.00  0.00     0.171 HD
ENDBRANCH  17  20
ENDBRANCH  14  17
ENDBRANCH   9  11
BRANCH   6  23
HETATM   23  N   UNK N   1      -1.521  -1.493   1.358  0.00  0.00    -0.368 N 
HETATM   24  H   UNK N   1      -1.021  -1.397   2.200  0.00  0.00     0.161 HD
BRANCH  23  25
HETATM   25  C   UNK N   1      -2.543  -2.528   1.305  0.00  0.00     0.116 C 
HETATM   26  C   UNK N   1      -1.896  -3.865   1.628  0.00  0.00     0.027 C 
HETATM   27  C   UNK N   1      -2.310  -4.825   0.533  0.00  0.00     0.004 C 
HETATM   28  C   UNK N   1      -3.541  -4.202  -0.076  0.00  0.00     0.038 C 
HETATM   29  C   UNK N   1      -3.265  -2.709  -0.054  0.00  0.00     0.244 C 
BRANCH  29  30
HETATM   30  N   UNK N   1      -4.541  -1.969  -0.143  0.00  0.00     0.086 N 
HETATM   31  C   UNK N   1      -5.201  -2.251  -1.413  0.00  0.00     0.310 C 
HETATM   32  C   UNK N   1      -4.340  -0.532  -0.099  0.00  0.00     0.310 C 
ENDBRANCH  29  30
ENDBRANCH  23  25
ENDBRANCH   6  23
BRANCH   3  33
HETATM   33  C   UNK N   1       0.540  -2.235  -0.793  0.00  0.00     0.422 C 
HETATM   34  F   UNK N   1       0.289  -3.093   0.250  0.00  0.00    -0.166 F 
HETATM   35  F   UNK N   1       0.269  -2.881  -1.984  0.00  0.00    -0.166 F 
HETATM   36  F   UNK N   1       1.890  -1.925  -0.755  0.00  0.00    -0.166 F 
ENDBRANCH   3  33
TORSDOF 7
