MODEL 1
REMARK VINA RESULT:      -8.2      0.000      0.000
REMARK  7 active torsions:
REMARK  status: ('A' for Active; 'I' for Inactive)
REMARK    1  A    between atoms: C_1  and  N_24 
REMARK       I    between atoms: C_3  and  N_24 
REMARK    2  A    between atoms: C_6  and  C_9 
REMARK    3  A    between atoms: C_12  and  N_13 
REMARK    4  A    between atoms: C_14  and  N_13 
REMARK    5  A    between atoms: C_18  and  N_19 
REMARK    6  A    between atoms: C_28  and  S_29 
REMARK    7  A    between atoms: S_29  and  N_32 
ROOT
HETATM    1  C   UNK N   1      28.085  19.641   4.685  0.00  0.00     0.684 A 
HETATM    2  C   UNK N   1      27.759  19.625   7.025  0.00  0.00     0.126 A 
HETATM    3  C   UNK N   1      28.431  18.410   7.134  0.00  0.00     0.107 A 
HETATM    4  N   UNK N   1      27.583  20.203   5.814  0.00  0.00    -0.201 N 
ATOM      5  HN  UNK N   1      27.063  21.078   5.749  1.00  0.00     0.183 HD
HETATM    6  C   UNK N   1      29.000  17.863   5.951  0.00  0.00     0.134 A 
HETATM    7  N   UNK N   1      28.777  18.482   4.761  0.00  0.00    -0.176 N 
ATOM      8  HN  UNK N   1      29.139  18.062   3.906  1.00  0.00     0.186 HD
HETATM    9  N   UNK N   1      27.483  19.989   3.452  0.00  0.00    -0.192 N 
HETATM   10  H   UNK N   1      27.979  20.436   2.729  0.00  0.00     0.184 HD
ENDROOT
BRANCH   9  11
HETATM   11  C   UNK N   1      26.110  19.646   3.338  0.00  0.00     0.049 A 
HETATM   12  C   UNK N   1      25.158  20.600   2.967  0.00  0.00     0.031 A 
HETATM   13  C   UNK N   1      23.793  20.311   3.135  0.00  0.00     0.027 A 
HETATM   14  C   UNK N   1      23.397  19.068   3.658  0.00  0.00     0.079 A 
HETATM   15  C   UNK N   1      24.347  18.099   3.955  0.00  0.00     0.027 A 
HETATM   16  C   UNK N   1      25.686  18.386   3.799  0.00  0.00     0.031 A 
BRANCH  14  17
HETATM   17  S   UNK N   1      21.720  18.776   4.181  0.00  0.00     0.258 S 
HETATM   18  O   UNK N   1      21.220  19.382   5.503  0.00  0.00    -0.201 OA
HETATM   19  O   UNK N   1      21.465  20.148   3.538  0.00  0.00    -0.201 OA
BRANCH  17  20
HETATM   20  N   UNK N   1      20.369  18.210   3.203  0.00  0.00    -0.320 N 
HETATM   21  C   UNK N   1      19.642  19.385   2.767  0.00  0.00     0.159 C 
HETATM   22  H   UNK N   1      20.142  17.241   2.984  0.00  0.00     0.171 HD
ENDBRANCH  17  20
ENDBRANCH  14  17
ENDBRANCH   9  11
BRANCH   6  23
HETATM   23  N   UNK N   1      29.689  16.625   5.933  0.00  0.00    -0.368 N 
HETATM   24  H   UNK N   1      29.163  15.815   6.119  0.00  0.00     0.161 HD
BRANCH  23  25
HETATM   25  C   UNK N   1      31.108  16.449   5.663  0.00  0.00     0.116 C 
HETATM   26  C   UNK N   1      31.869  16.563   6.974  0.00  0.00     0.027 C 
HETATM   27  C   UNK N   1      32.988  17.558   6.743  0.00  0.00     0.004 C 
HETATM   28  C   UNK N   1      33.162  17.596   5.246  0.00  0.00     0.038 C 
HETATM   29  C   UNK N   1      31.753  17.472   4.693  0.00  0.00     0.244 C 
BRANCH  29  30
HETATM   30  N   UNK N   1      31.810  16.997   3.295  0.00  0.00     0.086 N 
HETATM   31  C   UNK N   1      30.764  16.010   3.053  0.00  0.00     0.310 C 
HETATM   32  C   UNK N   1      33.069  16.338   2.996  0.00  0.00     0.310 C 
ENDBRANCH  29  30
ENDBRANCH  23  25
ENDBRANCH   6  23
BRANCH   3  33
HETATM   33  C   UNK N   1      28.428  17.753   8.495  0.00  0.00     0.422 C 
HETATM   34  F   UNK N   1      27.726  16.573   8.530  0.00  0.00    -0.166 F 
HETATM   35  F   UNK N   1      29.727  17.517   8.905  0.00  0.00    -0.166 F 
HETATM   36  F   UNK N   1      27.829  18.615   9.399  0.00  0.00    -0.166 F 
ENDBRANCH   3  33
TORSDOF 7
ENDMDL
MODEL 2
REMARK VINA RESULT:      -8.1      0.965      1.960
REMARK  7 active torsions:
REMARK  status: ('A' for Active; 'I' for Inactive)
REMARK    1  A    between atoms: C_1  and  N_24 
REMARK       I    between atoms: C_3  and  N_24 
REMARK    2  A    between atoms: C_6  and  C_9 
REMARK    3  A    between atoms: C_12  and  N_13 
REMARK    4  A    between atoms: C_14  and  N_13 
REMARK    5  A    between atoms: C_18  and  N_19 
REMARK    6  A    between atoms: C_28  and  S_29 
REMARK    7  A    between atoms: S_29  and  N_32 
ROOT
HETATM    1  C   UNK N   1      27.806  19.928   4.527  0.00  0.00     0.684 A 
HETATM    2  C   UNK N   1      27.632  19.802   6.880  0.00  0.00     0.126 A 
HETATM    3  C   UNK N   1      28.422  18.656   6.902  0.00  0.00     0.107 A 
HETATM    4  N   UNK N   1      27.326  20.400   5.706  0.00  0.00    -0.201 N 
ATOM      5  HN  UNK N   1      26.722  21.223   5.706  1.00  0.00     0.183 HD
HETATM    6  C   UNK N   1      28.965  18.206   5.666  0.00  0.00     0.134 A 
HETATM    7  N   UNK N   1      28.609  18.840   4.517  0.00  0.00    -0.176 N 
ATOM      8  HN  UNK N   1      28.955  18.486   3.626  1.00  0.00     0.186 HD
HETATM    9  N   UNK N   1      27.098  20.257   3.347  0.00  0.00    -0.192 N 
HETATM   10  H   UNK N   1      27.502  20.773   2.614  0.00  0.00     0.184 HD
ENDROOT
BRANCH   9  11
HETATM   11  C   UNK N   1      25.760  19.786   3.302  0.00  0.00     0.049 A 
HETATM   12  C   UNK N   1      24.715  20.621   2.894  0.00  0.00     0.031 A 
HETATM   13  C   UNK N   1      23.387  20.225   3.126  0.00  0.00     0.027 A 
HETATM   14  C   UNK N   1      23.119  18.994   3.748  0.00  0.00     0.079 A 
HETATM   15  C   UNK N   1      24.160  18.138   4.083  0.00  0.00     0.027 A 
HETATM   16  C   UNK N   1      25.463  18.530   3.864  0.00  0.00     0.031 A 
BRANCH  14  17
HETATM   17  S   UNK N   1      21.489  18.593   4.345  0.00  0.00     0.258 S 
HETATM   18  O   UNK N   1      21.076  19.013   5.765  0.00  0.00    -0.201 OA
HETATM   19  O   UNK N   1      21.165  20.030   3.903  0.00  0.00    -0.201 OA
BRANCH  17  20
HETATM   20  N   UNK N   1      20.082  18.121   3.397  0.00  0.00    -0.320 N 
HETATM   21  C   UNK N   1      19.616  19.311   2.711  0.00  0.00     0.159 C 
HETATM   22  H   UNK N   1      19.671  17.190   3.341  0.00  0.00     0.171 HD
ENDBRANCH  17  20
ENDBRANCH  14  17
ENDBRANCH   9  11
BRANCH   6  23
HETATM   23  N   UNK N   1      29.766  17.042   5.559  0.00  0.00    -0.368 N 
HETATM   24  H   UNK N   1      29.306  16.198   5.347  0.00  0.00     0.161 HD
BRANCH  23  25
HETATM   25  C   UNK N   1      31.210  16.989   5.733  0.00  0.00     0.116 C 
HETATM   26  C   UNK N   1      31.870  17.549   4.484  0.00  0.00     0.027 C 
HETATM   27  C   UNK N   1      32.907  16.536   4.047  0.00  0.00     0.004 C 
HETATM   28  C   UNK N   1      33.174  15.708   5.279  0.00  0.00     0.038 C 
HETATM   29  C   UNK N   1      31.821  15.582   5.957  0.00  0.00     0.244 C 
BRANCH  29  30
HETATM   30  N   UNK N   1      32.012  15.246   7.383  0.00  0.00     0.086 N 
HETATM   31  C   UNK N   1      32.698  16.335   8.071  0.00  0.00     0.310 C 
HETATM   32  C   UNK N   1      32.842  14.068   7.557  0.00  0.00     0.310 C 
ENDBRANCH  29  30
ENDBRANCH  23  25
ENDBRANCH   6  23
BRANCH   3  33
HETATM   33  C   UNK N   1      28.568  17.956   8.233  0.00  0.00     0.422 C 
HETATM   34  F   UNK N   1      29.871  17.853   8.656  0.00  0.00    -0.166 F 
HETATM   35  F   UNK N   1      27.833  18.622   9.195  0.00  0.00    -0.166 F 
HETATM   36  F   UNK N   1      28.072  16.668   8.110  0.00  0.00    -0.166 F 
ENDBRANCH   3  33
TORSDOF 7
ENDMDL
MODEL 3
REMARK VINA RESULT:      -7.6     10.448     13.374
REMARK  7 active torsions:
REMARK  status: ('A' for Active; 'I' for Inactive)
REMARK    1  A    between atoms: C_1  and  N_24 
REMARK       I    between atoms: C_3  and  N_24 
REMARK    2  A    between atoms: C_6  and  C_9 
REMARK    3  A    between atoms: C_12  and  N_13 
REMARK    4  A    between atoms: C_14  and  N_13 
REMARK    5  A    between atoms: C_18  and  N_19 
REMARK    6  A    between atoms: C_28  and  S_29 
REMARK    7  A    between atoms: S_29  and  N_32 
ROOT
HETATM    1  C   UNK N   1      36.773  13.121  12.955  0.00  0.00     0.684 A 
HETATM    2  C   UNK N   1      36.683  14.240  15.034  0.00  0.00     0.126 A 
HETATM    3  C   UNK N   1      35.890  13.229  15.571  0.00  0.00     0.107 A 
HETATM    4  N   UNK N   1      37.090  14.179  13.745  0.00  0.00    -0.201 N 
ATOM      5  HN  UNK N   1      37.646  14.942  13.359  1.00  0.00     0.183 HD
HETATM    6  C   UNK N   1      35.615  12.101  14.750  0.00  0.00     0.134 A 
HETATM    7  N   UNK N   1      36.038  12.103  13.457  0.00  0.00    -0.176 N 
ATOM      8  HN  UNK N   1      35.796  11.320  12.853  1.00  0.00     0.186 HD
HETATM    9  N   UNK N   1      36.786  13.318  11.554  0.00  0.00    -0.192 N 
HETATM   10  H   UNK N   1      37.384  12.816  10.955  0.00  0.00     0.184 HD
ENDROOT
BRANCH   9  11
HETATM   11  C   UNK N   1      35.873  14.294  11.078  0.00  0.00     0.049 A 
HETATM   12  C   UNK N   1      34.734  13.924  10.356  0.00  0.00     0.031 A 
HETATM   13  C   UNK N   1      34.008  14.908   9.664  0.00  0.00     0.027 A 
HETATM   14  C   UNK N   1      34.421  16.251   9.713  0.00  0.00     0.079 A 
HETATM   15  C   UNK N   1      35.510  16.620  10.491  0.00  0.00     0.027 A 
HETATM   16  C   UNK N   1      36.227  15.654  11.163  0.00  0.00     0.031 A 
BRANCH  14  17
HETATM   17  S   UNK N   1      33.734  17.471   8.612  0.00  0.00     0.258 S 
HETATM   18  O   UNK N   1      34.641  18.571   8.037  0.00  0.00    -0.201 OA
HETATM   19  O   UNK N   1      34.288  16.542   7.519  0.00  0.00    -0.201 OA
BRANCH  17  20
HETATM   20  N   UNK N   1      32.212  17.390   7.729  0.00  0.00    -0.320 N 
HETATM   21  C   UNK N   1      31.182  17.892   8.617  0.00  0.00     0.159 C 
HETATM   22  H   UNK N   1      32.080  17.054   6.776  0.00  0.00     0.171 HD
ENDBRANCH  17  20
ENDBRANCH  14  17
ENDBRANCH   9  11
BRANCH   6  23
HETATM   23  N   UNK N   1      34.805  11.020  15.178  0.00  0.00    -0.368 N 
HETATM   24  H   UNK N   1      33.833  11.108  15.050  0.00  0.00     0.161 HD
BRANCH  23  25
HETATM   25  C   UNK N   1      35.287   9.790  15.788  0.00  0.00     0.116 C 
HETATM   26  C   UNK N   1      34.553   9.581  17.103  0.00  0.00     0.027 C 
HETATM   27  C   UNK N   1      35.610   9.318  18.155  0.00  0.00     0.004 C 
HETATM   28  C   UNK N   1      36.825   8.883  17.375  0.00  0.00     0.038 C 
HETATM   29  C   UNK N   1      36.800   9.737  16.119  0.00  0.00     0.244 C 
BRANCH  29  30
HETATM   30  N   UNK N   1      37.609   9.089  15.065  0.00  0.00     0.086 N 
HETATM   31  C   UNK N   1      38.231   7.875  15.580  0.00  0.00     0.310 C 
HETATM   32  C   UNK N   1      38.693   9.941  14.612  0.00  0.00     0.310 C 
ENDBRANCH  29  30
ENDBRANCH  23  25
ENDBRANCH   6  23
BRANCH   3  33
HETATM   33  C   UNK N   1      35.338  13.464  16.958  0.00  0.00     0.422 C 
HETATM   34  F   UNK N   1      35.634  12.454  17.841  0.00  0.00    -0.166 F 
HETATM   35  F   UNK N   1      35.820  14.658  17.459  0.00  0.00    -0.166 F 
HETATM   36  F   UNK N   1      33.957  13.544  16.873  0.00  0.00    -0.166 F 
ENDBRANCH   3  33
TORSDOF 7
ENDMDL
MODEL 4
REMARK VINA RESULT:      -7.6      1.765      2.459
REMARK  7 active torsions:
REMARK  status: ('A' for Active; 'I' for Inactive)
REMARK    1  A    between atoms: C_1  and  N_24 
REMARK       I    between atoms: C_3  and  N_24 
REMARK    2  A    between atoms: C_6  and  C_9 
REMARK    3  A    between atoms: C_12  and  N_13 
REMARK    4  A    between atoms: C_14  and  N_13 
REMARK    5  A    between atoms: C_18  and  N_19 
REMARK    6  A    between atoms: C_28  and  S_29 
REMARK    7  A    between atoms: S_29  and  N_32 
ROOT
HETATM    1  C   UNK N   1      27.698  19.972   4.439  0.00  0.00     0.684 A 
HETATM    2  C   UNK N   1      27.583  19.795   6.793  0.00  0.00     0.126 A 
HETATM    3  C   UNK N   1      28.383  18.656   6.770  0.00  0.00     0.107 A 
HETATM    4  N   UNK N   1      27.243  20.415   5.639  0.00  0.00    -0.201 N 
ATOM      5  HN  UNK N   1      26.633  21.232   5.672  1.00  0.00     0.183 HD
HETATM    6  C   UNK N   1      28.898  18.237   5.513  0.00  0.00     0.134 A 
HETATM    7  N   UNK N   1      28.508  18.891   4.386  0.00  0.00    -0.176 N 
ATOM      8  HN  UNK N   1      28.835  18.559   3.480  1.00  0.00     0.186 HD
HETATM    9  N   UNK N   1      26.957  20.319   3.285  0.00  0.00    -0.192 N 
HETATM   10  H   UNK N   1      27.339  20.854   2.553  0.00  0.00     0.184 HD
ENDROOT
BRANCH   9  11
HETATM   11  C   UNK N   1      25.622  19.838   3.263  0.00  0.00     0.049 A 
HETATM   12  C   UNK N   1      24.563  20.666   2.877  0.00  0.00     0.031 A 
HETATM   13  C   UNK N   1      23.243  20.258   3.132  0.00  0.00     0.027 A 
HETATM   14  C   UNK N   1      22.996  19.023   3.756  0.00  0.00     0.079 A 
HETATM   15  C   UNK N   1      24.050  18.175   4.069  0.00  0.00     0.027 A 
HETATM   16  C   UNK N   1      25.346  18.578   3.827  0.00  0.00     0.031 A 
BRANCH  14  17
HETATM   17  S   UNK N   1      21.381  18.608   4.381  0.00  0.00     0.258 S 
HETATM   18  O   UNK N   1      20.999  18.999   5.818  0.00  0.00    -0.201 OA
HETATM   19  O   UNK N   1      21.045  20.052   3.974  0.00  0.00    -0.201 OA
BRANCH  17  20
HETATM   20  N   UNK N   1      19.953  18.152   3.457  0.00  0.00    -0.320 N 
HETATM   21  C   UNK N   1      19.656  16.773   3.792  0.00  0.00     0.159 C 
HETATM   22  H   UNK N   1      19.434  18.743   2.809  0.00  0.00     0.171 HD
ENDBRANCH  17  20
ENDBRANCH  14  17
ENDBRANCH   9  11
BRANCH   6  23
HETATM   23  N   UNK N   1      29.706  17.082   5.361  0.00  0.00    -0.368 N 
HETATM   24  H   UNK N   1      30.680  17.202   5.432  0.00  0.00     0.161 HD
BRANCH  23  25
HETATM   25  C   UNK N   1      29.218  15.735   5.109  0.00  0.00     0.116 C 
HETATM   26  C   UNK N   1      30.234  14.742   5.649  0.00  0.00     0.027 C 
HETATM   27  C   UNK N   1      30.513  13.755   4.536  0.00  0.00     0.004 C 
HETATM   28  C   UNK N   1      29.329  13.878   3.610  0.00  0.00     0.038 C 
HETATM   29  C   UNK N   1      28.984  15.357   3.624  0.00  0.00     0.244 C 
BRANCH  29  30
HETATM   30  N   UNK N   1      27.586  15.543   3.185  0.00  0.00     0.086 N 
HETATM   31  C   UNK N   1      26.666  15.128   4.238  0.00  0.00     0.310 C 
HETATM   32  C   UNK N   1      27.268  14.730   2.025  0.00  0.00     0.310 C 
ENDBRANCH  29  30
ENDBRANCH  23  25
ENDBRANCH   6  23
BRANCH   3  33
HETATM   33  C   UNK N   1      28.568  17.930   8.083  0.00  0.00     0.422 C 
HETATM   34  F   UNK N   1      28.149  18.656   9.172  0.00  0.00    -0.166 F 
HETATM   35  F   UNK N   1      27.887  16.728   8.053  0.00  0.00    -0.166 F 
HETATM   36  F   UNK N   1      29.918  17.670   8.256  0.00  0.00    -0.166 F 
ENDBRANCH   3  33
TORSDOF 7
ENDMDL
MODEL 5
REMARK VINA RESULT:      -7.5      6.775     10.557
REMARK  7 active torsions:
REMARK  status: ('A' for Active; 'I' for Inactive)
REMARK    1  A    between atoms: C_1  and  N_24 
REMARK       I    between atoms: C_3  and  N_24 
REMARK    2  A    between atoms: C_6  and  C_9 
REMARK    3  A    between atoms: C_12  and  N_13 
REMARK    4  A    between atoms: C_14  and  N_13 
REMARK    5  A    between atoms: C_18  and  N_19 
REMARK    6  A    between atoms: C_28  and  S_29 
REMARK    7  A    between atoms: S_29  and  N_32 
ROOT
HETATM    1  C   UNK N   1      32.587  17.421   7.669  0.00  0.00     0.684 A 
HETATM    2  C   UNK N   1      33.419  17.417   5.457  0.00  0.00     0.126 A 
HETATM    3  C   UNK N   1      32.315  16.691   5.018  0.00  0.00     0.107 A 
HETATM    4  N   UNK N   1      33.544  17.749   6.763  0.00  0.00    -0.201 N 
ATOM      5  HN  UNK N   1      34.373  18.256   7.073  1.00  0.00     0.183 HD
HETATM    6  C   UNK N   1      31.295  16.405   5.966  0.00  0.00     0.134 A 
HETATM    7  N   UNK N   1      31.484  16.750   7.267  0.00  0.00    -0.176 N 
ATOM      8  HN  UNK N   1      30.777  16.499   7.957  1.00  0.00     0.186 HD
HETATM    9  N   UNK N   1      32.967  17.345   9.030  0.00  0.00    -0.192 N 
HETATM   10  H   UNK N   1      32.572  17.923   9.722  0.00  0.00     0.184 HD
ENDROOT
BRANCH   9  11
HETATM   11  C   UNK N   1      33.959  16.373   9.321  0.00  0.00     0.049 A 
HETATM   12  C   UNK N   1      33.728  15.014   9.087  0.00  0.00     0.031 A 
HETATM   13  C   UNK N   1      34.602  14.063   9.639  0.00  0.00     0.027 A 
HETATM   14  C   UNK N   1      35.704  14.481  10.405  0.00  0.00     0.079 A 
HETATM   15  C   UNK N   1      35.967  15.834  10.571  0.00  0.00     0.027 A 
HETATM   16  C   UNK N   1      35.105  16.767  10.037  0.00  0.00     0.031 A 
BRANCH  14  17
HETATM   17  S   UNK N   1      36.647  13.325  11.378  0.00  0.00     0.258 S 
HETATM   18  O   UNK N   1      35.931  12.154  12.071  0.00  0.00    -0.201 OA
HETATM   19  O   UNK N   1      36.620  12.487  10.090  0.00  0.00    -0.201 OA
BRANCH  17  20
HETATM   20  N   UNK N   1      38.389  13.068  11.357  0.00  0.00    -0.320 N 
HETATM   21  C   UNK N   1      38.810  13.151   9.972  0.00  0.00     0.159 C 
HETATM   22  H   UNK N   1      38.988  12.895  12.163  0.00  0.00     0.171 HD
ENDBRANCH  17  20
ENDBRANCH  14  17
ENDBRANCH   9  11
BRANCH   6  23
HETATM   23  N   UNK N   1      30.135  15.657   5.643  0.00  0.00    -0.368 N 
HETATM   24  H   UNK N   1      30.228  14.679   5.598  0.00  0.00     0.161 HD
BRANCH  23  25
HETATM   25  C   UNK N   1      28.817  16.213   5.372  0.00  0.00     0.116 C 
HETATM   26  C   UNK N   1      28.218  15.482   4.182  0.00  0.00     0.027 C 
HETATM   27  C   UNK N   1      27.746  16.544   3.211  0.00  0.00     0.004 C 
HETATM   28  C   UNK N   1      27.611  17.792   4.047  0.00  0.00     0.038 C 
HETATM   29  C   UNK N   1      28.768  17.723   5.028  0.00  0.00     0.244 C 
BRANCH  29  30
HETATM   30  N   UNK N   1      28.478  18.581   6.195  0.00  0.00     0.086 N 
HETATM   31  C   UNK N   1      27.968  17.776   7.300  0.00  0.00     0.310 C 
HETATM   32  C   UNK N   1      27.454  19.568   5.904  0.00  0.00     0.310 C 
ENDBRANCH  29  30
ENDBRANCH  23  25
ENDBRANCH   6  23
BRANCH   3  33
HETATM   33  C   UNK N   1      32.343  16.213   3.584  0.00  0.00     0.422 C 
HETATM   34  F   UNK N   1      32.349  14.845   3.465  0.00  0.00    -0.166 F 
HETATM   35  F   UNK N   1      31.256  16.722   2.899  0.00  0.00    -0.166 F 
HETATM   36  F   UNK N   1      33.502  16.683   2.987  0.00  0.00    -0.166 F 
ENDBRANCH   3  33
TORSDOF 7
ENDMDL
MODEL 6
REMARK VINA RESULT:      -7.3     10.164     13.194
REMARK  7 active torsions:
REMARK  status: ('A' for Active; 'I' for Inactive)
REMARK    1  A    between atoms: C_1  and  N_24 
REMARK       I    between atoms: C_3  and  N_24 
REMARK    2  A    between atoms: C_6  and  C_9 
REMARK    3  A    between atoms: C_12  and  N_13 
REMARK    4  A    between atoms: C_14  and  N_13 
REMARK    5  A    between atoms: C_18  and  N_19 
REMARK    6  A    between atoms: C_28  and  S_29 
REMARK    7  A    between atoms: S_29  and  N_32 
ROOT
HETATM    1  C   UNK N   1      37.064  13.120  12.353  0.00  0.00     0.684 A 
HETATM    2  C   UNK N   1      35.996  13.442  14.435  0.00  0.00     0.126 A 
HETATM    3  C   UNK N   1      35.485  12.147  14.401  0.00  0.00     0.107 A 
HETATM    4  N   UNK N   1      36.752  13.907  13.414  0.00  0.00    -0.201 N 
ATOM      5  HN  UNK N   1      37.094  14.868  13.442  1.00  0.00     0.183 HD
HETATM    6  C   UNK N   1      35.868  11.317  13.311  0.00  0.00     0.134 A 
HETATM    7  N   UNK N   1      36.617  11.845  12.307  0.00  0.00    -0.176 N 
ATOM      8  HN  UNK N   1      36.847  11.266  11.501  1.00  0.00     0.186 HD
HETATM    9  N   UNK N   1      37.412  13.759  11.138  0.00  0.00    -0.192 N 
HETATM   10  H   UNK N   1      38.292  13.645  10.714  0.00  0.00     0.184 HD
ENDROOT
BRANCH   9  11
HETATM   11  C   UNK N   1      36.394  14.575  10.579  0.00  0.00     0.049 A 
HETATM   12  C   UNK N   1      35.852  14.291   9.322  0.00  0.00     0.031 A 
HETATM   13  C   UNK N   1      35.063  15.260   8.679  0.00  0.00     0.027 A 
HETATM   14  C   UNK N   1      34.814  16.493   9.305  0.00  0.00     0.079 A 
HETATM   15  C   UNK N   1      35.296  16.738  10.584  0.00  0.00     0.027 A 
HETATM   16  C   UNK N   1      36.077  15.792  11.212  0.00  0.00     0.031 A 
BRANCH  14  17
HETATM   17  S   UNK N   1      34.098  17.857   8.412  0.00  0.00     0.258 S 
HETATM   18  O   UNK N   1      34.929  19.127   8.169  0.00  0.00    -0.201 OA
HETATM   19  O   UNK N   1      34.833  17.232   7.215  0.00  0.00    -0.201 OA
BRANCH  17  20
HETATM   20  N   UNK N   1      32.671  17.837   7.380  0.00  0.00    -0.320 N 
HETATM   21  C   UNK N   1      31.526  17.635   8.246  0.00  0.00     0.159 C 
HETATM   22  H   UNK N   1      32.652  17.947   6.366  0.00  0.00     0.171 HD
ENDBRANCH  17  20
ENDBRANCH  14  17
ENDBRANCH   9  11
BRANCH   6  23
HETATM   23  N   UNK N   1      35.397   9.989  13.157  0.00  0.00    -0.368 N 
HETATM   24  H   UNK N   1      34.461   9.874  12.879  0.00  0.00     0.161 HD
BRANCH  23  25
HETATM   25  C   UNK N   1      36.181   8.782  13.373  0.00  0.00     0.116 C 
HETATM   26  C   UNK N   1      35.716   7.720  12.391  0.00  0.00     0.027 C 
HETATM   27  C   UNK N   1      35.447   6.468  13.198  0.00  0.00     0.004 C 
HETATM   28  C   UNK N   1      36.220   6.664  14.478  0.00  0.00     0.038 C 
HETATM   29  C   UNK N   1      36.085   8.146  14.783  0.00  0.00     0.244 C 
BRANCH  29  30
HETATM   30  N   UNK N   1      37.172   8.565  15.691  0.00  0.00     0.086 N 
HETATM   31  C   UNK N   1      38.349   8.955  14.923  0.00  0.00     0.310 C 
HETATM   32  C   UNK N   1      37.596   7.487  16.565  0.00  0.00     0.310 C 
ENDBRANCH  29  30
ENDBRANCH  23  25
ENDBRANCH   6  23
BRANCH   3  33
HETATM   33  C   UNK N   1      34.511  11.772  15.493  0.00  0.00     0.422 C 
HETATM   34  F   UNK N   1      34.981  10.790  16.330  0.00  0.00    -0.166 F 
HETATM   35  F   UNK N   1      34.193  12.889  16.242  0.00  0.00    -0.166 F 
HETATM   36  F   UNK N   1      33.353  11.291  14.904  0.00  0.00    -0.166 F 
ENDBRANCH   3  33
TORSDOF 7
ENDMDL
MODEL 7
REMARK VINA RESULT:      -7.3     10.130     13.156
REMARK  7 active torsions:
REMARK  status: ('A' for Active; 'I' for Inactive)
REMARK    1  A    between atoms: C_1  and  N_24 
REMARK       I    between atoms: C_3  and  N_24 
REMARK    2  A    between atoms: C_6  and  C_9 
REMARK    3  A    between atoms: C_12  and  N_13 
REMARK    4  A    between atoms: C_14  and  N_13 
REMARK    5  A    between atoms: C_18  and  N_19 
REMARK    6  A    between atoms: C_28  and  S_29 
REMARK    7  A    between atoms: S_29  and  N_32 
ROOT
HETATM    1  C   UNK N   1      37.017  13.402  12.565  0.00  0.00     0.684 A 
HETATM    2  C   UNK N   1      36.140  13.868  14.709  0.00  0.00     0.126 A 
HETATM    3  C   UNK N   1      35.714  12.549  14.848  0.00  0.00     0.107 A 
HETATM    4  N   UNK N   1      36.760  14.271  13.576  0.00  0.00    -0.201 N 
ATOM      5  HN  UNK N   1      37.040  15.247  13.480  1.00  0.00     0.183 HD
HETATM    6  C   UNK N   1      36.041  11.638  13.805  0.00  0.00     0.134 A 
HETATM    7  N   UNK N   1      36.651  12.106  12.684  0.00  0.00    -0.176 N 
ATOM      8  HN  UNK N   1      36.838  11.464  11.914  1.00  0.00     0.186 HD
HETATM    9  N   UNK N   1      37.200  13.937  11.267  0.00  0.00    -0.192 N 
HETATM   10  H   UNK N   1      38.040  13.831  10.766  0.00  0.00     0.184 HD
ENDROOT
BRANCH   9  11
HETATM   11  C   UNK N   1      36.081  14.637  10.745  0.00  0.00     0.049 A 
HETATM   12  C   UNK N   1      35.085  13.970  10.026  0.00  0.00     0.031 A 
HETATM   13  C   UNK N   1      34.151  14.718   9.289  0.00  0.00     0.027 A 
HETATM   14  C   UNK N   1      34.215  16.122   9.292  0.00  0.00     0.079 A 
HETATM   15  C   UNK N   1      35.163  16.777  10.067  0.00  0.00     0.027 A 
HETATM   16  C   UNK N   1      36.084  16.044  10.783  0.00  0.00     0.031 A 
BRANCH  14  17
HETATM   17  S   UNK N   1      33.268  17.094   8.138  0.00  0.00     0.258 S 
HETATM   18  O   UNK N   1      32.050  17.889   8.635  0.00  0.00    -0.201 OA
HETATM   19  O   UNK N   1      34.143  18.245   8.660  0.00  0.00    -0.201 OA
BRANCH  17  20
HETATM   20  N   UNK N   1      33.750  17.628   6.530  0.00  0.00    -0.320 N 
HETATM   21  C   UNK N   1      34.091  16.438   5.775  0.00  0.00     0.159 C 
HETATM   22  H   UNK N   1      33.783  18.589   6.194  0.00  0.00     0.171 HD
ENDBRANCH  17  20
ENDBRANCH  14  17
ENDBRANCH   9  11
BRANCH   6  23
HETATM   23  N   UNK N   1      35.644  10.278  13.823  0.00  0.00    -0.368 N 
HETATM   24  H   UNK N   1      34.772  10.058  13.424  0.00  0.00     0.161 HD
BRANCH  23  25
HETATM   25  C   UNK N   1      36.417   9.178  14.380  0.00  0.00     0.116 C 
HETATM   26  C   UNK N   1      35.568   8.467  15.422  0.00  0.00     0.027 C 
HETATM   27  C   UNK N   1      36.416   8.355  16.672  0.00  0.00     0.004 C 
HETATM   28  C   UNK N   1      37.834   8.520  16.187  0.00  0.00     0.038 C 
HETATM   29  C   UNK N   1      37.744   9.560  15.084  0.00  0.00     0.244 C 
BRANCH  29  30
HETATM   30  N   UNK N   1      38.926   9.452  14.205  0.00  0.00     0.086 N 
HETATM   31  C   UNK N   1      38.650   8.546  13.095  0.00  0.00     0.310 C 
HETATM   32  C   UNK N   1      40.074   8.902  14.903  0.00  0.00     0.310 C 
ENDBRANCH  29  30
ENDBRANCH  23  25
ENDBRANCH   6  23
BRANCH   3  33
HETATM   33  C   UNK N   1      34.879  12.230  16.066  0.00  0.00     0.422 C 
HETATM   34  F   UNK N   1      35.531  11.444  16.984  0.00  0.00    -0.166 F 
HETATM   35  F   UNK N   1      34.477  13.401  16.679  0.00  0.00    -0.166 F 
HETATM   36  F   UNK N   1      33.752  11.535  15.657  0.00  0.00    -0.166 F 
ENDBRANCH   3  33
TORSDOF 7
ENDMDL
MODEL 8
REMARK VINA RESULT:      -7.3      3.200      4.254
REMARK  7 active torsions:
REMARK  status: ('A' for Active; 'I' for Inactive)
REMARK    1  A    between atoms: C_1  and  N_24 
REMARK       I    between atoms: C_3  and  N_24 
REMARK    2  A    between atoms: C_6  and  C_9 
REMARK    3  A    between atoms: C_12  and  N_13 
REMARK    4  A    between atoms: C_14  and  N_13 
REMARK    5  A    between atoms: C_18  and  N_19 
REMARK    6  A    between atoms: C_28  and  S_29 
REMARK    7  A    between atoms: S_29  and  N_32 
ROOT
HETATM    1  C   UNK N   1      25.724  18.075   3.836  0.00  0.00     0.684 A 
HETATM    2  C   UNK N   1      25.358  20.197   4.810  0.00  0.00     0.126 A 
HETATM    3  C   UNK N   1      26.557  20.108   5.513  0.00  0.00     0.107 A 
HETATM    4  N   UNK N   1      24.958  19.183   4.008  0.00  0.00    -0.201 N 
ATOM      5  HN  UNK N   1      24.064  19.253   3.522  1.00  0.00     0.183 HD
HETATM    6  C   UNK N   1      27.375  18.968   5.280  0.00  0.00     0.134 A 
HETATM    7  N   UNK N   1      26.912  17.975   4.474  0.00  0.00    -0.176 N 
ATOM      8  HN  UNK N   1      27.474  17.134   4.348  1.00  0.00     0.186 HD
HETATM    9  N   UNK N   1      25.080  16.888   3.415  0.00  0.00    -0.192 N 
HETATM   10  H   UNK N   1      25.303  16.437   2.569  0.00  0.00     0.184 HD
ENDROOT
BRANCH   9  11
HETATM   11  C   UNK N   1      24.089  16.397   4.304  0.00  0.00     0.049 A 
HETATM   12  C   UNK N   1      22.739  16.709   4.120  0.00  0.00     0.031 A 
HETATM   13  C   UNK N   1      21.826  16.450   5.157  0.00  0.00     0.027 A 
HETATM   14  C   UNK N   1      22.271  15.871   6.357  0.00  0.00     0.079 A 
HETATM   15  C   UNK N   1      23.601  15.497   6.503  0.00  0.00     0.027 A 
HETATM   16  C   UNK N   1      24.498  15.758   5.489  0.00  0.00     0.031 A 
BRANCH  14  17
HETATM   17  S   UNK N   1      21.230  15.817   7.801  0.00  0.00     0.258 S 
HETATM   18  O   UNK N   1      20.544  17.102   8.292  0.00  0.00    -0.201 OA
HETATM   19  O   UNK N   1      20.100  15.692   6.767  0.00  0.00    -0.201 OA
BRANCH  17  20
HETATM   20  N   UNK N   1      20.517  14.397   8.562  0.00  0.00    -0.320 N 
HETATM   21  C   UNK N   1      21.431  13.971   9.602  0.00  0.00     0.159 C 
HETATM   22  H   UNK N   1      19.629  13.959   8.318  0.00  0.00     0.171 HD
ENDBRANCH  17  20
ENDBRANCH  14  17
ENDBRANCH   9  11
BRANCH   6  23
HETATM   23  N   UNK N   1      28.605  18.756   5.951  0.00  0.00    -0.368 N 
HETATM   24  H   UNK N   1      29.331  19.394   5.770  0.00  0.00     0.161 HD
BRANCH  23  25
HETATM   25  C   UNK N   1      28.885  17.676   6.885  0.00  0.00     0.116 C 
HETATM   26  C   UNK N   1      28.381  18.082   8.261  0.00  0.00     0.027 C 
HETATM   27  C   UNK N   1      29.523  17.849   9.228  0.00  0.00     0.004 C 
HETATM   28  C   UNK N   1      30.431  16.875   8.520  0.00  0.00     0.038 C 
HETATM   29  C   UNK N   1      30.375  17.291   7.061  0.00  0.00     0.244 C 
BRANCH  29  30
HETATM   30  N   UNK N   1      30.793  16.159   6.208  0.00  0.00     0.086 N 
HETATM   31  C   UNK N   1      29.627  15.404   5.764  0.00  0.00     0.310 C 
HETATM   32  C   UNK N   1      31.637  15.221   6.925  0.00  0.00     0.310 C 
ENDBRANCH  29  30
ENDBRANCH  23  25
ENDBRANCH   6  23
BRANCH   3  33
HETATM   33  C   UNK N   1      26.838  21.203   6.516  0.00  0.00     0.422 C 
HETATM   34  F   UNK N   1      26.706  20.794   7.821  0.00  0.00    -0.166 F 
HETATM   35  F   UNK N   1      28.115  21.696   6.325  0.00  0.00    -0.166 F 
HETATM   36  F   UNK N   1      25.931  22.230   6.312  0.00  0.00    -0.166 F 
ENDBRANCH   3  33
TORSDOF 7
ENDMDL
MODEL 9
REMARK VINA RESULT:      -7.2      4.446      5.386
REMARK  7 active torsions:
REMARK  status: ('A' for Active; 'I' for Inactive)
REMARK    1  A    between atoms: C_1  and  N_24 
REMARK       I    between atoms: C_3  and  N_24 
REMARK    2  A    between atoms: C_6  and  C_9 
REMARK    3  A    between atoms: C_12  and  N_13 
REMARK    4  A    between atoms: C_14  and  N_13 
REMARK    5  A    between atoms: C_18  and  N_19 
REMARK    6  A    between atoms: C_28  and  S_29 
REMARK    7  A    between atoms: S_29  and  N_32 
ROOT
HETATM    1  C   UNK N   1      25.388  17.249   4.403  0.00  0.00     0.684 A 
HETATM    2  C   UNK N   1      25.368  19.357   5.471  0.00  0.00     0.126 A 
HETATM    3  C   UNK N   1      26.753  19.452   5.360  0.00  0.00     0.107 A 
HETATM    4  N   UNK N   1      24.719  18.261   5.013  0.00  0.00    -0.201 N 
ATOM      5  HN  UNK N   1      23.708  18.195   5.128  1.00  0.00     0.183 HD
HETATM    6  C   UNK N   1      27.433  18.412   4.669  0.00  0.00     0.134 A 
HETATM    7  N   UNK N   1      26.728  17.329   4.244  0.00  0.00    -0.176 N 
ATOM      8  HN  UNK N   1      27.222  16.559   3.796  1.00  0.00     0.186 HD
HETATM    9  N   UNK N   1      24.780  15.971   4.392  0.00  0.00    -0.192 N 
HETATM   10  H   UNK N   1      24.538  15.508   3.558  0.00  0.00     0.184 HD
ENDROOT
BRANCH   9  11
HETATM   11  C   UNK N   1      24.547  15.408   5.673  0.00  0.00     0.049 A 
HETATM   12  C   UNK N   1      25.581  14.798   6.391  0.00  0.00     0.031 A 
HETATM   13  C   UNK N   1      25.268  14.011   7.512  0.00  0.00     0.027 A 
HETATM   14  C   UNK N   1      23.930  13.854   7.910  0.00  0.00     0.079 A 
HETATM   15  C   UNK N   1      22.916  14.522   7.235  0.00  0.00     0.027 A 
HETATM   16  C   UNK N   1      23.222  15.287   6.130  0.00  0.00     0.031 A 
BRANCH  14  17
HETATM   17  S   UNK N   1      23.459  12.628   9.113  0.00  0.00     0.258 S 
HETATM   18  O   UNK N   1      23.892  11.166   8.917  0.00  0.00    -0.201 OA
HETATM   19  O   UNK N   1      24.864  12.894   9.676  0.00  0.00    -0.201 OA
BRANCH  17  20
HETATM   20  N   UNK N   1      22.889  12.896  10.758  0.00  0.00    -0.320 N 
HETATM   21  C   UNK N   1      23.518  11.891  11.592  0.00  0.00     0.159 C 
HETATM   22  H   UNK N   1      22.241  13.620  11.066  0.00  0.00     0.171 HD
ENDBRANCH  17  20
ENDBRANCH  14  17
ENDBRANCH   9  11
BRANCH   6  23
HETATM   23  N   UNK N   1      28.840  18.388   4.509  0.00  0.00    -0.368 N 
HETATM   24  H   UNK N   1      29.258  19.168   4.079  0.00  0.00     0.161 HD
BRANCH  23  25
HETATM   25  C   UNK N   1      29.722  17.309   4.929  0.00  0.00     0.116 C 
HETATM   26  C   UNK N   1      29.692  17.221   6.447  0.00  0.00     0.027 C 
HETATM   27  C   UNK N   1      31.133  17.213   6.911  0.00  0.00     0.004 C 
HETATM   28  C   UNK N   1      31.923  16.788   5.699  0.00  0.00     0.038 C 
HETATM   29  C   UNK N   1      31.213  17.448   4.530  0.00  0.00     0.244 C 
BRANCH  29  30
HETATM   30  N   UNK N   1      31.553  16.736   3.280  0.00  0.00     0.086 N 
HETATM   31  C   UNK N   1      30.931  15.417   3.264  0.00  0.00     0.310 C 
HETATM   32  C   UNK N   1      32.982  16.514   3.153  0.00  0.00     0.310 C 
ENDBRANCH  29  30
ENDBRANCH  23  25
ENDBRANCH   6  23
BRANCH   3  33
HETATM   33  C   UNK N   1      27.411  20.624   6.053  0.00  0.00     0.422 C 
HETATM   34  F   UNK N   1      26.516  21.567   6.498  0.00  0.00    -0.166 F 
HETATM   35  F   UNK N   1      28.162  20.175   7.122  0.00  0.00    -0.166 F 
HETATM   36  F   UNK N   1      28.255  21.251   5.151  0.00  0.00    -0.166 F 
ENDBRANCH   3  33
TORSDOF 7
ENDMDL
