MODEL 1
REMARK VINA RESULT:      -5.0      0.000      0.000
REMARK  20 active torsions:
REMARK  status: ('A' for Active; 'I' for Inactive)
REMARK    1  A    between atoms: C_3  and  N_2 
REMARK    2  A    between atoms: C_3  and  C_4 
REMARK    3  A    between atoms: C_3  and  C_21 
REMARK    4  A    between atoms: C_4  and  S_5 
REMARK    5  A    between atoms: S_5  and  C_6 
REMARK    6  A    between atoms: C_6  and  C_8 
REMARK    7  A    between atoms: C_8  and  C_9 
REMARK    8  A    between atoms: C_9  and  C_10 
REMARK    9  A    between atoms: C_10  and  C_11 
REMARK   10  A    between atoms: C_11  and  C_12 
REMARK   11  A    between atoms: C_12  and  C_13 
REMARK   12  A    between atoms: C_13  and  C_14 
REMARK   13  A    between atoms: C_14  and  C_15 
REMARK   14  A    between atoms: C_15  and  C_16 
REMARK   15  A    between atoms: C_16  and  C_17 
REMARK   16  A    between atoms: C_17  and  C_18 
REMARK   17  A    between atoms: C_18  and  C_19 
REMARK   18  A    between atoms: C_19  and  C_20 
REMARK   19  A    between atoms: C_20  and  C_22 
REMARK   20  A    between atoms: C_21  and  O_24 
ROOT
HETATM    1  C   UNK N   1      20.298  16.074   7.025  0.00  0.00     0.008 C 
ENDROOT
BRANCH   1   2
HETATM    2  C   UNK N   1      21.676  16.654   6.758  0.00  0.00     0.091 C 
BRANCH   2   3
HETATM    3  C   UNK N   1      21.543  18.014   6.148  0.00  0.00     0.186 C 
HETATM    4  O   UNK N   1      21.021  18.913   6.787  0.00  0.00    -0.286 OA
BRANCH   3   5
HETATM    5  S   UNK N   1      22.203  18.374   4.512  0.00  0.00    -0.090 SA
BRANCH   5   6
HETATM    6  C   UNK N   1      20.775  19.351   3.931  0.00  0.00     0.117 C 
BRANCH   6   7
HETATM    7  C   UNK N   1      20.393  18.997   2.493  0.00  0.00     0.183 C 
BRANCH   7   8
HETATM    8  N   UNK N   1      18.952  18.810   2.435  0.00  0.00    -0.417 N 
HETATM    9  H   UNK N   1      18.297  19.189   3.120  0.00  0.00     0.150 HD
HETATM   10  H   UNK N   1      18.572  18.265   1.661  0.00  0.00     0.150 HD
ENDBRANCH   7   8
BRANCH   7  11
HETATM   11  C   UNK N   1      20.820  20.077   1.525  0.00  0.00     0.163 C 
HETATM   12  O   UNK N   1      21.288  21.129   1.934  0.00  0.00    -0.648 OA
BRANCH  11  13
HETATM   13  O   UNK N   1      20.668  19.894   0.199  0.00  0.00    -0.775 OA
HETATM   14  H   UNK N   1      20.525  19.065  -0.212  0.00  0.00     0.167 HD
ENDBRANCH  11  13
ENDBRANCH   7  11
ENDBRANCH   6   7
ENDBRANCH   5   6
ENDBRANCH   3   5
ENDBRANCH   2   3
ENDBRANCH   1   2
BRANCH   1  15
HETATM   15  C   UNK N   1      20.092  15.907   8.516  0.00  0.00     0.000 C 
BRANCH  15  16
HETATM   16  C   UNK N   1      21.162  14.996   9.093  0.00  0.00     0.000 C 
BRANCH  16  17
HETATM   17  C   UNK N   1      20.518  13.845   9.847  0.00  0.00     0.000 C 
BRANCH  17  18
HETATM   18  C   UNK N   1      21.566  12.882  10.374  0.00  0.00     0.000 C 
BRANCH  18  19
HETATM   19  C   UNK N   1      22.917  13.318   9.850  0.00  0.00     0.000 C 
BRANCH  19  20
HETATM   20  C   UNK N   1      23.855  12.133   9.744  0.00  0.00     0.000 C 
BRANCH  20  21
HETATM   21  C   UNK N   1      23.223  11.122   8.811  0.00  0.00     0.000 C 
BRANCH  21  22
HETATM   22  C   UNK N   1      23.252  11.605   7.375  0.00  0.00     0.000 C 
BRANCH  22  23
HETATM   23  C   UNK N   1      21.861  11.438   6.800  0.00  0.00     0.000 C 
BRANCH  23  24
HETATM   24  C   UNK N   1      21.410  12.691   6.078  0.00  0.00     0.000 C 
BRANCH  24  25
HETATM   25  C   UNK N   1      22.649  13.418   5.598  0.00  0.00    -0.000 C 
BRANCH  25  26
HETATM   26  C   UNK N   1      22.575  13.673   4.108  0.00  0.00    -0.005 C 
HETATM   27  C   UNK N   1      21.273  14.383   3.797  0.00  0.00     0.005 C 
ENDBRANCH  25  26
ENDBRANCH  24  25
ENDBRANCH  23  24
ENDBRANCH  22  23
ENDBRANCH  21  22
ENDBRANCH  20  21
ENDBRANCH  19  20
ENDBRANCH  18  19
ENDBRANCH  17  18
ENDBRANCH  16  17
ENDBRANCH  15  16
ENDBRANCH   1  15
TORSDOF 20
ENDMDL
MODEL 2
REMARK VINA RESULT:      -4.8     10.839     12.540
REMARK  20 active torsions:
REMARK  status: ('A' for Active; 'I' for Inactive)
REMARK    1  A    between atoms: C_3  and  N_2 
REMARK    2  A    between atoms: C_3  and  C_4 
REMARK    3  A    between atoms: C_3  and  C_21 
REMARK    4  A    between atoms: C_4  and  S_5 
REMARK    5  A    between atoms: S_5  and  C_6 
REMARK    6  A    between atoms: C_6  and  C_8 
REMARK    7  A    between atoms: C_8  and  C_9 
REMARK    8  A    between atoms: C_9  and  C_10 
REMARK    9  A    between atoms: C_10  and  C_11 
REMARK   10  A    between atoms: C_11  and  C_12 
REMARK   11  A    between atoms: C_12  and  C_13 
REMARK   12  A    between atoms: C_13  and  C_14 
REMARK   13  A    between atoms: C_14  and  C_15 
REMARK   14  A    between atoms: C_15  and  C_16 
REMARK   15  A    between atoms: C_16  and  C_17 
REMARK   16  A    between atoms: C_17  and  C_18 
REMARK   17  A    between atoms: C_18  and  C_19 
REMARK   18  A    between atoms: C_19  and  C_20 
REMARK   19  A    between atoms: C_20  and  C_22 
REMARK   20  A    between atoms: C_21  and  O_24 
ROOT
HETATM    1  C   UNK N   1      31.697  17.317   8.421  0.00  0.00     0.008 C 
ENDROOT
BRANCH   1   2
HETATM    2  C   UNK N   1      32.744  17.651   7.374  0.00  0.00     0.091 C 
BRANCH   2   3
HETATM    3  C   UNK N   1      33.688  16.500   7.218  0.00  0.00     0.186 C 
HETATM    4  O   UNK N   1      34.791  16.688   6.730  0.00  0.00    -0.286 OA
BRANCH   3   5
HETATM    5  S   UNK N   1      33.262  14.853   7.804  0.00  0.00    -0.090 SA
BRANCH   5   6
HETATM    6  C   UNK N   1      34.655  14.690   8.974  0.00  0.00     0.117 C 
BRANCH   6   7
HETATM    7  C   UNK N   1      34.438  15.530  10.234  0.00  0.00     0.183 C 
BRANCH   7   8
HETATM    8  N   UNK N   1      34.330  14.629  11.370  0.00  0.00    -0.417 N 
HETATM    9  H   UNK N   1      34.879  13.776  11.480  0.00  0.00     0.150 HD
HETATM   10  H   UNK N   1      33.661  14.865  12.104  0.00  0.00     0.150 HD
ENDBRANCH   7   8
BRANCH   7  11
HETATM   11  C   UNK N   1      35.570  16.508  10.448  0.00  0.00     0.163 C 
HETATM   12  O   UNK N   1      35.444  17.683  10.137  0.00  0.00    -0.648 OA
BRANCH  11  13
HETATM   13  O   UNK N   1      36.740  16.085  10.966  0.00  0.00    -0.775 OA
HETATM   14  H   UNK N   1      36.998  16.197  11.860  0.00  0.00     0.167 HD
ENDBRANCH  11  13
ENDBRANCH   7  11
ENDBRANCH   6   7
ENDBRANCH   5   6
ENDBRANCH   3   5
ENDBRANCH   2   3
ENDBRANCH   1   2
BRANCH   1  15
HETATM   15  C   UNK N   1      30.881  18.551   8.743  0.00  0.00     0.000 C 
BRANCH  15  16
HETATM   16  C   UNK N   1      29.761  18.202   9.707  0.00  0.00     0.000 C 
BRANCH  16  17
HETATM   17  C   UNK N   1      28.412  18.433   9.048  0.00  0.00     0.000 C 
BRANCH  17  18
HETATM   18  C   UNK N   1      27.765  17.119   8.652  0.00  0.00     0.000 C 
BRANCH  18  19
HETATM   19  C   UNK N   1      27.922  16.945   7.156  0.00  0.00     0.000 C 
BRANCH  19  20
HETATM   20  C   UNK N   1      27.930  18.290   6.461  0.00  0.00     0.000 C 
BRANCH  20  21
HETATM   21  C   UNK N   1      28.958  18.235   5.350  0.00  0.00     0.000 C 
BRANCH  21  22
HETATM   22  C   UNK N   1      29.478  16.825   5.154  0.00  0.00     0.000 C 
BRANCH  22  23
HETATM   23  C   UNK N   1      29.498  16.540   3.666  0.00  0.00     0.000 C 
BRANCH  23  24
HETATM   24  C   UNK N   1      30.816  15.929   3.240  0.00  0.00     0.000 C 
BRANCH  24  25
HETATM   25  C   UNK N   1      31.755  17.062   2.879  0.00  0.00    -0.000 C 
BRANCH  25  26
HETATM   26  C   UNK N   1      33.070  16.920   3.614  0.00  0.00    -0.005 C 
HETATM   27  C   UNK N   1      33.481  15.462   3.607  0.00  0.00     0.005 C 
ENDBRANCH  25  26
ENDBRANCH  24  25
ENDBRANCH  23  24
ENDBRANCH  22  23
ENDBRANCH  21  22
ENDBRANCH  20  21
ENDBRANCH  19  20
ENDBRANCH  18  19
ENDBRANCH  17  18
ENDBRANCH  16  17
ENDBRANCH  15  16
ENDBRANCH   1  15
TORSDOF 20
ENDMDL
MODEL 3
REMARK VINA RESULT:      -4.8     14.913     17.750
REMARK  20 active torsions:
REMARK  status: ('A' for Active; 'I' for Inactive)
REMARK    1  A    between atoms: C_3  and  N_2 
REMARK    2  A    between atoms: C_3  and  C_4 
REMARK    3  A    between atoms: C_3  and  C_21 
REMARK    4  A    between atoms: C_4  and  S_5 
REMARK    5  A    between atoms: S_5  and  C_6 
REMARK    6  A    between atoms: C_6  and  C_8 
REMARK    7  A    between atoms: C_8  and  C_9 
REMARK    8  A    between atoms: C_9  and  C_10 
REMARK    9  A    between atoms: C_10  and  C_11 
REMARK   10  A    between atoms: C_11  and  C_12 
REMARK   11  A    between atoms: C_12  and  C_13 
REMARK   12  A    between atoms: C_13  and  C_14 
REMARK   13  A    between atoms: C_14  and  C_15 
REMARK   14  A    between atoms: C_15  and  C_16 
REMARK   15  A    between atoms: C_16  and  C_17 
REMARK   16  A    between atoms: C_17  and  C_18 
REMARK   17  A    between atoms: C_18  and  C_19 
REMARK   18  A    between atoms: C_19  and  C_20 
REMARK   19  A    between atoms: C_20  and  C_22 
REMARK   20  A    between atoms: C_21  and  O_24 
ROOT
HETATM    1  C   UNK N   1      29.138  24.263  -4.470  0.00  0.00     0.008 C 
ENDROOT
BRANCH   1   2
HETATM    2  C   UNK N   1      29.003  23.713  -3.061  0.00  0.00     0.091 C 
BRANCH   2   3
HETATM    3  C   UNK N   1      30.150  22.800  -2.763  0.00  0.00     0.186 C 
HETATM    4  O   UNK N   1      30.784  22.946  -1.730  0.00  0.00    -0.286 OA
BRANCH   3   5
HETATM    5  S   UNK N   1      30.573  21.438  -3.860  0.00  0.00    -0.090 SA
BRANCH   5   6
HETATM    6  C   UNK N   1      32.246  22.034  -4.284  0.00  0.00     0.117 C 
BRANCH   6   7
HETATM    7  C   UNK N   1      33.331  21.068  -3.805  0.00  0.00     0.183 C 
BRANCH   7   8
HETATM    8  N   UNK N   1      33.166  20.868  -2.374  0.00  0.00    -0.417 N 
HETATM    9  H   UNK N   1      32.922  19.975  -1.945  0.00  0.00     0.150 HD
HETATM   10  H   UNK N   1      33.303  21.672  -1.761  0.00  0.00     0.150 HD
ENDBRANCH   7   8
BRANCH   7  11
HETATM   11  C   UNK N   1      33.252  19.744  -4.531  0.00  0.00     0.163 C 
HETATM   12  O   UNK N   1      33.128  19.707  -5.746  0.00  0.00    -0.648 OA
BRANCH  11  13
HETATM   13  O   UNK N   1      33.297  18.590  -3.838  0.00  0.00    -0.775 OA
HETATM   14  H   UNK N   1      32.580  18.229  -3.354  0.00  0.00     0.167 HD
ENDBRANCH  11  13
ENDBRANCH   7  11
ENDBRANCH   6   7
ENDBRANCH   5   6
ENDBRANCH   3   5
ENDBRANCH   2   3
ENDBRANCH   1   2
BRANCH   1  15
HETATM   15  C   UNK N   1      29.168  25.777  -4.429  0.00  0.00     0.000 C 
BRANCH  15  16
HETATM   16  C   UNK N   1      29.204  26.337  -5.840  0.00  0.00     0.000 C 
BRANCH  16  17
HETATM   17  C   UNK N   1      29.516  27.824  -5.805  0.00  0.00     0.000 C 
BRANCH  17  18
HETATM   18  C   UNK N   1      28.343  28.641  -6.313  0.00  0.00     0.000 C 
BRANCH  18  19
HETATM   19  C   UNK N   1      28.144  29.817  -5.381  0.00  0.00     0.000 C 
BRANCH  19  20
HETATM   20  C   UNK N   1      26.830  29.692  -4.639  0.00  0.00     0.000 C 
BRANCH  20  21
HETATM   21  C   UNK N   1      27.079  28.885  -3.382  0.00  0.00     0.000 C 
BRANCH  21  22
HETATM   22  C   UNK N   1      26.156  27.686  -3.307  0.00  0.00     0.000 C 
BRANCH  22  23
HETATM   23  C   UNK N   1      25.339  27.648  -4.582  0.00  0.00     0.000 C 
BRANCH  23  24
HETATM   24  C   UNK N   1      25.440  26.299  -5.262  0.00  0.00     0.000 C 
BRANCH  24  25
HETATM   25  C   UNK N   1      25.425  26.533  -6.759  0.00  0.00    -0.000 C 
BRANCH  25  26
HETATM   26  C   UNK N   1      26.239  25.476  -7.473  0.00  0.00    -0.005 C 
HETATM   27  C   UNK N   1      26.048  24.150  -6.766  0.00  0.00     0.005 C 
ENDBRANCH  25  26
ENDBRANCH  24  25
ENDBRANCH  23  24
ENDBRANCH  22  23
ENDBRANCH  21  22
ENDBRANCH  20  21
ENDBRANCH  19  20
ENDBRANCH  18  19
ENDBRANCH  17  18
ENDBRANCH  16  17
ENDBRANCH  15  16
ENDBRANCH   1  15
TORSDOF 20
ENDMDL
MODEL 4
REMARK VINA RESULT:      -4.8      6.255      7.741
REMARK  20 active torsions:
REMARK  status: ('A' for Active; 'I' for Inactive)
REMARK    1  A    between atoms: C_3  and  N_2 
REMARK    2  A    between atoms: C_3  and  C_4 
REMARK    3  A    between atoms: C_3  and  C_21 
REMARK    4  A    between atoms: C_4  and  S_5 
REMARK    5  A    between atoms: S_5  and  C_6 
REMARK    6  A    between atoms: C_6  and  C_8 
REMARK    7  A    between atoms: C_8  and  C_9 
REMARK    8  A    between atoms: C_9  and  C_10 
REMARK    9  A    between atoms: C_10  and  C_11 
REMARK   10  A    between atoms: C_11  and  C_12 
REMARK   11  A    between atoms: C_12  and  C_13 
REMARK   12  A    between atoms: C_13  and  C_14 
REMARK   13  A    between atoms: C_14  and  C_15 
REMARK   14  A    between atoms: C_15  and  C_16 
REMARK   15  A    between atoms: C_16  and  C_17 
REMARK   16  A    between atoms: C_17  and  C_18 
REMARK   17  A    between atoms: C_18  and  C_19 
REMARK   18  A    between atoms: C_19  and  C_20 
REMARK   19  A    between atoms: C_20  and  C_22 
REMARK   20  A    between atoms: C_21  and  O_24 
ROOT
HETATM    1  C   UNK N   1      25.236  18.325   3.524  0.00  0.00     0.008 C 
ENDROOT
BRANCH   1   2
HETATM    2  C   UNK N   1      24.011  18.612   4.372  0.00  0.00     0.091 C 
BRANCH   2   3
HETATM    3  C   UNK N   1      22.988  17.540   4.164  0.00  0.00     0.186 C 
HETATM    4  O   UNK N   1      23.312  16.495   3.622  0.00  0.00    -0.286 OA
BRANCH   3   5
HETATM    5  S   UNK N   1      21.300  17.727   4.761  0.00  0.00    -0.090 SA
BRANCH   5   6
HETATM    6  C   UNK N   1      21.023  19.389   4.060  0.00  0.00     0.117 C 
BRANCH   6   7
HETATM    7  C   UNK N   1      20.737  19.332   2.558  0.00  0.00     0.183 C 
BRANCH   7   8
HETATM    8  N   UNK N   1      19.298  19.231   2.371  0.00  0.00    -0.417 N 
HETATM    9  H   UNK N   1      18.671  18.734   3.003  0.00  0.00     0.150 HD
HETATM   10  H   UNK N   1      18.891  19.687   1.553  0.00  0.00     0.150 HD
ENDBRANCH   7   8
BRANCH   7  11
HETATM   11  C   UNK N   1      21.274  20.552   1.846  0.00  0.00     0.163 C 
HETATM   12  O   UNK N   1      21.288  20.604   0.626  0.00  0.00    -0.648 OA
BRANCH  11  13
HETATM   13  O   UNK N   1      21.763  21.588   2.556  0.00  0.00    -0.775 OA
HETATM   14  H   UNK N   1      22.412  21.515   3.227  0.00  0.00     0.167 HD
ENDBRANCH  11  13
ENDBRANCH   7  11
ENDBRANCH   6   7
ENDBRANCH   5   6
ENDBRANCH   3   5
ENDBRANCH   2   3
ENDBRANCH   1   2
BRANCH   1  15
HETATM   15  C   UNK N   1      26.069  19.581   3.383  0.00  0.00     0.000 C 
BRANCH  15  16
HETATM   16  C   UNK N   1      25.745  20.553   4.504  0.00  0.00     0.000 C 
BRANCH  16  17
HETATM   17  C   UNK N   1      26.947  20.716   5.419  0.00  0.00     0.000 C 
BRANCH  17  18
HETATM   18  C   UNK N   1      28.068  19.773   5.022  0.00  0.00     0.000 C 
BRANCH  18  19
HETATM   19  C   UNK N   1      28.293  18.799   6.159  0.00  0.00     0.000 C 
BRANCH  19  20
HETATM   20  C   UNK N   1      27.720  19.344   7.450  0.00  0.00     0.000 C 
BRANCH  20  21
HETATM   21  C   UNK N   1      28.411  18.642   8.600  0.00  0.00     0.000 C 
BRANCH  21  22
HETATM   22  C   UNK N   1      29.504  17.718   8.101  0.00  0.00     0.000 C 
BRANCH  22  23
HETATM   23  C   UNK N   1      30.794  18.109   8.792  0.00  0.00     0.000 C 
BRANCH  23  24
HETATM   24  C   UNK N   1      31.992  17.464   8.127  0.00  0.00     0.000 C 
BRANCH  24  25
HETATM   25  C   UNK N   1      31.594  17.100   6.711  0.00  0.00    -0.000 C 
BRANCH  25  26
HETATM   26  C   UNK N   1      32.719  17.403   5.746  0.00  0.00    -0.005 C 
HETATM   27  C   UNK N   1      34.041  17.241   6.467  0.00  0.00     0.005 C 
ENDBRANCH  25  26
ENDBRANCH  24  25
ENDBRANCH  23  24
ENDBRANCH  22  23
ENDBRANCH  21  22
ENDBRANCH  20  21
ENDBRANCH  19  20
ENDBRANCH  18  19
ENDBRANCH  17  18
ENDBRANCH  16  17
ENDBRANCH  15  16
ENDBRANCH   1  15
TORSDOF 20
ENDMDL
MODEL 5
REMARK VINA RESULT:      -4.8     14.976     17.585
REMARK  20 active torsions:
REMARK  status: ('A' for Active; 'I' for Inactive)
REMARK    1  A    between atoms: C_3  and  N_2 
REMARK    2  A    between atoms: C_3  and  C_4 
REMARK    3  A    between atoms: C_3  and  C_21 
REMARK    4  A    between atoms: C_4  and  S_5 
REMARK    5  A    between atoms: S_5  and  C_6 
REMARK    6  A    between atoms: C_6  and  C_8 
REMARK    7  A    between atoms: C_8  and  C_9 
REMARK    8  A    between atoms: C_9  and  C_10 
REMARK    9  A    between atoms: C_10  and  C_11 
REMARK   10  A    between atoms: C_11  and  C_12 
REMARK   11  A    between atoms: C_12  and  C_13 
REMARK   12  A    between atoms: C_13  and  C_14 
REMARK   13  A    between atoms: C_14  and  C_15 
REMARK   14  A    between atoms: C_15  and  C_16 
REMARK   15  A    between atoms: C_16  and  C_17 
REMARK   16  A    between atoms: C_17  and  C_18 
REMARK   17  A    between atoms: C_18  and  C_19 
REMARK   18  A    between atoms: C_19  and  C_20 
REMARK   19  A    between atoms: C_20  and  C_22 
REMARK   20  A    between atoms: C_21  and  O_24 
ROOT
HETATM    1  C   UNK N   1      29.465  25.625  -3.817  0.00  0.00     0.008 C 
ENDROOT
BRANCH   1   2
HETATM    2  C   UNK N   1      30.757  25.001  -3.322  0.00  0.00     0.091 C 
BRANCH   2   3
HETATM    3  C   UNK N   1      30.547  23.543  -3.061  0.00  0.00     0.186 C 
HETATM    4  O   UNK N   1      30.690  23.106  -1.931  0.00  0.00    -0.286 OA
BRANCH   3   5
HETATM    5  S   UNK N   1      30.014  22.425  -4.367  0.00  0.00    -0.090 SA
BRANCH   5   6
HETATM    6  C   UNK N   1      30.810  20.929  -3.688  0.00  0.00     0.117 C 
BRANCH   6   7
HETATM    7  C   UNK N   1      32.206  20.712  -4.275  0.00  0.00     0.183 C 
BRANCH   7   8
HETATM    8  N   UNK N   1      32.385  21.640  -5.381  0.00  0.00    -0.417 N 
HETATM    9  H   UNK N   1      32.081  22.614  -5.366  0.00  0.00     0.150 HD
HETATM   10  H   UNK N   1      32.844  21.294  -6.224  0.00  0.00     0.150 HD
ENDBRANCH   7   8
BRANCH   7  11
HETATM   11  C   UNK N   1      33.282  20.922  -3.236  0.00  0.00     0.163 C 
HETATM   12  O   UNK N   1      34.463  20.873  -3.544  0.00  0.00    -0.648 OA
BRANCH  11  13
HETATM   13  O   UNK N   1      32.946  21.145  -1.950  0.00  0.00    -0.775 OA
HETATM   14  H   UNK N   1      33.555  21.186  -1.239  0.00  0.00     0.167 HD
ENDBRANCH  11  13
ENDBRANCH   7  11
ENDBRANCH   6   7
ENDBRANCH   5   6
ENDBRANCH   3   5
ENDBRANCH   2   3
ENDBRANCH   1   2
BRANCH   1  15
HETATM   15  C   UNK N   1      29.732  27.028  -4.320  0.00  0.00     0.000 C 
BRANCH  15  16
HETATM   16  C   UNK N   1      30.558  27.800  -3.305  0.00  0.00     0.000 C 
BRANCH  16  17
HETATM   17  C   UNK N   1      30.124  29.255  -3.276  0.00  0.00     0.000 C 
BRANCH  17  18
HETATM   18  C   UNK N   1      29.311  29.558  -2.031  0.00  0.00     0.000 C 
BRANCH  18  19
HETATM   19  C   UNK N   1      27.881  29.826  -2.451  0.00  0.00     0.000 C 
BRANCH  19  20
HETATM   20  C   UNK N   1      27.827  30.291  -3.891  0.00  0.00     0.000 C 
BRANCH  20  21
HETATM   21  C   UNK N   1      26.792  29.453  -4.612  0.00  0.00     0.000 C 
BRANCH  21  22
HETATM   22  C   UNK N   1      26.008  28.593  -3.642  0.00  0.00     0.000 C 
BRANCH  22  23
HETATM   23  C   UNK N   1      25.853  27.218  -4.260  0.00  0.00     0.000 C 
BRANCH  23  24
HETATM   24  C   UNK N   1      25.689  27.306  -5.763  0.00  0.00     0.000 C 
BRANCH  24  25
HETATM   25  C   UNK N   1      25.496  25.898  -6.289  0.00  0.00    -0.000 C 
BRANCH  25  26
HETATM   26  C   UNK N   1      25.667  24.885  -5.178  0.00  0.00    -0.005 C 
HETATM   27  C   UNK N   1      26.415  23.684  -5.721  0.00  0.00     0.005 C 
ENDBRANCH  25  26
ENDBRANCH  24  25
ENDBRANCH  23  24
ENDBRANCH  22  23
ENDBRANCH  21  22
ENDBRANCH  20  21
ENDBRANCH  19  20
ENDBRANCH  18  19
ENDBRANCH  17  18
ENDBRANCH  16  17
ENDBRANCH  15  16
ENDBRANCH   1  15
TORSDOF 20
ENDMDL
MODEL 6
REMARK VINA RESULT:      -4.7     14.601     17.552
REMARK  20 active torsions:
REMARK  status: ('A' for Active; 'I' for Inactive)
REMARK    1  A    between atoms: C_3  and  N_2 
REMARK    2  A    between atoms: C_3  and  C_4 
REMARK    3  A    between atoms: C_3  and  C_21 
REMARK    4  A    between atoms: C_4  and  S_5 
REMARK    5  A    between atoms: S_5  and  C_6 
REMARK    6  A    between atoms: C_6  and  C_8 
REMARK    7  A    between atoms: C_8  and  C_9 
REMARK    8  A    between atoms: C_9  and  C_10 
REMARK    9  A    between atoms: C_10  and  C_11 
REMARK   10  A    between atoms: C_11  and  C_12 
REMARK   11  A    between atoms: C_12  and  C_13 
REMARK   12  A    between atoms: C_13  and  C_14 
REMARK   13  A    between atoms: C_14  and  C_15 
REMARK   14  A    between atoms: C_15  and  C_16 
REMARK   15  A    between atoms: C_16  and  C_17 
REMARK   16  A    between atoms: C_17  and  C_18 
REMARK   17  A    between atoms: C_18  and  C_19 
REMARK   18  A    between atoms: C_19  and  C_20 
REMARK   19  A    between atoms: C_20  and  C_22 
REMARK   20  A    between atoms: C_21  and  O_24 
ROOT
HETATM    1  C   UNK N   1      25.601  26.001  -4.939  0.00  0.00     0.008 C 
ENDROOT
BRANCH   1   2
HETATM    2  C   UNK N   1      26.427  25.886  -3.671  0.00  0.00     0.091 C 
BRANCH   2   3
HETATM    3  C   UNK N   1      27.087  24.544  -3.617  0.00  0.00     0.186 C 
HETATM    4  O   UNK N   1      26.952  23.845  -2.626  0.00  0.00    -0.286 OA
BRANCH   3   5
HETATM    5  S   UNK N   1      28.021  23.903  -5.016  0.00  0.00    -0.090 SA
BRANCH   5   6
HETATM    6  C   UNK N   1      29.648  23.905  -4.188  0.00  0.00     0.117 C 
BRANCH   6   7
HETATM    7  C   UNK N   1      30.072  22.498  -3.766  0.00  0.00     0.183 C 
BRANCH   7   8
HETATM    8  N   UNK N   1      30.906  21.937  -4.817  0.00  0.00    -0.417 N 
HETATM    9  H   UNK N   1      31.918  21.828  -4.749  0.00  0.00     0.150 HD
HETATM   10  H   UNK N   1      30.449  21.633  -5.678  0.00  0.00     0.150 HD
ENDBRANCH   7   8
BRANCH   7  11
HETATM   11  C   UNK N   1      30.824  22.516  -2.455  0.00  0.00     0.163 C 
HETATM   12  O   UNK N   1      31.934  22.014  -2.367  0.00  0.00    -0.648 OA
BRANCH  11  13
HETATM   13  O   UNK N   1      30.263  23.071  -1.362  0.00  0.00    -0.775 OA
HETATM   14  H   UNK N   1      30.096  23.987  -1.255  0.00  0.00     0.167 HD
ENDBRANCH  11  13
ENDBRANCH   7  11
ENDBRANCH   6   7
ENDBRANCH   5   6
ENDBRANCH   3   5
ENDBRANCH   2   3
ENDBRANCH   1   2
BRANCH   1  15
HETATM   15  C   UNK N   1      25.290  27.456  -5.219  0.00  0.00     0.000 C 
BRANCH  15  16
HETATM   16  C   UNK N   1      26.018  28.347  -4.228  0.00  0.00     0.000 C 
BRANCH  16  17
HETATM   17  C   UNK N   1      26.921  29.322  -4.965  0.00  0.00     0.000 C 
BRANCH  17  18
HETATM   18  C   UNK N   1      28.075  28.600  -5.634  0.00  0.00     0.000 C 
BRANCH  18  19
HETATM   19  C   UNK N   1      28.326  29.247  -6.979  0.00  0.00     0.000 C 
BRANCH  19  20
HETATM   20  C   UNK N   1      28.603  28.196  -8.033  0.00  0.00     0.000 C 
BRANCH  20  21
HETATM   21  C   UNK N   1      28.119  26.864  -7.501  0.00  0.00     0.000 C 
BRANCH  21  22
HETATM   22  C   UNK N   1      27.047  26.273  -8.394  0.00  0.00     0.000 C 
BRANCH  22  23
HETATM   23  C   UNK N   1      27.438  24.843  -8.707  0.00  0.00     0.000 C 
BRANCH  23  24
HETATM   24  C   UNK N   1      26.395  24.163  -9.568  0.00  0.00     0.000 C 
BRANCH  24  25
HETATM   25  C   UNK N   1      25.210  23.830  -8.683  0.00  0.00    -0.000 C 
BRANCH  25  26
HETATM   26  C   UNK N   1      25.602  22.827  -7.621  0.00  0.00    -0.005 C 
HETATM   27  C   UNK N   1      25.163  21.447  -8.065  0.00  0.00     0.005 C 
ENDBRANCH  25  26
ENDBRANCH  24  25
ENDBRANCH  23  24
ENDBRANCH  22  23
ENDBRANCH  21  22
ENDBRANCH  20  21
ENDBRANCH  19  20
ENDBRANCH  18  19
ENDBRANCH  17  18
ENDBRANCH  16  17
ENDBRANCH  15  16
ENDBRANCH   1  15
TORSDOF 20
ENDMDL
MODEL 7
REMARK VINA RESULT:      -4.6     14.185     16.787
REMARK  20 active torsions:
REMARK  status: ('A' for Active; 'I' for Inactive)
REMARK    1  A    between atoms: C_3  and  N_2 
REMARK    2  A    between atoms: C_3  and  C_4 
REMARK    3  A    between atoms: C_3  and  C_21 
REMARK    4  A    between atoms: C_4  and  S_5 
REMARK    5  A    between atoms: S_5  and  C_6 
REMARK    6  A    between atoms: C_6  and  C_8 
REMARK    7  A    between atoms: C_8  and  C_9 
REMARK    8  A    between atoms: C_9  and  C_10 
REMARK    9  A    between atoms: C_10  and  C_11 
REMARK   10  A    between atoms: C_11  and  C_12 
REMARK   11  A    between atoms: C_12  and  C_13 
REMARK   12  A    between atoms: C_13  and  C_14 
REMARK   13  A    between atoms: C_14  and  C_15 
REMARK   14  A    between atoms: C_15  and  C_16 
REMARK   15  A    between atoms: C_16  and  C_17 
REMARK   16  A    between atoms: C_17  and  C_18 
REMARK   17  A    between atoms: C_18  and  C_19 
REMARK   18  A    between atoms: C_19  and  C_20 
REMARK   19  A    between atoms: C_20  and  C_22 
REMARK   20  A    between atoms: C_21  and  O_24 
ROOT
HETATM    1  C   UNK N   1      25.585  25.608  -7.418  0.00  0.00     0.008 C 
ENDROOT
BRANCH   1   2
HETATM    2  C   UNK N   1      26.197  25.734  -8.801  0.00  0.00     0.091 C 
BRANCH   2   3
HETATM    3  C   UNK N   1      25.942  24.484  -9.584  0.00  0.00     0.186 C 
HETATM    4  O   UNK N   1      24.894  24.360 -10.196  0.00  0.00    -0.286 OA
BRANCH   3   5
HETATM    5  S   UNK N   1      27.181  23.184  -9.702  0.00  0.00    -0.090 SA
BRANCH   5   6
HETATM    6  C   UNK N   1      26.005  21.810  -9.950  0.00  0.00     0.117 C 
BRANCH   6   7
HETATM    7  C   UNK N   1      25.737  21.051  -8.649  0.00  0.00     0.183 C 
BRANCH   7   8
HETATM    8  N   UNK N   1      27.007  20.841  -7.972  0.00  0.00    -0.417 N 
HETATM    9  H   UNK N   1      27.289  21.328  -7.121  0.00  0.00     0.150 HD
HETATM   10  H   UNK N   1      27.656  20.165  -8.375  0.00  0.00     0.150 HD
ENDBRANCH   7   8
BRANCH   7  11
HETATM   11  C   UNK N   1      24.785  21.810  -7.753  0.00  0.00     0.163 C 
HETATM   12  O   UNK N   1      25.116  22.127  -6.621  0.00  0.00    -0.648 OA
BRANCH  11  13
HETATM   13  O   UNK N   1      23.550  22.125  -8.192  0.00  0.00    -0.775 OA
HETATM   14  H   UNK N   1      23.128  22.950  -8.050  0.00  0.00     0.167 HD
ENDBRANCH  11  13
ENDBRANCH   7  11
ENDBRANCH   6   7
ENDBRANCH   5   6
ENDBRANCH   3   5
ENDBRANCH   2   3
ENDBRANCH   1   2
BRANCH   1  15
HETATM   15  C   UNK N   1      25.512  26.971  -6.763  0.00  0.00     0.000 C 
BRANCH  15  16
HETATM   16  C   UNK N   1      24.884  26.856  -5.385  0.00  0.00     0.000 C 
BRANCH  16  17
HETATM   17  C   UNK N   1      25.505  27.871  -4.440  0.00  0.00     0.000 C 
BRANCH  17  18
HETATM   18  C   UNK N   1      26.097  27.191  -3.219  0.00  0.00     0.000 C 
BRANCH  18  19
HETATM   19  C   UNK N   1      26.795  25.926  -3.672  0.00  0.00     0.000 C 
BRANCH  19  20
HETATM   20  C   UNK N   1      28.245  26.208  -4.004  0.00  0.00     0.000 C 
BRANCH  20  21
HETATM   21  C   UNK N   1      28.613  25.381  -5.219  0.00  0.00     0.000 C 
BRANCH  21  22
HETATM   22  C   UNK N   1      27.823  24.090  -5.264  0.00  0.00     0.000 C 
BRANCH  22  23
HETATM   23  C   UNK N   1      28.775  22.975  -5.645  0.00  0.00     0.000 C 
BRANCH  23  24
HETATM   24  C   UNK N   1      30.176  23.251  -5.141  0.00  0.00     0.000 C 
BRANCH  24  25
HETATM   25  C   UNK N   1      30.403  22.393  -3.913  0.00  0.00    -0.000 C 
BRANCH  25  26
HETATM   26  C   UNK N   1      30.392  23.241  -2.660  0.00  0.00    -0.005 C 
HETATM   27  C   UNK N   1      29.106  22.981  -1.904  0.00  0.00     0.005 C 
ENDBRANCH  25  26
ENDBRANCH  24  25
ENDBRANCH  23  24
ENDBRANCH  22  23
ENDBRANCH  21  22
ENDBRANCH  20  21
ENDBRANCH  19  20
ENDBRANCH  18  19
ENDBRANCH  17  18
ENDBRANCH  16  17
ENDBRANCH  15  16
ENDBRANCH   1  15
TORSDOF 20
ENDMDL
MODEL 8
REMARK VINA RESULT:      -4.6     13.582     16.115
REMARK  20 active torsions:
REMARK  status: ('A' for Active; 'I' for Inactive)
REMARK    1  A    between atoms: C_3  and  N_2 
REMARK    2  A    between atoms: C_3  and  C_4 
REMARK    3  A    between atoms: C_3  and  C_21 
REMARK    4  A    between atoms: C_4  and  S_5 
REMARK    5  A    between atoms: S_5  and  C_6 
REMARK    6  A    between atoms: C_6  and  C_8 
REMARK    7  A    between atoms: C_8  and  C_9 
REMARK    8  A    between atoms: C_9  and  C_10 
REMARK    9  A    between atoms: C_10  and  C_11 
REMARK   10  A    between atoms: C_11  and  C_12 
REMARK   11  A    between atoms: C_12  and  C_13 
REMARK   12  A    between atoms: C_13  and  C_14 
REMARK   13  A    between atoms: C_14  and  C_15 
REMARK   14  A    between atoms: C_15  and  C_16 
REMARK   15  A    between atoms: C_16  and  C_17 
REMARK   16  A    between atoms: C_17  and  C_18 
REMARK   17  A    between atoms: C_18  and  C_19 
REMARK   18  A    between atoms: C_19  and  C_20 
REMARK   19  A    between atoms: C_20  and  C_22 
REMARK   20  A    between atoms: C_21  and  O_24 
ROOT
HETATM    1  C   UNK N   1      36.306  13.939  11.837  0.00  0.00     0.008 C 
ENDROOT
BRANCH   1   2
HETATM    2  C   UNK N   1      35.916  15.366  12.177  0.00  0.00     0.091 C 
BRANCH   2   3
HETATM    3  C   UNK N   1      35.186  15.980  11.024  0.00  0.00     0.186 C 
HETATM    4  O   UNK N   1      35.508  17.089  10.628  0.00  0.00    -0.286 OA
BRANCH   3   5
HETATM    5  S   UNK N   1      33.885  15.088  10.157  0.00  0.00    -0.090 SA
BRANCH   5   6
HETATM    6  C   UNK N   1      34.368  15.614   8.477  0.00  0.00     0.117 C 
BRANCH   6   7
HETATM    7  C   UNK N   1      33.409  16.664   7.914  0.00  0.00     0.183 C 
BRANCH   7   8
HETATM    8  N   UNK N   1      32.679  17.258   9.023  0.00  0.00    -0.417 N 
HETATM    9  H   UNK N   1      32.090  18.087   8.942  0.00  0.00     0.150 HD
HETATM   10  H   UNK N   1      32.763  16.818   9.939  0.00  0.00     0.150 HD
ENDBRANCH   7   8
BRANCH   7  11
HETATM   11  C   UNK N   1      34.149  17.733   7.142  0.00  0.00     0.163 C 
HETATM   12  O   UNK N   1      34.744  18.624   7.728  0.00  0.00    -0.648 OA
BRANCH  11  13
HETATM   13  O   UNK N   1      34.142  17.721   5.794  0.00  0.00    -0.775 OA
HETATM   14  H   UNK N   1      34.733  18.206   5.254  0.00  0.00     0.167 HD
ENDBRANCH  11  13
ENDBRANCH   7  11
ENDBRANCH   6   7
ENDBRANCH   5   6
ENDBRANCH   3   5
ENDBRANCH   2   3
ENDBRANCH   1   2
BRANCH   1  15
HETATM   15  C   UNK N   1      35.413  12.971  12.584  0.00  0.00     0.000 C 
BRANCH  15  16
HETATM   16  C   UNK N   1      35.501  13.224  14.078  0.00  0.00     0.000 C 
BRANCH  16  17
HETATM   17  C   UNK N   1      34.467  12.387  14.813  0.00  0.00     0.000 C 
BRANCH  17  18
HETATM   18  C   UNK N   1      34.976  10.978  15.055  0.00  0.00     0.000 C 
BRANCH  18  19
HETATM   19  C   UNK N   1      36.289  11.070  15.803  0.00  0.00     0.000 C 
BRANCH  19  20
HETATM   20  C   UNK N   1      36.811   9.687  16.134  0.00  0.00     0.000 C 
BRANCH  20  21
HETATM   21  C   UNK N   1      35.628   8.821  16.511  0.00  0.00     0.000 C 
BRANCH  21  22
HETATM   22  C   UNK N   1      35.234   9.029  17.959  0.00  0.00     0.000 C 
BRANCH  22  23
HETATM   23  C   UNK N   1      36.506   9.116  18.779  0.00  0.00     0.000 C 
BRANCH  23  24
HETATM   24  C   UNK N   1      36.500  10.336  19.676  0.00  0.00     0.000 C 
BRANCH  24  25
HETATM   25  C   UNK N   1      35.219  11.101  19.407  0.00  0.00    -0.000 C 
BRANCH  25  26
HETATM   26  C   UNK N   1      35.423  12.582  19.640  0.00  0.00    -0.005 C 
HETATM   27  C   UNK N   1      35.121  13.326  18.356  0.00  0.00     0.005 C 
ENDBRANCH  25  26
ENDBRANCH  24  25
ENDBRANCH  23  24
ENDBRANCH  22  23
ENDBRANCH  21  22
ENDBRANCH  20  21
ENDBRANCH  19  20
ENDBRANCH  18  19
ENDBRANCH  17  18
ENDBRANCH  16  17
ENDBRANCH  15  16
ENDBRANCH   1  15
TORSDOF 20
ENDMDL
MODEL 9
REMARK VINA RESULT:      -4.5     15.034     17.745
REMARK  20 active torsions:
REMARK  status: ('A' for Active; 'I' for Inactive)
REMARK    1  A    between atoms: C_3  and  N_2 
REMARK    2  A    between atoms: C_3  and  C_4 
REMARK    3  A    between atoms: C_3  and  C_21 
REMARK    4  A    between atoms: C_4  and  S_5 
REMARK    5  A    between atoms: S_5  and  C_6 
REMARK    6  A    between atoms: C_6  and  C_8 
REMARK    7  A    between atoms: C_8  and  C_9 
REMARK    8  A    between atoms: C_9  and  C_10 
REMARK    9  A    between atoms: C_10  and  C_11 
REMARK   10  A    between atoms: C_11  and  C_12 
REMARK   11  A    between atoms: C_12  and  C_13 
REMARK   12  A    between atoms: C_13  and  C_14 
REMARK   13  A    between atoms: C_14  and  C_15 
REMARK   14  A    between atoms: C_15  and  C_16 
REMARK   15  A    between atoms: C_16  and  C_17 
REMARK   16  A    between atoms: C_17  and  C_18 
REMARK   17  A    between atoms: C_18  and  C_19 
REMARK   18  A    between atoms: C_19  and  C_20 
REMARK   19  A    between atoms: C_20  and  C_22 
REMARK   20  A    between atoms: C_21  and  O_24 
ROOT
HETATM    1  C   UNK N   1      27.886  23.779  -6.777  0.00  0.00     0.008 C 
ENDROOT
BRANCH   1   2
HETATM    2  C   UNK N   1      29.103  23.226  -6.058  0.00  0.00     0.091 C 
BRANCH   2   3
HETATM    3  C   UNK N   1      29.332  21.805  -6.468  0.00  0.00     0.186 C 
HETATM    4  O   UNK N   1      28.601  21.293  -7.301  0.00  0.00    -0.286 OA
BRANCH   3   5
HETATM    5  S   UNK N   1      30.710  20.851  -5.813  0.00  0.00    -0.090 SA
BRANCH   5   6
HETATM    6  C   UNK N   1      31.350  22.157  -4.709  0.00  0.00     0.117 C 
BRANCH   6   7
HETATM    7  C   UNK N   1      31.105  21.824  -3.236  0.00  0.00     0.183 C 
BRANCH   7   8
HETATM    8  N   UNK N   1      32.327  21.256  -2.687  0.00  0.00    -0.417 N 
HETATM    9  H   UNK N   1      33.208  21.762  -2.606  0.00  0.00     0.150 HD
HETATM   10  H   UNK N   1      32.299  20.289  -2.363  0.00  0.00     0.150 HD
ENDBRANCH   7   8
BRANCH   7  11
HETATM   11  C   UNK N   1      30.700  23.051  -2.452  0.00  0.00     0.163 C 
HETATM   12  O   UNK N   1      30.345  22.955  -1.287  0.00  0.00    -0.648 OA
BRANCH  11  13
HETATM   13  O   UNK N   1      30.709  24.263  -3.041  0.00  0.00    -0.775 OA
HETATM   14  H   UNK N   1      30.215  25.002  -2.747  0.00  0.00     0.167 HD
ENDBRANCH  11  13
ENDBRANCH   7  11
ENDBRANCH   6   7
ENDBRANCH   5   6
ENDBRANCH   3   5
ENDBRANCH   2   3
ENDBRANCH   1   2
BRANCH   1  15
HETATM   15  C   UNK N   1      28.242  25.080  -7.463  0.00  0.00     0.000 C 
BRANCH  15  16
HETATM   16  C   UNK N   1      27.209  25.411  -8.526  0.00  0.00     0.000 C 
BRANCH  16  17
HETATM   17  C   UNK N   1      25.828  25.514  -7.899  0.00  0.00     0.000 C 
BRANCH  17  18
HETATM   18  C   UNK N   1      25.687  26.794  -7.096  0.00  0.00     0.000 C 
BRANCH  18  19
HETATM   19  C   UNK N   1      25.092  26.445  -5.748  0.00  0.00     0.000 C 
BRANCH  19  20
HETATM   20  C   UNK N   1      25.056  27.664  -4.850  0.00  0.00     0.000 C 
BRANCH  20  21
HETATM   21  C   UNK N   1      25.934  27.384  -3.649  0.00  0.00     0.000 C 
BRANCH  21  22
HETATM   22  C   UNK N   1      26.612  26.034  -3.767  0.00  0.00     0.000 C 
BRANCH  22  23
HETATM   23  C   UNK N   1      28.092  26.275  -3.988  0.00  0.00     0.000 C 
BRANCH  23  24
HETATM   24  C   UNK N   1      28.417  27.754  -3.977  0.00  0.00     0.000 C 
BRANCH  24  25
HETATM   25  C   UNK N   1      29.129  28.079  -5.275  0.00  0.00    -0.000 C 
BRANCH  25  26
HETATM   26  C   UNK N   1      28.327  29.071  -6.089  0.00  0.00    -0.005 C 
HETATM   27  C   UNK N   1      28.618  28.847  -7.559  0.00  0.00     0.005 C 
ENDBRANCH  25  26
ENDBRANCH  24  25
ENDBRANCH  23  24
ENDBRANCH  22  23
ENDBRANCH  21  22
ENDBRANCH  20  21
ENDBRANCH  19  20
ENDBRANCH  18  19
ENDBRANCH  17  18
ENDBRANCH  16  17
ENDBRANCH  15  16
ENDBRANCH   1  15
TORSDOF 20
ENDMDL
