MODEL 1
REMARK VINA RESULT:      -6.9      0.000      0.000
REMARK  9 active torsions:
REMARK  status: ('A' for Active; 'I' for Inactive)
REMARK    1  A    between atoms: C_7  and  C_8 
REMARK       I    between atoms: C_8  and  N_10 
REMARK    2  A    between atoms: N_10  and  C_11 
REMARK    3  A    between atoms: C_13  and  N_10 
REMARK    4  A    between atoms: C_11  and  C_12 
REMARK    5  A    between atoms: C_12  and  C_27 
REMARK    6  A    between atoms: N_15  and  C_19 
REMARK    7  A    between atoms: C_19  and  C_20 
REMARK    8  A    between atoms: C_20  and  C_21 
REMARK    9  A    between atoms: C_27  and  O_28 
ROOT
HETATM    1  C   UNK N   1      21.347  12.966   7.737  0.00  0.00     0.254 C 
HETATM    2  O   UNK N   1      20.973  11.973   7.136  0.00  0.00    -0.267 OA
HETATM    3  N   UNK N   1      21.304  14.214   7.118  0.00  0.00    -0.342 N 
ENDROOT
BRANCH   3   4
HETATM    4  C   UNK N   1      21.652  15.402   7.876  0.00  0.00     0.129 C 
BRANCH   4   5
HETATM    5  C   UNK N   1      20.491  15.943   8.688  0.00  0.00     0.046 C 
BRANCH   5   6
HETATM    6  C   UNK N   1      20.134  17.326   8.167  0.00  0.00     0.168 C 
BRANCH   6   7
HETATM    7  O   UNK N   1      19.357  18.006   9.108  0.00  0.00    -0.396 OA
HETATM    8  C   UNK N   1      18.169  17.284   9.183  0.00  0.00     0.201 C 
ENDBRANCH   6   7
ENDBRANCH   5   6
ENDBRANCH   4   5
ENDBRANCH   3   4
BRANCH   3   9
HETATM    9  C   UNK N   1      20.898  14.426   5.707  0.00  0.00     0.115 C 
HETATM   10  C   UNK N   1      21.883  15.388   5.000  0.00  0.00     0.297 C 
HETATM   11  N   UNK N   1      21.535  15.668   3.593  0.00  0.00     0.090 N 
HETATM   12  C   UNK N   1      20.157  16.132   3.432  0.00  0.00     0.272 C 
HETATM   13  C   UNK N   1      19.167  15.131   4.010  0.00  0.00     0.032 C 
HETATM   14  C   UNK N   1      19.467  14.941   5.488  0.00  0.00     0.029 C 
BRANCH  11  15
HETATM   15  C   UNK N   1      21.872  14.674   2.557  0.00  0.00     0.277 C 
BRANCH  15  16
HETATM   16  C   UNK N   1      21.286  14.915   1.165  0.00  0.00     0.068 C 
BRANCH  16  17
HETATM   17  C   UNK N   1      20.279  13.872   0.811  0.00  0.00    -0.057 A 
HETATM   18  C   UNK N   1      18.976  14.254   0.477  0.00  0.00     0.007 A 
HETATM   19  C   UNK N   1      18.031  13.286   0.125  0.00  0.00     0.001 A 
HETATM   20  C   UNK N   1      18.385  11.934   0.107  0.00  0.00     0.000 A 
HETATM   21  C   UNK N   1      19.688  11.549   0.436  0.00  0.00     0.001 A 
HETATM   22  C   UNK N   1      20.637  12.516   0.782  0.00  0.00     0.007 A 
ENDBRANCH  16  17
ENDBRANCH  15  16
ENDBRANCH  11  15
ENDBRANCH   3   9
BRANCH   1  23
HETATM   23  C   UNK N   1      21.896  12.739   9.126  0.00  0.00     0.032 A 
HETATM   24  C   UNK N   1      23.261  12.543   9.390  0.00  0.00     0.018 A 
HETATM   25  C   UNK N   1      23.715  12.257  10.680  0.00  0.00     0.025 A 
HETATM   26  C   UNK N   1      22.805  12.159  11.731  0.00  0.00     0.034 A 
HETATM   27 Cl   UNK N   1      23.373  11.783  13.344  0.00  0.00    -0.084 Cl
HETATM   28  C   UNK N   1      21.444  12.354  11.494  0.00  0.00     0.025 A 
HETATM   29  C   UNK N   1      20.992  12.635  10.200  0.00  0.00     0.018 A 
ENDBRANCH   1  23
TORSDOF 9
ENDMDL
MODEL 2
REMARK VINA RESULT:      -6.7      3.046      4.975
REMARK  9 active torsions:
REMARK  status: ('A' for Active; 'I' for Inactive)
REMARK    1  A    between atoms: C_7  and  C_8 
REMARK       I    between atoms: C_8  and  N_10 
REMARK    2  A    between atoms: N_10  and  C_11 
REMARK    3  A    between atoms: C_13  and  N_10 
REMARK    4  A    between atoms: C_11  and  C_12 
REMARK    5  A    between atoms: C_12  and  C_27 
REMARK    6  A    between atoms: N_15  and  C_19 
REMARK    7  A    between atoms: C_19  and  C_20 
REMARK    8  A    between atoms: C_20  and  C_21 
REMARK    9  A    between atoms: C_27  and  O_28 
ROOT
HETATM    1  C   UNK N   1      22.116  13.780   7.430  0.00  0.00     0.254 C 
HETATM    2  O   UNK N   1      22.419  13.085   6.474  0.00  0.00    -0.267 OA
HETATM    3  N   UNK N   1      21.609  15.063   7.228  0.00  0.00    -0.342 N 
ENDROOT
BRANCH   3   4
HETATM    4  C   UNK N   1      21.156  15.841   8.365  0.00  0.00     0.129 C 
BRANCH   4   5
HETATM    5  C   UNK N   1      19.694  15.605   8.694  0.00  0.00     0.046 C 
BRANCH   5   6
HETATM    6  C   UNK N   1      18.967  16.941   8.669  0.00  0.00     0.168 C 
BRANCH   6   7
HETATM    7  O   UNK N   1      17.611  16.741   8.400  0.00  0.00    -0.396 OA
HETATM    8  C   UNK N   1      16.938  17.399   9.426  0.00  0.00     0.201 C 
ENDBRANCH   6   7
ENDBRANCH   5   6
ENDBRANCH   4   5
ENDBRANCH   3   4
BRANCH   3   9
HETATM    9  C   UNK N   1      21.479  15.702   5.895  0.00  0.00     0.115 C 
HETATM   10  C   UNK N   1      21.634  17.237   6.015  0.00  0.00     0.297 C 
HETATM   11  N   UNK N   1      21.495  17.952   4.730  0.00  0.00     0.090 N 
HETATM   12  C   UNK N   1      20.259  17.612   4.024  0.00  0.00     0.272 C 
HETATM   13  C   UNK N   1      20.155  16.112   3.786  0.00  0.00     0.032 C 
HETATM   14  C   UNK N   1      20.183  15.398   5.127  0.00  0.00     0.029 C 
BRANCH  11  15
HETATM   15  C   UNK N   1      22.635  17.980   3.795  0.00  0.00     0.277 C 
BRANCH  15  16
HETATM   16  C   UNK N   1      23.382  19.309   3.672  0.00  0.00     0.068 C 
BRANCH  16  17
HETATM   17  C   UNK N   1      24.854  19.121   3.828  0.00  0.00    -0.057 A 
HETATM   18  C   UNK N   1      25.417  17.860   3.615  0.00  0.00     0.007 A 
HETATM   19  C   UNK N   1      26.798  17.677   3.739  0.00  0.00     0.001 A 
HETATM   20  C   UNK N   1      27.619  18.756   4.080  0.00  0.00     0.000 A 
HETATM   21  C   UNK N   1      27.060  20.021   4.291  0.00  0.00     0.001 A 
HETATM   22  C   UNK N   1      25.681  20.206   4.160  0.00  0.00     0.007 A 
ENDBRANCH  16  17
ENDBRANCH  15  16
ENDBRANCH  11  15
ENDBRANCH   3   9
BRANCH   1  23
HETATM   23  C   UNK N   1      22.380  13.190   8.795  0.00  0.00     0.032 A 
HETATM   24  C   UNK N   1      21.358  12.753   9.654  0.00  0.00     0.018 A 
HETATM   25  C   UNK N   1      21.642  12.287  10.939  0.00  0.00     0.025 A 
HETATM   26  C   UNK N   1      22.960  12.254  11.391  0.00  0.00     0.034 A 
HETATM   27 Cl   UNK N   1      23.314  11.687  13.009  0.00  0.00    -0.084 Cl
HETATM   28  C   UNK N   1      23.993  12.679  10.555  0.00  0.00     0.025 A 
HETATM   29  C   UNK N   1      23.705  13.150   9.270  0.00  0.00     0.018 A 
ENDBRANCH   1  23
TORSDOF 9
ENDMDL
MODEL 3
REMARK VINA RESULT:      -6.7     14.599     18.649
REMARK  9 active torsions:
REMARK  status: ('A' for Active; 'I' for Inactive)
REMARK    1  A    between atoms: C_7  and  C_8 
REMARK       I    between atoms: C_8  and  N_10 
REMARK    2  A    between atoms: N_10  and  C_11 
REMARK    3  A    between atoms: C_13  and  N_10 
REMARK    4  A    between atoms: C_11  and  C_12 
REMARK    5  A    between atoms: C_12  and  C_27 
REMARK    6  A    between atoms: N_15  and  C_19 
REMARK    7  A    between atoms: C_19  and  C_20 
REMARK    8  A    between atoms: C_20  and  C_21 
REMARK    9  A    between atoms: C_27  and  O_28 
ROOT
HETATM    1  C   UNK N   1      35.129  13.329  12.085  0.00  0.00     0.254 C 
HETATM    2  O   UNK N   1      34.591  13.330  13.180  0.00  0.00    -0.267 OA
HETATM    3  N   UNK N   1      35.991  12.292  11.733  0.00  0.00    -0.342 N 
ENDROOT
BRANCH   3   4
HETATM    4  C   UNK N   1      36.544  12.244  10.392  0.00  0.00     0.129 C 
BRANCH   4   5
HETATM    5  C   UNK N   1      37.790  13.096  10.239  0.00  0.00     0.046 C 
BRANCH   5   6
HETATM    6  C   UNK N   1      37.764  13.756   8.869  0.00  0.00     0.168 C 
BRANCH   6   7
HETATM    7  O   UNK N   1      36.609  13.377   8.179  0.00  0.00    -0.396 OA
HETATM    8  C   UNK N   1      36.551  14.230   7.080  0.00  0.00     0.201 C 
ENDBRANCH   6   7
ENDBRANCH   5   6
ENDBRANCH   4   5
ENDBRANCH   3   4
BRANCH   3   9
HETATM    9  C   UNK N   1      36.382  11.191  12.649  0.00  0.00     0.115 C 
HETATM   10  C   UNK N   1      37.389  11.701  13.706  0.00  0.00     0.297 C 
HETATM   11  N   UNK N   1      37.846  10.658  14.646  0.00  0.00     0.090 N 
HETATM   12  C   UNK N   1      38.369   9.472  13.965  0.00  0.00     0.272 C 
HETATM   13  C   UNK N   1      37.337   8.884  13.013  0.00  0.00     0.032 C 
HETATM   14  C   UNK N   1      36.964   9.935  11.982  0.00  0.00     0.029 C 
BRANCH  11  15
HETATM   15  C   UNK N   1      36.972  10.268  15.768  0.00  0.00     0.277 C 
BRANCH  15  16
HETATM   16  C   UNK N   1      35.595  10.933  15.823  0.00  0.00     0.068 C 
BRANCH  16  17
HETATM   17  C   UNK N   1      35.437  11.754  17.058  0.00  0.00    -0.057 A 
HETATM   18  C   UNK N   1      35.457  11.131  18.310  0.00  0.00     0.007 A 
HETATM   19  C   UNK N   1      35.329  11.893  19.475  0.00  0.00     0.001 A 
HETATM   20  C   UNK N   1      35.177  13.280  19.391  0.00  0.00     0.000 A 
HETATM   21  C   UNK N   1      35.160  13.907  18.141  0.00  0.00     0.001 A 
HETATM   22  C   UNK N   1      35.295  13.147  16.976  0.00  0.00     0.007 A 
ENDBRANCH  16  17
ENDBRANCH  15  16
ENDBRANCH  11  15
ENDBRANCH   3   9
BRANCH   1  23
HETATM   23  C   UNK N   1      34.848  14.520  11.201  0.00  0.00     0.032 A 
HETATM   24  C   UNK N   1      33.945  14.484  10.126  0.00  0.00     0.018 A 
HETATM   25  C   UNK N   1      33.775  15.585   9.285  0.00  0.00     0.025 A 
HETATM   26  C   UNK N   1      34.512  16.748   9.504  0.00  0.00     0.034 A 
HETATM   27 Cl   UNK N   1      34.311  18.122   8.439  0.00  0.00    -0.084 Cl
HETATM   28  C   UNK N   1      35.413  16.810  10.568  0.00  0.00     0.025 A 
HETATM   29  C   UNK N   1      35.584  15.703  11.406  0.00  0.00     0.018 A 
ENDBRANCH   1  23
TORSDOF 9
ENDMDL
MODEL 4
REMARK VINA RESULT:      -6.5     11.390     15.354
REMARK  9 active torsions:
REMARK  status: ('A' for Active; 'I' for Inactive)
REMARK    1  A    between atoms: C_7  and  C_8 
REMARK       I    between atoms: C_8  and  N_10 
REMARK    2  A    between atoms: N_10  and  C_11 
REMARK    3  A    between atoms: C_13  and  N_10 
REMARK    4  A    between atoms: C_11  and  C_12 
REMARK    5  A    between atoms: C_12  and  C_27 
REMARK    6  A    between atoms: N_15  and  C_19 
REMARK    7  A    between atoms: C_19  and  C_20 
REMARK    8  A    between atoms: C_20  and  C_21 
REMARK    9  A    between atoms: C_27  and  O_28 
ROOT
HETATM    1  C   UNK N   1      33.915  16.004   6.650  0.00  0.00     0.254 C 
HETATM    2  O   UNK N   1      35.088  15.974   6.313  0.00  0.00    -0.267 OA
HETATM    3  N   UNK N   1      33.571  15.855   7.992  0.00  0.00    -0.342 N 
ENDROOT
BRANCH   3   4
HETATM    4  C   UNK N   1      32.185  15.996   8.396  0.00  0.00     0.129 C 
BRANCH   4   5
HETATM    5  C   UNK N   1      31.748  17.445   8.505  0.00  0.00     0.046 C 
BRANCH   5   6
HETATM    6  C   UNK N   1      30.339  17.572   7.947  0.00  0.00     0.168 C 
BRANCH   6   7
HETATM    7  O   UNK N   1      29.697  18.672   8.520  0.00  0.00    -0.396 OA
HETATM    8  C   UNK N   1      29.405  18.282   9.824  0.00  0.00     0.201 C 
ENDBRANCH   6   7
ENDBRANCH   5   6
ENDBRANCH   4   5
ENDBRANCH   3   4
BRANCH   3   9
HETATM    9  C   UNK N   1      34.549  15.572   9.072  0.00  0.00     0.115 C 
HETATM   10  C   UNK N   1      33.970  14.540  10.069  0.00  0.00     0.297 C 
HETATM   11  N   UNK N   1      34.876  14.221  11.190  0.00  0.00     0.090 N 
HETATM   12  C   UNK N   1      35.345  15.413  11.897  0.00  0.00     0.272 C 
HETATM   13  C   UNK N   1      36.034  16.382  10.946  0.00  0.00     0.032 C 
HETATM   14  C   UNK N   1      35.049  16.791   9.863  0.00  0.00     0.029 C 
BRANCH  11  15
HETATM   15  C   UNK N   1      35.989  13.278  10.969  0.00  0.00     0.277 C 
BRANCH  15  16
HETATM   16  C   UNK N   1      36.628  12.673  12.220  0.00  0.00     0.068 C 
BRANCH  16  17
HETATM   17  C   UNK N   1      35.604  12.039  13.101  0.00  0.00    -0.057 A 
HETATM   18  C   UNK N   1      35.355  12.573  14.369  0.00  0.00     0.007 A 
HETATM   19  C   UNK N   1      34.384  11.999  15.194  0.00  0.00     0.001 A 
HETATM   20  C   UNK N   1      33.661  10.886  14.755  0.00  0.00     0.000 A 
HETATM   21  C   UNK N   1      33.904  10.350  13.486  0.00  0.00     0.001 A 
HETATM   22  C   UNK N   1      34.870  10.928  12.657  0.00  0.00     0.007 A 
ENDBRANCH  16  17
ENDBRANCH  15  16
ENDBRANCH  11  15
ENDBRANCH   3   9
BRANCH   1  23
HETATM   23  C   UNK N   1      32.904  16.149   5.538  0.00  0.00     0.032 A 
HETATM   24  C   UNK N   1      32.602  17.378   4.929  0.00  0.00     0.018 A 
HETATM   25  C   UNK N   1      31.602  17.479   3.959  0.00  0.00     0.025 A 
HETATM   26  C   UNK N   1      30.882  16.346   3.582  0.00  0.00     0.034 A 
HETATM   27 Cl   UNK N   1      29.617  16.477   2.379  0.00  0.00    -0.084 Cl
HETATM   28  C   UNK N   1      31.167  15.113   4.170  0.00  0.00     0.025 A 
HETATM   29  C   UNK N   1      32.166  15.016   5.144  0.00  0.00     0.018 A 
ENDBRANCH   1  23
TORSDOF 9
ENDMDL
MODEL 5
REMARK VINA RESULT:      -6.5     12.632     15.746
REMARK  9 active torsions:
REMARK  status: ('A' for Active; 'I' for Inactive)
REMARK    1  A    between atoms: C_7  and  C_8 
REMARK       I    between atoms: C_8  and  N_10 
REMARK    2  A    between atoms: N_10  and  C_11 
REMARK    3  A    between atoms: C_13  and  N_10 
REMARK    4  A    between atoms: C_11  and  C_12 
REMARK    5  A    between atoms: C_12  and  C_27 
REMARK    6  A    between atoms: N_15  and  C_19 
REMARK    7  A    between atoms: C_19  and  C_20 
REMARK    8  A    between atoms: C_20  and  C_21 
REMARK    9  A    between atoms: C_27  and  O_28 
ROOT
HETATM    1  C   UNK N   1      36.185  13.742  14.438  0.00  0.00     0.254 C 
HETATM    2  O   UNK N   1      37.008  14.637  14.541  0.00  0.00    -0.267 OA
HETATM    3  N   UNK N   1      35.580  13.490  13.208  0.00  0.00    -0.342 N 
ENDROOT
BRANCH   3   4
HETATM    4  C   UNK N   1      34.681  12.359  13.071  0.00  0.00     0.129 C 
BRANCH   4   5
HETATM    5  C   UNK N   1      35.359  11.138  12.477  0.00  0.00     0.046 C 
BRANCH   5   6
HETATM    6  C   UNK N   1      34.594  10.715  11.232  0.00  0.00     0.168 C 
BRANCH   6   7
HETATM    7  O   UNK N   1      33.550   9.856  11.582  0.00  0.00    -0.396 OA
HETATM    8  C   UNK N   1      33.932   8.607  11.098  0.00  0.00     0.201 C 
ENDBRANCH   6   7
ENDBRANCH   5   6
ENDBRANCH   4   5
ENDBRANCH   3   4
BRANCH   3   9
HETATM    9  C   UNK N   1      35.807  14.306  11.989  0.00  0.00     0.115 C 
HETATM   10  C   UNK N   1      34.493  14.455  11.187  0.00  0.00     0.297 C 
HETATM   11  N   UNK N   1      34.640  15.239   9.944  0.00  0.00     0.090 N 
HETATM   12  C   UNK N   1      35.714  14.740   9.084  0.00  0.00     0.272 C 
HETATM   13  C   UNK N   1      37.043  14.709   9.826  0.00  0.00     0.032 C 
HETATM   14  C   UNK N   1      36.907  13.805  11.040  0.00  0.00     0.029 C 
BRANCH  11  15
HETATM   15  C   UNK N   1      34.678  16.711  10.021  0.00  0.00     0.277 C 
BRANCH  15  16
HETATM   16  C   UNK N   1      34.804  17.460   8.693  0.00  0.00     0.068 C 
BRANCH  16  17
HETATM   17  C   UNK N   1      33.538  17.391   7.908  0.00  0.00    -0.057 A 
HETATM   18  C   UNK N   1      33.593  17.231   6.519  0.00  0.00     0.007 A 
HETATM   19  C   UNK N   1      32.412  17.146   5.776  0.00  0.00     0.001 A 
HETATM   20  C   UNK N   1      31.173  17.223   6.419  0.00  0.00     0.000 A 
HETATM   21  C   UNK N   1      31.113  17.379   7.807  0.00  0.00     0.001 A 
HETATM   22  C   UNK N   1      32.293  17.457   8.552  0.00  0.00     0.007 A 
ENDBRANCH  16  17
ENDBRANCH  15  16
ENDBRANCH  11  15
ENDBRANCH   3   9
BRANCH   1  23
HETATM   23  C   UNK N   1      35.843  12.999  15.707  0.00  0.00     0.032 A 
HETATM   24  C   UNK N   1      35.175  13.595  16.790  0.00  0.00     0.018 A 
HETATM   25  C   UNK N   1      34.950  12.893  17.976  0.00  0.00     0.025 A 
HETATM   26  C   UNK N   1      35.393  11.577  18.101  0.00  0.00     0.034 A 
HETATM   27 Cl   UNK N   1      35.126  10.704  19.594  0.00  0.00    -0.084 Cl
HETATM   28  C   UNK N   1      36.055  10.962  17.037  0.00  0.00     0.025 A 
HETATM   29  C   UNK N   1      36.284  11.670  15.852  0.00  0.00     0.018 A 
ENDBRANCH   1  23
TORSDOF 9
ENDMDL
MODEL 6
REMARK VINA RESULT:      -6.4      1.891      3.794
REMARK  9 active torsions:
REMARK  status: ('A' for Active; 'I' for Inactive)
REMARK    1  A    between atoms: C_7  and  C_8 
REMARK       I    between atoms: C_8  and  N_10 
REMARK    2  A    between atoms: N_10  and  C_11 
REMARK    3  A    between atoms: C_13  and  N_10 
REMARK    4  A    between atoms: C_11  and  C_12 
REMARK    5  A    between atoms: C_12  and  C_27 
REMARK    6  A    between atoms: N_15  and  C_19 
REMARK    7  A    between atoms: C_19  and  C_20 
REMARK    8  A    between atoms: C_20  and  C_21 
REMARK    9  A    between atoms: C_27  and  O_28 
ROOT
HETATM    1  C   UNK N   1      22.383  13.064   7.053  0.00  0.00     0.254 C 
HETATM    2  O   UNK N   1      22.528  12.148   6.260  0.00  0.00    -0.267 OA
HETATM    3  N   UNK N   1      22.121  14.353   6.589  0.00  0.00    -0.342 N 
ENDROOT
BRANCH   3   4
HETATM    4  C   UNK N   1      21.847  15.414   7.540  0.00  0.00     0.129 C 
BRANCH   4   5
HETATM    5  C   UNK N   1      20.455  15.996   7.387  0.00  0.00     0.046 C 
BRANCH   5   6
HETATM    6  C   UNK N   1      20.083  16.712   8.676  0.00  0.00     0.168 C 
BRANCH   6   7
HETATM    7  O   UNK N   1      20.219  18.093   8.511  0.00  0.00    -0.396 OA
HETATM    8  C   UNK N   1      19.469  18.655   9.541  0.00  0.00     0.201 C 
ENDBRANCH   6   7
ENDBRANCH   5   6
ENDBRANCH   4   5
ENDBRANCH   3   4
BRANCH   3   9
HETATM    9  C   UNK N   1      22.083  14.725   5.153  0.00  0.00     0.115 C 
HETATM   10  C   UNK N   1      20.955  13.954   4.426  0.00  0.00     0.297 C 
HETATM   11  N   UNK N   1      20.865  14.252   2.982  0.00  0.00     0.090 N 
HETATM   12  C   UNK N   1      22.141  14.078   2.287  0.00  0.00     0.272 C 
HETATM   13  C   UNK N   1      23.233  14.932   2.916  0.00  0.00     0.032 C 
HETATM   14  C   UNK N   1      23.392  14.531   4.373  0.00  0.00     0.029 C 
BRANCH  11  15
HETATM   15  C   UNK N   1      20.202  15.495   2.545  0.00  0.00     0.277 C 
BRANCH  15  16
HETATM   16  C   UNK N   1      19.907  16.529   3.633  0.00  0.00     0.068 C 
BRANCH  16  17
HETATM   17  C   UNK N   1      20.519  17.850   3.307  0.00  0.00    -0.057 A 
HETATM   18  C   UNK N   1      19.812  18.765   2.522  0.00  0.00     0.007 A 
HETATM   19  C   UNK N   1      20.369  20.014   2.227  0.00  0.00     0.001 A 
HETATM   20  C   UNK N   1      21.635  20.349   2.716  0.00  0.00     0.000 A 
HETATM   21  C   UNK N   1      22.343  19.438   3.506  0.00  0.00     0.001 A 
HETATM   22  C   UNK N   1      21.785  18.192   3.806  0.00  0.00     0.007 A 
ENDBRANCH  16  17
ENDBRANCH  15  16
ENDBRANCH  11  15
ENDBRANCH   3   9
BRANCH   1  23
HETATM   23  C   UNK N   1      22.562  12.720   8.512  0.00  0.00     0.032 A 
HETATM   24  C   UNK N   1      21.487  12.568   9.404  0.00  0.00     0.018 A 
HETATM   25  C   UNK N   1      21.702  12.329  10.762  0.00  0.00     0.025 A 
HETATM   26  C   UNK N   1      23.003  12.239  11.256  0.00  0.00     0.034 A 
HETATM   27 Cl   UNK N   1      23.271  11.956  12.962  0.00  0.00    -0.084 Cl
HETATM   28  C   UNK N   1      24.087  12.382  10.389  0.00  0.00     0.025 A 
HETATM   29  C   UNK N   1      23.868  12.627   9.029  0.00  0.00     0.018 A 
ENDBRANCH   1  23
TORSDOF 9
ENDMDL
MODEL 7
REMARK VINA RESULT:      -6.4     11.862     16.144
REMARK  9 active torsions:
REMARK  status: ('A' for Active; 'I' for Inactive)
REMARK    1  A    between atoms: C_7  and  C_8 
REMARK       I    between atoms: C_8  and  N_10 
REMARK    2  A    between atoms: N_10  and  C_11 
REMARK    3  A    between atoms: C_13  and  N_10 
REMARK    4  A    between atoms: C_11  and  C_12 
REMARK    5  A    between atoms: C_12  and  C_27 
REMARK    6  A    between atoms: N_15  and  C_19 
REMARK    7  A    between atoms: C_19  and  C_20 
REMARK    8  A    between atoms: C_20  and  C_21 
REMARK    9  A    between atoms: C_27  and  O_28 
ROOT
HETATM    1  C   UNK N   1      32.008  15.537   8.796  0.00  0.00     0.254 C 
HETATM    2  O   UNK N   1      31.674  14.367   8.887  0.00  0.00    -0.267 OA
HETATM    3  N   UNK N   1      33.267  15.940   9.237  0.00  0.00    -0.342 N 
ENDROOT
BRANCH   3   4
HETATM    4  C   UNK N   1      33.694  17.311   9.029  0.00  0.00     0.129 C 
BRANCH   4   5
HETATM    5  C   UNK N   1      34.622  17.464   7.838  0.00  0.00     0.046 C 
BRANCH   5   6
HETATM    6  C   UNK N   1      33.786  17.768   6.605  0.00  0.00     0.168 C 
BRANCH   6   7
HETATM    7  O   UNK N   1      34.406  17.246   5.467  0.00  0.00    -0.396 OA
HETATM    8  C   UNK N   1      33.905  15.953   5.345  0.00  0.00     0.201 C 
ENDBRANCH   6   7
ENDBRANCH   5   6
ENDBRANCH   4   5
ENDBRANCH   3   4
BRANCH   3   9
HETATM    9  C   UNK N   1      34.238  15.039   9.907  0.00  0.00     0.115 C 
HETATM   10  C   UNK N   1      35.117  15.836  10.901  0.00  0.00     0.297 C 
HETATM   11  N   UNK N   1      36.127  15.012  11.595  0.00  0.00     0.090 N 
HETATM   12  C   UNK N   1      36.962  14.243  10.671  0.00  0.00     0.272 C 
HETATM   13  C   UNK N   1      36.114  13.356   9.770  0.00  0.00     0.032 C 
HETATM   14  C   UNK N   1      35.158  14.231   8.977  0.00  0.00     0.029 C 
BRANCH  11  15
HETATM   15  C   UNK N   1      35.714  14.177  12.738  0.00  0.00     0.277 C 
BRANCH  15  16
HETATM   16  C   UNK N   1      36.465  14.400  14.051  0.00  0.00     0.068 C 
BRANCH  16  17
HETATM   17  C   UNK N   1      36.336  13.222  14.957  0.00  0.00    -0.057 A 
HETATM   18  C   UNK N   1      35.523  13.307  16.092  0.00  0.00     0.007 A 
HETATM   19  C   UNK N   1      35.380  12.203  16.937  0.00  0.00     0.001 A 
HETATM   20  C   UNK N   1      36.052  11.011  16.652  0.00  0.00     0.000 A 
HETATM   21  C   UNK N   1      36.862  10.920  15.516  0.00  0.00     0.001 A 
HETATM   22  C   UNK N   1      37.001  12.021  14.666  0.00  0.00     0.007 A 
ENDBRANCH  16  17
ENDBRANCH  15  16
ENDBRANCH  11  15
ENDBRANCH   3   9
BRANCH   1  23
HETATM   23  C   UNK N   1      30.971  16.486   8.246  0.00  0.00     0.032 A 
HETATM   24  C   UNK N   1      30.298  17.432   9.037  0.00  0.00     0.018 A 
HETATM   25  C   UNK N   1      29.289  18.236   8.503  0.00  0.00     0.025 A 
HETATM   26  C   UNK N   1      28.931  18.105   7.162  0.00  0.00     0.034 A 
HETATM   27 Cl   UNK N   1      27.653  19.100   6.498  0.00  0.00    -0.084 Cl
HETATM   28  C   UNK N   1      29.587  17.175   6.355  0.00  0.00     0.025 A 
HETATM   29  C   UNK N   1      30.595  16.367   6.894  0.00  0.00     0.018 A 
ENDBRANCH   1  23
TORSDOF 9
ENDMDL
MODEL 8
REMARK VINA RESULT:      -6.4     10.774     12.941
REMARK  9 active torsions:
REMARK  status: ('A' for Active; 'I' for Inactive)
REMARK    1  A    between atoms: C_7  and  C_8 
REMARK       I    between atoms: C_8  and  N_10 
REMARK    2  A    between atoms: N_10  and  C_11 
REMARK    3  A    between atoms: C_13  and  N_10 
REMARK    4  A    between atoms: C_11  and  C_12 
REMARK    5  A    between atoms: C_12  and  C_27 
REMARK    6  A    between atoms: N_15  and  C_19 
REMARK    7  A    between atoms: C_19  and  C_20 
REMARK    8  A    between atoms: C_20  and  C_21 
REMARK    9  A    between atoms: C_27  and  O_28 
ROOT
HETATM    1  C   UNK N   1      33.273  16.552   8.277  0.00  0.00     0.254 C 
HETATM    2  O   UNK N   1      32.633  17.572   8.474  0.00  0.00    -0.267 OA
HETATM    3  N   UNK N   1      33.225  15.928   7.031  0.00  0.00    -0.342 N 
ENDROOT
BRANCH   3   4
HETATM    4  C   UNK N   1      34.069  14.776   6.774  0.00  0.00     0.129 C 
BRANCH   4   5
HETATM    5  C   UNK N   1      35.426  15.155   6.212  0.00  0.00     0.046 C 
BRANCH   5   6
HETATM    6  C   UNK N   1      36.464  14.180   6.745  0.00  0.00     0.168 C 
BRANCH   6   7
HETATM    7  O   UNK N   1      35.996  13.578   7.916  0.00  0.00    -0.396 OA
HETATM    8  C   UNK N   1      37.094  13.550   8.771  0.00  0.00     0.201 C 
ENDBRANCH   6   7
ENDBRANCH   5   6
ENDBRANCH   4   5
ENDBRANCH   3   4
BRANCH   3   9
HETATM    9  C   UNK N   1      32.363  16.380   5.911  0.00  0.00     0.115 C 
HETATM   10  C   UNK N   1      31.850  15.165   5.101  0.00  0.00     0.297 C 
HETATM   11  N   UNK N   1      31.000  15.532   3.951  0.00  0.00     0.090 N 
HETATM   12  C   UNK N   1      31.635  16.510   3.066  0.00  0.00     0.272 C 
HETATM   13  C   UNK N   1      32.031  17.767   3.829  0.00  0.00     0.032 C 
HETATM   14  C   UNK N   1      32.997  17.386   4.937  0.00  0.00     0.029 C 
BRANCH  11  15
HETATM   15  C   UNK N   1      29.587  15.885   4.184  0.00  0.00     0.277 C 
BRANCH  15  16
HETATM   16  C   UNK N   1      29.090  15.787   5.627  0.00  0.00     0.068 C 
BRANCH  16  17
HETATM   17  C   UNK N   1      28.685  17.123   6.154  0.00  0.00    -0.057 A 
HETATM   18  C   UNK N   1      28.262  18.117   5.267  0.00  0.00     0.007 A 
HETATM   19  C   UNK N   1      27.862  19.366   5.752  0.00  0.00     0.001 A 
HETATM   20  C   UNK N   1      27.888  19.625   7.126  0.00  0.00     0.000 A 
HETATM   21  C   UNK N   1      28.307  18.631   8.017  0.00  0.00     0.001 A 
HETATM   22  C   UNK N   1      28.700  17.380   7.533  0.00  0.00     0.007 A 
ENDBRANCH  16  17
ENDBRANCH  15  16
ENDBRANCH  11  15
ENDBRANCH   3   9
BRANCH   1  23
HETATM   23  C   UNK N   1      34.041  16.007   9.457  0.00  0.00     0.032 A 
HETATM   24  C   UNK N   1      33.659  14.849  10.154  0.00  0.00     0.018 A 
HETATM   25  C   UNK N   1      34.353  14.425  11.290  0.00  0.00     0.025 A 
HETATM   26  C   UNK N   1      35.445  15.158  11.751  0.00  0.00     0.034 A 
HETATM   27 Cl   UNK N   1      36.304  14.636  13.184  0.00  0.00    -0.084 Cl
HETATM   28  C   UNK N   1      35.847  16.310  11.072  0.00  0.00     0.025 A 
HETATM   29  C   UNK N   1      35.146  16.734   9.938  0.00  0.00     0.018 A 
ENDBRANCH   1  23
TORSDOF 9
ENDMDL
MODEL 9
REMARK VINA RESULT:      -6.3     15.929     18.131
REMARK  9 active torsions:
REMARK  status: ('A' for Active; 'I' for Inactive)
REMARK    1  A    between atoms: C_7  and  C_8 
REMARK       I    between atoms: C_8  and  N_10 
REMARK    2  A    between atoms: N_10  and  C_11 
REMARK    3  A    between atoms: C_13  and  N_10 
REMARK    4  A    between atoms: C_11  and  C_12 
REMARK    5  A    between atoms: C_12  and  C_27 
REMARK    6  A    between atoms: N_15  and  C_19 
REMARK    7  A    between atoms: C_19  and  C_20 
REMARK    8  A    between atoms: C_20  and  C_21 
REMARK    9  A    between atoms: C_27  and  O_28 
ROOT
HETATM    1  C   UNK N   1      26.515  25.386  -6.691  0.00  0.00     0.254 C 
HETATM    2  O   UNK N   1      26.211  25.387  -7.873  0.00  0.00    -0.267 OA
HETATM    3  N   UNK N   1      26.813  24.185  -6.048  0.00  0.00    -0.342 N 
ENDROOT
BRANCH   3   4
HETATM    4  C   UNK N   1      27.273  24.205  -4.672  0.00  0.00     0.129 C 
BRANCH   4   5
HETATM    5  C   UNK N   1      28.721  23.776  -4.530  0.00  0.00     0.046 C 
BRANCH   5   6
HETATM    6  C   UNK N   1      29.429  24.753  -3.604  0.00  0.00     0.168 C 
BRANCH   6   7
HETATM    7  O   UNK N   1      30.378  24.077  -2.832  0.00  0.00    -0.396 OA
HETATM    8  C   UNK N   1      29.676  23.038  -2.227  0.00  0.00     0.201 C 
ENDBRANCH   6   7
ENDBRANCH   5   6
ENDBRANCH   4   5
ENDBRANCH   3   4
BRANCH   3   9
HETATM    9  C   UNK N   1      26.709  22.852  -6.692  0.00  0.00     0.115 C 
HETATM   10  C   UNK N   1      27.718  22.736  -7.859  0.00  0.00     0.297 C 
HETATM   11  N   UNK N   1      27.662  21.443  -8.569  0.00  0.00     0.090 N 
HETATM   12  C   UNK N   1      26.312  21.102  -9.020  0.00  0.00     0.272 C 
HETATM   13  C   UNK N   1      25.330  21.088  -7.857  0.00  0.00     0.032 C 
HETATM   14  C   UNK N   1      25.315  22.462  -7.209  0.00  0.00     0.029 C 
BRANCH  11  15
HETATM   15  C   UNK N   1      28.322  20.266  -7.973  0.00  0.00     0.277 C 
BRANCH  15  16
HETATM   16  C   UNK N   1      29.783  20.036  -8.360  0.00  0.00     0.068 C 
BRANCH  16  17
HETATM   17  C   UNK N   1      30.686  20.174  -7.180  0.00  0.00    -0.057 A 
HETATM   18  C   UNK N   1      30.171  20.637  -5.966  0.00  0.00     0.007 A 
HETATM   19  C   UNK N   1      31.004  20.752  -4.849  0.00  0.00     0.001 A 
HETATM   20  C   UNK N   1      32.356  20.407  -4.944  0.00  0.00     0.000 A 
HETATM   21  C   UNK N   1      32.874  19.939  -6.156  0.00  0.00     0.001 A 
HETATM   22  C   UNK N   1      32.040  19.817  -7.272  0.00  0.00     0.007 A 
ENDBRANCH  16  17
ENDBRANCH  15  16
ENDBRANCH  11  15
ENDBRANCH   3   9
BRANCH   1  23
HETATM   23  C   UNK N   1      26.484  26.724  -5.992  0.00  0.00     0.032 A 
HETATM   24  C   UNK N   1      27.411  27.747  -6.250  0.00  0.00     0.018 A 
HETATM   25  C   UNK N   1      27.395  28.939  -5.523  0.00  0.00     0.025 A 
HETATM   26  C   UNK N   1      26.447  29.129  -4.519  0.00  0.00     0.034 A 
HETATM   27 Cl   UNK N   1      26.439  30.616  -3.596  0.00  0.00    -0.084 Cl
HETATM   28  C   UNK N   1      25.513  28.128  -4.247  0.00  0.00     0.025 A 
HETATM   29  C   UNK N   1      25.535  26.933  -4.973  0.00  0.00     0.018 A 
ENDBRANCH   1  23
TORSDOF 9
ENDMDL
