MODEL 1
REMARK VINA RESULT:      -7.2      0.000      0.000
REMARK  4 active torsions:
REMARK  status: ('A' for Active; 'I' for Inactive)
REMARK       I    between atoms: C_9  and  N_22 
REMARK       I    between atoms: C_12  and  N_13 
REMARK    1  A    between atoms: N_13  and  C_14 
REMARK    2  A    between atoms: C_14  and  C_15 
REMARK    3  A    between atoms: C_15  and  C_16 
REMARK    4  A    between atoms: N_22  and  C_23 
ROOT
HETATM    1  N   UNK N   1      35.092  15.467  10.779  0.00  0.00    -0.288 N 
ATOM      2  HN  UNK N   1      35.643  16.140  11.312  1.00  0.00     0.187 HD
HETATM    3  C   UNK N   1      34.243  15.751   9.757  0.00  0.00     0.135 A 
HETATM    4  C   UNK N   1      33.693  14.547   9.314  0.00  0.00     0.108 A 
HETATM    5  C   UNK N   1      34.191  13.596  10.136  0.00  0.00     0.182 A 
HETATM    6  N   UNK N   1      35.070  14.159  10.959  0.00  0.00    -0.068 N 
HETATM    7  N   UNK N   1      33.899  12.269  10.186  0.00  0.00    -0.172 N 
ATOM      8  HN  UNK N   1      33.193  11.854   9.579  1.00  0.00     0.186 HD
HETATM    9  C   UNK N   1      34.597  11.524  11.087  0.00  0.00     0.699 C 
HETATM   10  N   UNK N   1      35.633  12.084  11.763  0.00  0.00    -0.020 N 
ATOM     11  HN  UNK N   1      36.265  11.482  12.291  1.00  0.00     0.203 HD
HETATM   12  C   UNK N   1      35.846  13.400  11.755  0.00  0.00     0.715 C 
HETATM   13  N   UNK N   1      36.812  13.937  12.619  0.00  0.00    -0.223 N 
HETATM   14  N   UNK N   1      34.035  10.347  11.646  0.00  0.00    -0.191 N 
HETATM   15  C   UNK N   1      32.902  14.278   8.156  0.00  0.00     0.105 C 
HETATM   16  N   UNK N   1      32.263  14.001   7.233  0.00  0.00    -0.191 NA
HETATM   17  H   UNK N   1      37.761  13.937  12.355  0.00  0.00     0.177 HD
HETATM   18  H   UNK N   1      33.485   9.735  11.105  0.00  0.00     0.184 HD
ENDROOT
BRANCH  14  19
HETATM   19  C   UNK N   1      34.302  10.085  13.037  0.00  0.00     0.049 A 
HETATM   20  C   UNK N   1      35.334   9.236  13.412  0.00  0.00     0.030 A 
HETATM   21  C   UNK N   1      35.728   9.175  14.758  0.00  0.00     0.002 A 
HETATM   22  C   UNK N   1      35.110   9.980  15.727  0.00  0.00     0.000 A 
HETATM   23  C   UNK N   1      34.040  10.788  15.376  0.00  0.00     0.002 A 
HETATM   24  C   UNK N   1      33.632  10.817  14.055  0.00  0.00     0.030 A 
ENDBRANCH  14  19
BRANCH  13  25
HETATM   25  C   UNK N   1      36.418  14.488  13.887  0.00  0.00     0.144 C 
BRANCH  25  26
HETATM   26  C   UNK N   1      36.809  13.538  15.004  0.00  0.00     0.078 C 
BRANCH  26  27
HETATM   27  C   UNK N   1      36.354  14.029  16.342  0.00  0.00     0.027 A 
HETATM   28  N   UNK N   1      35.418  13.437  17.100  0.00  0.00    -0.355 N 
HETATM   29  C   UNK N   1      35.312  14.223  18.191  0.00  0.00     0.180 A 
HETATM   30  H   UNK N   1      34.920  12.612  16.903  0.00  0.00     0.166 HD
HETATM   31  N   UNK N   1      36.153  15.277  18.134  0.00  0.00    -0.360 N 
HETATM   32  C   UNK N   1      36.813  15.159  16.969  0.00  0.00     0.114 A 
ATOM     33  HN  UNK N   1      36.266  16.012  18.832  1.00  0.00     0.166 HD
ENDBRANCH  26  27
ENDBRANCH  25  26
ENDBRANCH  13  25
TORSDOF 4
ENDMDL
MODEL 2
REMARK VINA RESULT:      -7.1     19.100     23.519
REMARK  4 active torsions:
REMARK  status: ('A' for Active; 'I' for Inactive)
REMARK       I    between atoms: C_9  and  N_22 
REMARK       I    between atoms: C_12  and  N_13 
REMARK    1  A    between atoms: N_13  and  C_14 
REMARK    2  A    between atoms: C_14  and  C_15 
REMARK    3  A    between atoms: C_15  and  C_16 
REMARK    4  A    between atoms: N_22  and  C_23 
ROOT
HETATM    1  N   UNK N   1      28.310  22.828  -6.152  0.00  0.00    -0.288 N 
ATOM      2  HN  UNK N   1      29.264  22.605  -5.867  1.00  0.00     0.187 HD
HETATM    3  C   UNK N   1      27.562  22.147  -7.059  0.00  0.00     0.135 A 
HETATM    4  C   UNK N   1      26.325  22.787  -7.156  0.00  0.00     0.108 A 
HETATM    5  C   UNK N   1      26.409  23.865  -6.342  0.00  0.00     0.182 A 
HETATM    6  N   UNK N   1      27.577  23.832  -5.708  0.00  0.00    -0.068 N 
HETATM    7  N   UNK N   1      25.506  24.862  -6.147  0.00  0.00    -0.172 N 
ATOM      8  HN  UNK N   1      24.631  24.901  -6.669  1.00  0.00     0.186 HD
HETATM    9  C   UNK N   1      25.830  25.805  -5.220  0.00  0.00     0.699 C 
HETATM   10  N   UNK N   1      26.927  25.631  -4.439  0.00  0.00    -0.020 N 
ATOM     11  HN  UNK N   1      27.062  26.236  -3.629  1.00  0.00     0.203 HD
HETATM   12  C   UNK N   1      27.834  24.691  -4.704  0.00  0.00     0.715 C 
HETATM   13  N   UNK N   1      29.035  24.681  -3.979  0.00  0.00    -0.223 N 
HETATM   14  N   UNK N   1      25.326  27.128  -5.323  0.00  0.00    -0.191 N 
HETATM   15  C   UNK N   1      25.130  22.366  -7.815  0.00  0.00     0.105 C 
HETATM   16  N   UNK N   1      24.136  22.076  -8.327  0.00  0.00    -0.191 NA
HETATM   17  H   UNK N   1      29.072  24.249  -3.094  0.00  0.00     0.177 HD
HETATM   18  H   UNK N   1      24.407  27.304  -5.628  0.00  0.00     0.184 HD
ENDROOT
BRANCH  14  19
HETATM   19  C   UNK N   1      26.216  28.202  -4.963  0.00  0.00     0.049 A 
HETATM   20  C   UNK N   1      27.204  28.626  -5.841  0.00  0.00     0.030 A 
HETATM   21  C   UNK N   1      27.903  29.815  -5.577  0.00  0.00     0.002 A 
HETATM   22  C   UNK N   1      27.601  30.593  -4.450  0.00  0.00     0.000 A 
HETATM   23  C   UNK N   1      26.658  30.151  -3.534  0.00  0.00     0.002 A 
HETATM   24  C   UNK N   1      25.998  28.961  -3.781  0.00  0.00     0.030 A 
ENDBRANCH  14  19
BRANCH  13  25
HETATM   25  C   UNK N   1      30.212  25.300  -4.526  0.00  0.00     0.144 C 
BRANCH  25  26
HETATM   26  C   UNK N   1      31.453  24.678  -3.913  0.00  0.00     0.078 C 
BRANCH  26  27
HETATM   27  C   UNK N   1      31.388  23.184  -3.912  0.00  0.00     0.027 A 
HETATM   28  N   UNK N   1      31.490  22.410  -5.003  0.00  0.00    -0.355 N 
HETATM   29  C   UNK N   1      31.353  21.149  -4.545  0.00  0.00     0.180 A 
HETATM   30  H   UNK N   1      31.633  22.700  -5.933  0.00  0.00     0.166 HD
HETATM   31  N   UNK N   1      31.175  21.118  -3.208  0.00  0.00    -0.360 N 
HETATM   32  C   UNK N   1      31.196  22.399  -2.803  0.00  0.00     0.114 A 
ATOM     33  HN  UNK N   1      31.050  20.291  -2.622  1.00  0.00     0.166 HD
ENDBRANCH  26  27
ENDBRANCH  25  26
ENDBRANCH  13  25
TORSDOF 4
ENDMDL
MODEL 3
REMARK VINA RESULT:      -7.0      4.469     10.368
REMARK  4 active torsions:
REMARK  status: ('A' for Active; 'I' for Inactive)
REMARK       I    between atoms: C_9  and  N_22 
REMARK       I    between atoms: C_12  and  N_13 
REMARK    1  A    between atoms: N_13  and  C_14 
REMARK    2  A    between atoms: C_14  and  C_15 
REMARK    3  A    between atoms: C_15  and  C_16 
REMARK    4  A    between atoms: N_22  and  C_23 
ROOT
HETATM    1  N   UNK N   1      35.022  15.403   7.226  0.00  0.00    -0.288 N 
ATOM      2  HN  UNK N   1      35.455  15.449   6.303  1.00  0.00     0.187 HD
HETATM    3  C   UNK N   1      35.405  14.604   8.256  0.00  0.00     0.135 A 
HETATM    4  C   UNK N   1      34.546  14.850   9.328  0.00  0.00     0.108 A 
HETATM    5  C   UNK N   1      33.642  15.747   8.870  0.00  0.00     0.182 A 
HETATM    6  N   UNK N   1      33.984  16.108   7.637  0.00  0.00    -0.068 N 
HETATM    7  N   UNK N   1      32.542  16.246   9.492  0.00  0.00    -0.172 N 
ATOM      8  HN  UNK N   1      32.264  15.932  10.422  1.00  0.00     0.186 HD
HETATM    9  C   UNK N   1      31.831  17.187   8.812  0.00  0.00     0.699 C 
HETATM   10  N   UNK N   1      32.320  17.689   7.649  0.00  0.00    -0.020 N 
ATOM     11  HN  UNK N   1      31.884  18.517   7.243  1.00  0.00     0.203 HD
HETATM   12  C   UNK N   1      33.355  17.128   7.024  0.00  0.00     0.715 C 
HETATM   13  N   UNK N   1      33.695  17.573   5.738  0.00  0.00    -0.223 N 
HETATM   14  N   UNK N   1      30.439  17.350   9.039  0.00  0.00    -0.191 N 
HETATM   15  C   UNK N   1      34.635  14.417  10.685  0.00  0.00     0.105 C 
HETATM   16  N   UNK N   1      34.657  14.099  11.796  0.00  0.00    -0.191 NA
HETATM   17  H   UNK N   1      34.259  18.372   5.628  0.00  0.00     0.177 HD
HETATM   18  H   UNK N   1      30.054  17.272   9.942  0.00  0.00     0.184 HD
ENDROOT
BRANCH  14  19
HETATM   19  C   UNK N   1      29.613  17.635   7.893  0.00  0.00     0.049 A 
HETATM   20  C   UNK N   1      29.354  16.653   6.947  0.00  0.00     0.030 A 
HETATM   21  C   UNK N   1      28.369  16.873   5.971  0.00  0.00     0.002 A 
HETATM   22  C   UNK N   1      27.624  18.061   5.954  0.00  0.00     0.000 A 
HETATM   23  C   UNK N   1      27.912  19.073   6.857  0.00  0.00     0.002 A 
HETATM   24  C   UNK N   1      28.909  18.866   7.794  0.00  0.00     0.030 A 
ENDBRANCH  14  19
BRANCH  13  25
HETATM   25  C   UNK N   1      33.220  16.863   4.581  0.00  0.00     0.144 C 
BRANCH  25  26
HETATM   26  C   UNK N   1      31.974  17.540   4.038  0.00  0.00     0.078 C 
BRANCH  26  27
HETATM   27  C   UNK N   1      30.980  16.549   3.521  0.00  0.00     0.027 A 
HETATM   28  N   UNK N   1      29.942  16.847   2.725  0.00  0.00    -0.355 N 
HETATM   29  C   UNK N   1      29.309  15.671   2.531  0.00  0.00     0.180 A 
HETATM   30  H   UNK N   1      29.697  17.728   2.362  0.00  0.00     0.166 HD
HETATM   31  N   UNK N   1      29.923  14.659   3.177  0.00  0.00    -0.360 N 
HETATM   32  C   UNK N   1      30.978  15.207   3.803  0.00  0.00     0.114 A 
ATOM     33  HN  UNK N   1      29.645  13.677   3.188  1.00  0.00     0.166 HD
ENDBRANCH  26  27
ENDBRANCH  25  26
ENDBRANCH  13  25
TORSDOF 4
ENDMDL
MODEL 4
REMARK VINA RESULT:      -7.0      6.941     10.346
REMARK  4 active torsions:
REMARK  status: ('A' for Active; 'I' for Inactive)
REMARK       I    between atoms: C_9  and  N_22 
REMARK       I    between atoms: C_12  and  N_13 
REMARK    1  A    between atoms: N_13  and  C_14 
REMARK    2  A    between atoms: C_14  and  C_15 
REMARK    3  A    between atoms: C_15  and  C_16 
REMARK    4  A    between atoms: N_22  and  C_23 
ROOT
HETATM    1  N   UNK N   1      28.131  19.045   4.210  0.00  0.00    -0.288 N 
ATOM      2  HN  UNK N   1      28.328  18.714   3.265  1.00  0.00     0.187 HD
HETATM    3  C   UNK N   1      27.355  20.109   4.544  0.00  0.00     0.135 A 
HETATM    4  C   UNK N   1      27.356  20.216   5.935  0.00  0.00     0.108 A 
HETATM    5  C   UNK N   1      28.187  19.242   6.373  0.00  0.00     0.182 A 
HETATM    6  N   UNK N   1      28.586  18.519   5.332  0.00  0.00    -0.068 N 
HETATM    7  N   UNK N   1      28.601  18.977   7.640  0.00  0.00    -0.172 N 
ATOM      8  HN  UNK N   1      28.324  19.562   8.428  1.00  0.00     0.186 HD
HETATM    9  C   UNK N   1      29.405  17.890   7.805  0.00  0.00     0.699 C 
HETATM   10  N   UNK N   1      29.623  17.051   6.759  0.00  0.00    -0.020 N 
ATOM     11  HN  UNK N   1      30.067  16.149   6.931  1.00  0.00     0.203 HD
HETATM   12  C   UNK N   1      29.273  17.376   5.515  0.00  0.00     0.715 C 
HETATM   13  N   UNK N   1      29.690  16.557   4.456  0.00  0.00    -0.223 N 
HETATM   14  N   UNK N   1      30.340  17.833   8.872  0.00  0.00    -0.191 N 
HETATM   15  C   UNK N   1      26.556  21.035   6.787  0.00  0.00     0.105 C 
HETATM   16  N   UNK N   1      25.935  21.673   7.525  0.00  0.00    -0.191 NA
HETATM   17  H   UNK N   1      29.175  15.749   4.226  0.00  0.00     0.177 HD
HETATM   18  H   UNK N   1      30.122  18.188   9.763  0.00  0.00     0.184 HD
ENDROOT
BRANCH  14  19
HETATM   19  C   UNK N   1      31.621  17.234   8.594  0.00  0.00     0.049 A 
HETATM   20  C   UNK N   1      32.695  18.016   8.190  0.00  0.00     0.030 A 
HETATM   21  C   UNK N   1      33.982  17.458   8.150  0.00  0.00     0.002 A 
HETATM   22  C   UNK N   1      34.204  16.129   8.538  0.00  0.00     0.000 A 
HETATM   23  C   UNK N   1      33.133  15.321   8.887  0.00  0.00     0.002 A 
HETATM   24  C   UNK N   1      31.862  15.865   8.890  0.00  0.00     0.030 A 
ENDBRANCH  14  19
BRANCH  13  25
HETATM   25  C   UNK N   1      30.870  16.895   3.705  0.00  0.00     0.144 C 
BRANCH  25  26
HETATM   26  C   UNK N   1      32.019  17.182   4.654  0.00  0.00     0.078 C 
BRANCH  26  27
HETATM   27  C   UNK N   1      32.821  15.954   4.949  0.00  0.00     0.027 A 
HETATM   28  N   UNK N   1      34.157  15.869   4.856  0.00  0.00    -0.355 N 
HETATM   29  C   UNK N   1      34.444  14.593   5.185  0.00  0.00     0.180 A 
HETATM   30  H   UNK N   1      34.787  16.582   4.605  0.00  0.00     0.166 HD
HETATM   31  N   UNK N   1      33.331  13.889   5.481  0.00  0.00    -0.360 N 
HETATM   32  C   UNK N   1      32.305  14.743   5.334  0.00  0.00     0.114 A 
ATOM     33  HN  UNK N   1      33.280  12.909   5.761  1.00  0.00     0.166 HD
ENDBRANCH  26  27
ENDBRANCH  25  26
ENDBRANCH  13  25
TORSDOF 4
ENDMDL
MODEL 5
REMARK VINA RESULT:      -6.9      2.490      7.393
REMARK  4 active torsions:
REMARK  status: ('A' for Active; 'I' for Inactive)
REMARK       I    between atoms: C_9  and  N_22 
REMARK       I    between atoms: C_12  and  N_13 
REMARK    1  A    between atoms: N_13  and  C_14 
REMARK    2  A    between atoms: C_14  and  C_15 
REMARK    3  A    between atoms: C_15  and  C_16 
REMARK    4  A    between atoms: N_22  and  C_23 
ROOT
HETATM    1  N   UNK N   1      37.039  12.104  11.566  0.00  0.00    -0.288 N 
ATOM      2  HN  UNK N   1      37.250  11.340  10.924  1.00  0.00     0.187 HD
HETATM    3  C   UNK N   1      37.017  12.033  12.923  0.00  0.00     0.135 A 
HETATM    4  C   UNK N   1      36.681  13.297  13.409  0.00  0.00     0.108 A 
HETATM    5  C   UNK N   1      36.454  14.059  12.315  0.00  0.00     0.182 A 
HETATM    6  N   UNK N   1      36.735  13.344  11.230  0.00  0.00    -0.068 N 
HETATM    7  N   UNK N   1      36.011  15.342  12.242  0.00  0.00    -0.172 N 
ATOM      8  HN  UNK N   1      35.757  15.869  13.078  1.00  0.00     0.186 HD
HETATM    9  C   UNK N   1      35.922  15.887  10.998  0.00  0.00     0.699 C 
HETATM   10  N   UNK N   1      36.415  15.209   9.930  0.00  0.00    -0.020 N 
ATOM     11  HN  UNK N   1      36.516  15.693   9.038  1.00  0.00     0.203 HD
HETATM   12  C   UNK N   1      36.769  13.927  10.017  0.00  0.00     0.715 C 
HETATM   13  N   UNK N   1      37.092  13.230   8.843  0.00  0.00    -0.223 N 
HETATM   14  N   UNK N   1      34.982  16.914  10.720  0.00  0.00    -0.191 N 
HETATM   15  C   UNK N   1      36.710  13.796  14.747  0.00  0.00     0.105 C 
HETATM   16  N   UNK N   1      36.717  14.255  15.808  0.00  0.00    -0.191 NA
HETATM   17  H   UNK N   1      37.999  13.296   8.466  0.00  0.00     0.177 HD
HETATM   18  H   UNK N   1      34.786  17.621  11.377  0.00  0.00     0.184 HD
ENDROOT
BRANCH  14  19
HETATM   19  C   UNK N   1      34.327  16.879   9.437  0.00  0.00     0.049 A 
HETATM   20  C   UNK N   1      33.291  15.987   9.197  0.00  0.00     0.030 A 
HETATM   21  C   UNK N   1      32.515  16.123   8.035  0.00  0.00     0.002 A 
HETATM   22  C   UNK N   1      32.756  17.163   7.125  0.00  0.00     0.000 A 
HETATM   23  C   UNK N   1      33.824  18.024   7.323  0.00  0.00     0.002 A 
HETATM   24  C   UNK N   1      34.608  17.863   8.452  0.00  0.00     0.030 A 
ENDBRANCH  14  19
BRANCH  13  25
HETATM   25  C   UNK N   1      36.098  12.419   8.191  0.00  0.00     0.144 C 
BRANCH  25  26
HETATM   26  C   UNK N   1      34.728  12.721   8.769  0.00  0.00     0.078 C 
BRANCH  26  27
HETATM   27  C   UNK N   1      34.017  11.477   9.201  0.00  0.00     0.027 A 
HETATM   28  N   UNK N   1      32.692  11.374   9.383  0.00  0.00    -0.355 N 
HETATM   29  C   UNK N   1      32.499  10.102   9.789  0.00  0.00     0.180 A 
HETATM   30  H   UNK N   1      32.012  12.072   9.249  0.00  0.00     0.166 HD
HETATM   31  N   UNK N   1      33.659   9.417   9.860  0.00  0.00    -0.360 N 
HETATM   32  C   UNK N   1      34.620  10.280   9.490  0.00  0.00     0.114 A 
ATOM     33  HN  UNK N   1      33.782   8.442  10.137  1.00  0.00     0.166 HD
ENDBRANCH  26  27
ENDBRANCH  25  26
ENDBRANCH  13  25
TORSDOF 4
ENDMDL
MODEL 6
REMARK VINA RESULT:      -6.9      2.461      8.156
REMARK  4 active torsions:
REMARK  status: ('A' for Active; 'I' for Inactive)
REMARK       I    between atoms: C_9  and  N_22 
REMARK       I    between atoms: C_12  and  N_13 
REMARK    1  A    between atoms: N_13  and  C_14 
REMARK    2  A    between atoms: C_14  and  C_15 
REMARK    3  A    between atoms: C_15  and  C_16 
REMARK    4  A    between atoms: N_22  and  C_23 
ROOT
HETATM    1  N   UNK N   1      36.395  12.095  11.871  0.00  0.00    -0.288 N 
ATOM      2  HN  UNK N   1      36.384  11.227  11.334  1.00  0.00     0.187 HD
HETATM    3  C   UNK N   1      36.546  12.206  13.217  0.00  0.00     0.135 A 
HETATM    4  C   UNK N   1      36.499  13.562  13.540  0.00  0.00     0.108 A 
HETATM    5  C   UNK N   1      36.259  14.205  12.374  0.00  0.00     0.182 A 
HETATM    6  N   UNK N   1      36.265  13.316  11.386  0.00  0.00    -0.068 N 
HETATM    7  N   UNK N   1      36.036  15.528  12.156  0.00  0.00    -0.172 N 
ATOM      8  HN  UNK N   1      35.991  16.197  12.925  1.00  0.00     0.186 HD
HETATM    9  C   UNK N   1      35.874  15.914  10.861  0.00  0.00     0.699 C 
HETATM   10  N   UNK N   1      36.095  15.022   9.861  0.00  0.00    -0.020 N 
ATOM     11  HN  UNK N   1      36.156  15.358   8.899  1.00  0.00     0.203 HD
HETATM   12  C   UNK N   1      36.234  13.719  10.102  0.00  0.00     0.715 C 
HETATM   13  N   UNK N   1      36.270  12.827   9.020  0.00  0.00    -0.223 N 
HETATM   14  N   UNK N   1      35.095  17.055  10.534  0.00  0.00    -0.191 N 
HETATM   15  C   UNK N   1      36.793  14.216  14.774  0.00  0.00     0.105 C 
HETATM   16  N   UNK N   1      37.022  14.799  15.746  0.00  0.00    -0.191 NA
HETATM   17  H   UNK N   1      37.116  12.672   8.540  0.00  0.00     0.177 HD
HETATM   18  H   UNK N   1      35.112  17.865  11.094  0.00  0.00     0.184 HD
ENDROOT
BRANCH  14  19
HETATM   19  C   UNK N   1      34.276  16.977   9.351  0.00  0.00     0.049 A 
HETATM   20  C   UNK N   1      33.106  16.229   9.349  0.00  0.00     0.030 A 
HETATM   21  C   UNK N   1      32.208  16.351   8.277  0.00  0.00     0.002 A 
HETATM   22  C   UNK N   1      32.462  17.237   7.220  0.00  0.00     0.000 A 
HETATM   23  C   UNK N   1      33.653  17.946   7.182  0.00  0.00     0.002 A 
HETATM   24  C   UNK N   1      34.552  17.795   8.222  0.00  0.00     0.030 A 
ENDBRANCH  14  19
BRANCH  13  25
HETATM   25  C   UNK N   1      35.074  12.141   8.611  0.00  0.00     0.144 C 
BRANCH  25  26
HETATM   26  C   UNK N   1      34.028  13.148   8.171  0.00  0.00     0.078 C 
BRANCH  26  27
HETATM   27  C   UNK N   1      34.275  13.640   6.780  0.00  0.00     0.027 A 
HETATM   28  N   UNK N   1      35.038  14.697   6.464  0.00  0.00    -0.355 N 
HETATM   29  C   UNK N   1      34.960  14.788   5.120  0.00  0.00     0.180 A 
HETATM   30  H   UNK N   1      35.544  15.277   7.077  0.00  0.00     0.166 HD
HETATM   31  N   UNK N   1      34.178  13.820   4.597  0.00  0.00    -0.360 N 
HETATM   32  C   UNK N   1      33.744  13.093   5.640  0.00  0.00     0.114 A 
ATOM     33  HN  UNK N   1      33.961  13.670   3.611  1.00  0.00     0.166 HD
ENDBRANCH  26  27
ENDBRANCH  25  26
ENDBRANCH  13  25
TORSDOF 4
ENDMDL
MODEL 7
REMARK VINA RESULT:      -6.8     21.124     23.776
REMARK  4 active torsions:
REMARK  status: ('A' for Active; 'I' for Inactive)
REMARK       I    between atoms: C_9  and  N_22 
REMARK       I    between atoms: C_12  and  N_13 
REMARK    1  A    between atoms: N_13  and  C_14 
REMARK    2  A    between atoms: C_14  and  C_15 
REMARK    3  A    between atoms: C_15  and  C_16 
REMARK    4  A    between atoms: N_22  and  C_23 
ROOT
HETATM    1  N   UNK N   1      30.788  30.079  -2.562  0.00  0.00    -0.288 N 
ATOM      2  HN  UNK N   1      31.570  30.106  -3.216  1.00  0.00     0.187 HD
HETATM    3  C   UNK N   1      30.823  30.431  -1.250  0.00  0.00     0.135 A 
HETATM    4  C   UNK N   1      29.545  30.241  -0.724  0.00  0.00     0.108 A 
HETATM    5  C   UNK N   1      28.810  29.722  -1.735  0.00  0.00     0.182 A 
HETATM    6  N   UNK N   1      29.555  29.694  -2.836  0.00  0.00    -0.068 N 
HETATM    7  N   UNK N   1      27.526  29.276  -1.718  0.00  0.00    -0.172 N 
ATOM      8  HN  UNK N   1      26.976  29.261  -0.859  1.00  0.00     0.186 HD
HETATM    9  C   UNK N   1      27.013  28.849  -2.904  0.00  0.00     0.699 C 
HETATM   10  N   UNK N   1      27.723  29.030  -4.047  0.00  0.00    -0.020 N 
ATOM     11  HN  UNK N   1      27.263  28.882  -4.947  1.00  0.00     0.203 HD
HETATM   12  C   UNK N   1      29.004  29.394  -4.027  0.00  0.00     0.715 C 
HETATM   13  N   UNK N   1      29.734  29.382  -5.224  0.00  0.00    -0.223 N 
HETATM   14  N   UNK N   1      25.986  27.869  -2.941  0.00  0.00    -0.191 N 
HETATM   15  C   UNK N   1      29.011  30.636   0.540  0.00  0.00     0.105 C 
HETATM   16  N   UNK N   1      28.525  30.934   1.545  0.00  0.00    -0.191 NA
HETATM   17  H   UNK N   1      29.685  30.151  -5.838  0.00  0.00     0.177 HD
HETATM   18  H   UNK N   1      25.262  27.860  -2.275  0.00  0.00     0.184 HD
ENDROOT
BRANCH  14  19
HETATM   19  C   UNK N   1      26.051  26.886  -3.993  0.00  0.00     0.049 A 
HETATM   20  C   UNK N   1      26.536  25.610  -3.741  0.00  0.00     0.030 A 
HETATM   21  C   UNK N   1      26.375  24.604  -4.707  0.00  0.00     0.002 A 
HETATM   22  C   UNK N   1      25.709  24.863  -5.913  0.00  0.00     0.000 A 
HETATM   23  C   UNK N   1      25.272  26.147  -6.202  0.00  0.00     0.002 A 
HETATM   24  C   UNK N   1      25.465  27.143  -5.263  0.00  0.00     0.030 A 
ENDBRANCH  14  19
BRANCH  13  25
HETATM   25  C   UNK N   1      30.554  28.248  -5.557  0.00  0.00     0.144 C 
BRANCH  25  26
HETATM   26  C   UNK N   1      29.675  27.074  -5.948  0.00  0.00     0.078 C 
BRANCH  26  27
HETATM   27  C   UNK N   1      29.924  25.877  -5.087  0.00  0.00     0.027 A 
HETATM   28  N   UNK N   1      30.130  25.914  -3.762  0.00  0.00    -0.355 N 
HETATM   29  C   UNK N   1      30.331  24.627  -3.409  0.00  0.00     0.180 A 
HETATM   30  H   UNK N   1      30.132  26.705  -3.176  0.00  0.00     0.166 HD
HETATM   31  N   UNK N   1      30.254  23.799  -4.471  0.00  0.00    -0.360 N 
HETATM   32  C   UNK N   1      29.996  24.582  -5.532  0.00  0.00     0.114 A 
ATOM     33  HN  UNK N   1      30.366  22.784  -4.469  1.00  0.00     0.166 HD
ENDBRANCH  26  27
ENDBRANCH  25  26
ENDBRANCH  13  25
TORSDOF 4
ENDMDL
MODEL 8
REMARK VINA RESULT:      -6.7     12.374     15.407
REMARK  4 active torsions:
REMARK  status: ('A' for Active; 'I' for Inactive)
REMARK       I    between atoms: C_9  and  N_22 
REMARK       I    between atoms: C_12  and  N_13 
REMARK    1  A    between atoms: N_13  and  C_14 
REMARK    2  A    between atoms: C_14  and  C_15 
REMARK    3  A    between atoms: C_15  and  C_16 
REMARK    4  A    between atoms: N_22  and  C_23 
ROOT
HETATM    1  N   UNK N   1      20.737  17.781   4.205  0.00  0.00    -0.288 N 
ATOM      2  HN  UNK N   1      20.317  17.026   4.748  1.00  0.00     0.187 HD
HETATM    3  C   UNK N   1      20.139  18.482   3.206  0.00  0.00     0.135 A 
HETATM    4  C   UNK N   1      21.062  19.415   2.731  0.00  0.00     0.108 A 
HETATM    5  C   UNK N   1      22.199  19.189   3.428  0.00  0.00     0.182 A 
HETATM    6  N   UNK N   1      21.962  18.254   4.343  0.00  0.00    -0.068 N 
HETATM    7  N   UNK N   1      23.420  19.768   3.284  0.00  0.00    -0.172 N 
ATOM      8  HN  UNK N   1      23.605  20.454   2.552  1.00  0.00     0.186 HD
HETATM    9  C   UNK N   1      24.384  19.386   4.166  0.00  0.00     0.699 C 
HETATM   10  N   UNK N   1      24.056  18.592   5.218  0.00  0.00    -0.020 N 
ATOM     11  HN  UNK N   1      24.731  18.461   5.972  1.00  0.00     0.203 HD
HETATM   12  C   UNK N   1      22.876  17.976   5.290  0.00  0.00     0.715 C 
HETATM   13  N   UNK N   1      22.667  17.024   6.299  0.00  0.00    -0.223 N 
HETATM   14  N   UNK N   1      25.757  19.431   3.807  0.00  0.00    -0.191 N 
HETATM   15  C   UNK N   1      20.873  20.506   1.829  0.00  0.00     0.105 C 
HETATM   16  N   UNK N   1      20.778  21.404   1.108  0.00  0.00    -0.191 NA
HETATM   17  H   UNK N   1      22.398  17.315   7.201  0.00  0.00     0.177 HD
HETATM   18  H   UNK N   1      26.119  20.163   3.258  0.00  0.00     0.184 HD
ENDROOT
BRANCH  14  19
HETATM   19  C   UNK N   1      26.597  18.359   4.278  0.00  0.00     0.049 A 
HETATM   20  C   UNK N   1      26.654  17.153   3.594  0.00  0.00     0.030 A 
HETATM   21  C   UNK N   1      27.643  16.213   3.927  0.00  0.00     0.002 A 
HETATM   22  C   UNK N   1      28.590  16.486   4.925  0.00  0.00     0.000 A 
HETATM   23  C   UNK N   1      28.508  17.662   5.655  0.00  0.00     0.002 A 
HETATM   24  C   UNK N   1      27.509  18.569   5.347  0.00  0.00     0.030 A 
ENDBRANCH  14  19
BRANCH  13  25
HETATM   25  C   UNK N   1      22.845  15.625   6.017  0.00  0.00     0.144 C 
BRANCH  25  26
HETATM   26  C   UNK N   1      21.574  14.867   6.355  0.00  0.00     0.078 C 
BRANCH  26  27
HETATM   27  C   UNK N   1      21.523  14.476   7.798  0.00  0.00     0.027 A 
HETATM   28  N   UNK N   1      22.491  13.813   8.449  0.00  0.00    -0.355 N 
HETATM   29  C   UNK N   1      22.018  13.657   9.702  0.00  0.00     0.180 A 
HETATM   30  H   UNK N   1      23.356  13.509   8.090  0.00  0.00     0.166 HD
HETATM   31  N   UNK N   1      20.793  14.203   9.847  0.00  0.00    -0.360 N 
HETATM   32  C   UNK N   1      20.476  14.722   8.649  0.00  0.00     0.114 A 
ATOM     33  HN  UNK N   1      20.224  14.221  10.694  1.00  0.00     0.166 HD
ENDBRANCH  26  27
ENDBRANCH  25  26
ENDBRANCH  13  25
TORSDOF 4
ENDMDL
MODEL 9
REMARK VINA RESULT:      -6.6      3.880      7.936
REMARK  4 active torsions:
REMARK  status: ('A' for Active; 'I' for Inactive)
REMARK       I    between atoms: C_9  and  N_22 
REMARK       I    between atoms: C_12  and  N_13 
REMARK    1  A    between atoms: N_13  and  C_14 
REMARK    2  A    between atoms: C_14  and  C_15 
REMARK    3  A    between atoms: C_15  and  C_16 
REMARK    4  A    between atoms: N_22  and  C_23 
ROOT
HETATM    1  N   UNK N   1      37.720  12.542  11.884  0.00  0.00    -0.288 N 
ATOM      2  HN  UNK N   1      38.566  12.204  11.424  1.00  0.00     0.187 HD
HETATM    3  C   UNK N   1      37.125  11.995  12.977  0.00  0.00     0.135 A 
HETATM    4  C   UNK N   1      35.997  12.760  13.274  0.00  0.00     0.108 A 
HETATM    5  C   UNK N   1      35.930  13.701  12.305  0.00  0.00     0.182 A 
HETATM    6  N   UNK N   1      37.002  13.590  11.526  0.00  0.00    -0.068 N 
HETATM    7  N   UNK N   1      34.969  14.637  12.086  0.00  0.00    -0.172 N 
ATOM      8  HN  UNK N   1      34.130  14.688  12.663  1.00  0.00     0.186 HD
HETATM    9  C   UNK N   1      35.184  15.503  11.057  0.00  0.00     0.699 C 
HETATM   10  N   UNK N   1      36.381  15.500  10.416  0.00  0.00    -0.020 N 
ATOM     11  HN  UNK N   1      36.605  16.265   9.778  1.00  0.00     0.203 HD
HETATM   12  C   UNK N   1      37.271  14.525  10.596  0.00  0.00     0.715 C 
HETATM   13  N   UNK N   1      38.403  14.476   9.769  0.00  0.00    -0.223 N 
HETATM   14  N   UNK N   1      34.095  16.097  10.368  0.00  0.00    -0.191 N 
HETATM   15  C   UNK N   1      35.147  12.723  14.421  0.00  0.00     0.105 C 
HETATM   16  N   UNK N   1      34.428  12.740  15.326  0.00  0.00    -0.191 NA
HETATM   17  H   UNK N   1      39.192  15.026   9.983  0.00  0.00     0.177 HD
HETATM   18  H   UNK N   1      33.283  16.385  10.844  0.00  0.00     0.184 HD
ENDROOT
BRANCH  14  19
HETATM   19  C   UNK N   1      34.226  16.259   8.942  0.00  0.00     0.049 A 
HETATM   20  C   UNK N   1      34.169  15.158   8.097  0.00  0.00     0.030 A 
HETATM   21  C   UNK N   1      34.064  15.353   6.711  0.00  0.00     0.002 A 
HETATM   22  C   UNK N   1      33.990  16.644   6.168  0.00  0.00     0.000 A 
HETATM   23  C   UNK N   1      34.105  17.751   6.995  0.00  0.00     0.002 A 
HETATM   24  C   UNK N   1      34.245  17.553   8.357  0.00  0.00     0.030 A 
ENDBRANCH  14  19
BRANCH  13  25
HETATM   25  C   UNK N   1      38.413  13.625   8.610  0.00  0.00     0.144 C 
BRANCH  25  26
HETATM   26  C   UNK N   1      39.435  12.517   8.793  0.00  0.00     0.078 C 
BRANCH  26  27
HETATM   27  C   UNK N   1      40.590  12.661   7.854  0.00  0.00     0.027 A 
HETATM   28  N   UNK N   1      40.651  13.539   6.841  0.00  0.00    -0.355 N 
HETATM   29  C   UNK N   1      41.844  13.305   6.255  0.00  0.00     0.180 A 
HETATM   30  H   UNK N   1      39.976  14.207   6.584  0.00  0.00     0.166 HD
HETATM   31  N   UNK N   1      42.521  12.316   6.874  0.00  0.00    -0.360 N 
HETATM   32  C   UNK N   1      41.735  11.906   7.883  0.00  0.00     0.114 A 
ATOM     33  HN  UNK N   1      43.442  11.953   6.627  1.00  0.00     0.166 HD
ENDBRANCH  26  27
ENDBRANCH  25  26
ENDBRANCH  13  25
TORSDOF 4
ENDMDL
