REMARK  4 active torsions:
REMARK  status: ('A' for Active; 'I' for Inactive)
REMARK       I    between atoms: C_9  and  N_22 
REMARK       I    between atoms: C_12  and  N_13 
REMARK    1  A    between atoms: N_13  and  C_14 
REMARK    2  A    between atoms: C_14  and  C_15 
REMARK    3  A    between atoms: C_15  and  C_16 
REMARK    4  A    between atoms: N_22  and  C_23 
ROOT
HETATM    1  N   UNK N   1      -2.467   0.216  -0.471  0.00  0.00    -0.288 N 
ATOM      2  HN  UNK N   1      -2.642  -0.783  -0.584  1.00  0.00     0.187 HD
HETATM    3  C   UNK N   1      -3.356   1.219  -0.695  0.00  0.00     0.135 A 
HETATM    4  C   UNK N   1      -2.711   2.427  -0.426  0.00  0.00     0.108 A 
HETATM    5  C   UNK N   1      -1.438   2.096  -0.110  0.00  0.00     0.182 A 
HETATM    6  N   UNK N   1      -1.334   0.771  -0.082  0.00  0.00    -0.068 N 
HETATM    7  N   UNK N   1      -0.381   2.911   0.147  0.00  0.00    -0.172 N 
ATOM      8  HN  UNK N   1      -0.459   3.926   0.082  1.00  0.00     0.186 HD
HETATM    9  C   UNK N   1       0.787   2.304   0.495  0.00  0.00     0.699 C 
HETATM   10  N   UNK N   1       0.807   0.965   0.721  0.00  0.00    -0.020 N 
ATOM     11  HN  UNK N   1       1.629   0.547   1.158  1.00  0.00     0.203 HD
HETATM   12  C   UNK N   1      -0.218   0.182   0.386  0.00  0.00     0.715 C 
HETATM   13  N   UNK N   1      -0.066  -1.210   0.469  0.00  0.00    -0.223 N 
HETATM   14  N   UNK N   1       2.036   2.922   0.224  0.00  0.00    -0.191 N 
HETATM   15  C   UNK N   1      -3.250   3.745  -0.324  0.00  0.00     0.105 C 
HETATM   16  N   UNK N   1      -3.631   4.832  -0.226  0.00  0.00    -0.191 NA
HETATM   17  H   UNK N   1      -0.197  -1.668   1.331  0.00  0.00     0.177 HD
HETATM   18  H   UNK N   1       2.158   3.894   0.319  0.00  0.00     0.184 HD
ENDROOT
BRANCH  14  19
HETATM   19  C   UNK N   1       3.117   2.067  -0.197  0.00  0.00     0.049 A 
HETATM   20  C   UNK N   1       4.436   2.419   0.055  0.00  0.00     0.030 A 
HETATM   21  C   UNK N   1       5.456   1.476  -0.149  0.00  0.00     0.002 A 
HETATM   22  C   UNK N   1       5.159   0.175  -0.580  0.00  0.00     0.000 A 
HETATM   23  C   UNK N   1       3.853  -0.171  -0.891  0.00  0.00     0.002 A 
HETATM   24  C   UNK N   1       2.856   0.773  -0.723  0.00  0.00     0.030 A 
ENDBRANCH  14  19
BRANCH  13  25
HETATM   25  C   UNK N   1       0.281  -1.968  -0.703  0.00  0.00     0.144 C 
BRANCH  25  26
HETATM   26  C   UNK N   1      -0.980  -2.462  -1.388  0.00  0.00     0.078 C 
BRANCH  26  27
HETATM   27  C   UNK N   1      -1.946  -3.062  -0.416  0.00  0.00     0.027 A 
HETATM   28  N   UNK N   1      -1.706  -4.149   0.333  0.00  0.00    -0.355 N 
HETATM   29  C   UNK N   1      -2.843  -4.342   1.033  0.00  0.00     0.180 A 
HETATM   30  H   UNK N   1      -0.882  -4.686   0.365  0.00  0.00     0.166 HD
HETATM   31  N   UNK N   1      -3.774  -3.409   0.744  0.00  0.00    -0.360 N 
HETATM   32  C   UNK N   1      -3.213  -2.599  -0.169  0.00  0.00     0.114 A 
ATOM     33  HN  UNK N   1      -4.712  -3.333   1.139  1.00  0.00     0.166 HD
ENDBRANCH  26  27
ENDBRANCH  25  26
ENDBRANCH  13  25
TORSDOF 4
