MODEL 1
REMARK VINA RESULT:      -7.1      0.000      0.000
REMARK  2 active torsions:
REMARK  status: ('A' for Active; 'I' for Inactive)
REMARK    1  A    between atoms: C_3  and  O_20 
REMARK    2  A    between atoms: C_5  and  O_21 
ROOT
HETATM    1  C   UNK N   1      24.085  19.253   3.619  0.00  0.00     0.296 C 
HETATM    2  C   UNK N   1      22.611  19.141   3.404  0.00  0.00     0.081 A 
HETATM    3  C   UNK N   1      21.881  20.227   2.877  0.00  0.00     0.085 A 
HETATM    4  C   UNK N   1      20.519  20.096   2.615  0.00  0.00     0.076 A 
HETATM    5  C   UNK N   1      19.854  18.900   2.876  0.00  0.00     0.090 A 
HETATM    6  C   UNK N   1      20.547  17.814   3.429  0.00  0.00     0.075 A 
HETATM    7  C   UNK N   1      21.927  17.924   3.698  0.00  0.00    -0.008 A 
HETATM    8  C   UNK N   1      22.660  16.794   4.388  0.00  0.00     0.119 C 
HETATM    9  C   UNK N   1      22.983  15.588   3.556  0.00  0.00     0.131 C 
HETATM   10  C   UNK N   1      23.976  14.587   4.069  0.00  0.00     0.078 C 
HETATM   11  C   UNK N   1      25.394  15.161   4.113  0.00  0.00     0.008 C 
HETATM   12  C   UNK N   1      25.641  15.967   5.382  0.00  0.00     0.004 C 
HETATM   13  C   UNK N   1      27.074  16.497   5.428  0.00  0.00     0.027 C 
HETATM   14  C   UNK N   1      27.166  17.941   5.022  0.00  0.00    -0.031 C 
HETATM   15  C   UNK N   1      26.514  18.891   5.704  0.00  0.00    -0.029 C 
HETATM   16  C   UNK N   1      26.564  20.338   5.296  0.00  0.00     0.053 C 
HETATM   17  C   UNK N   1      26.067  20.596   3.865  0.00  0.00     0.183 C 
HETATM   18  O   UNK N   1      24.694  20.464   3.740  0.00  0.00    -0.317 OA
HETATM   19  O   UNK N   1      24.759  18.241   3.625  0.00  0.00    -0.259 OA
HETATM   20 Cl   UNK N   1      19.665  16.331   3.799  0.00  0.00    -0.081 Cl
HETATM   21  O   UNK N   1      22.446  15.406   2.475  0.00  0.00    -0.298 OA
ENDROOT
BRANCH   3  22
HETATM   22  O   UNK N   1      22.486  21.393   2.591  0.00  0.00    -0.360 OA
HETATM   23  H   UNK N   1      22.841  21.574   1.742  0.00  0.00     0.217 HD
ENDBRANCH   3  22
BRANCH   5  24
HETATM   24  O   UNK N   1      18.542  18.803   2.607  0.00  0.00    -0.359 OA
HETATM   25  H   UNK N   1      18.077  18.015   2.811  0.00  0.00     0.217 HD
ENDBRANCH   5  24
TORSDOF 2
ENDMDL
MODEL 2
REMARK VINA RESULT:      -7.0     16.705     19.086
REMARK  2 active torsions:
REMARK  status: ('A' for Active; 'I' for Inactive)
REMARK    1  A    between atoms: C_3  and  O_20 
REMARK    2  A    between atoms: C_5  and  O_21 
ROOT
HETATM    1  C   UNK N   1      36.039  10.238  15.294  0.00  0.00     0.296 C 
HETATM    2  C   UNK N   1      35.824  10.893  16.619  0.00  0.00     0.081 A 
HETATM    3  C   UNK N   1      35.918  10.143  17.810  0.00  0.00     0.085 A 
HETATM    4  C   UNK N   1      35.784  10.771  19.047  0.00  0.00     0.076 A 
HETATM    5  C   UNK N   1      35.546  12.141  19.129  0.00  0.00     0.090 A 
HETATM    6  C   UNK N   1      35.416  12.905  17.962  0.00  0.00     0.075 A 
HETATM    7  C   UNK N   1      35.552  12.291  16.700  0.00  0.00    -0.008 A 
HETATM    8  C   UNK N   1      35.314  13.089  15.436  0.00  0.00     0.119 C 
HETATM    9  C   UNK N   1      36.398  14.039  15.019  0.00  0.00     0.131 C 
HETATM   10  C   UNK N   1      36.380  14.609  13.631  0.00  0.00     0.078 C 
HETATM   11  C   UNK N   1      36.660  13.541  12.572  0.00  0.00     0.008 C 
HETATM   12  C   UNK N   1      35.403  12.764  12.204  0.00  0.00     0.004 C 
HETATM   13  C   UNK N   1      35.693  11.730  11.115  0.00  0.00     0.027 C 
HETATM   14  C   UNK N   1      35.855  10.342  11.669  0.00  0.00    -0.031 C 
HETATM   15  C   UNK N   1      34.859   9.746  12.337  0.00  0.00    -0.029 C 
HETATM   16  C   UNK N   1      35.011   8.372  12.928  0.00  0.00     0.053 C 
HETATM   17  C   UNK N   1      36.164   8.254  13.936  0.00  0.00     0.183 C 
HETATM   18  O   UNK N   1      35.898   8.894  15.136  0.00  0.00    -0.317 OA
HETATM   19  O   UNK N   1      36.405  10.916  14.353  0.00  0.00    -0.259 OA
HETATM   20 Cl   UNK N   1      35.061  14.629  18.099  0.00  0.00    -0.081 Cl
HETATM   21  O   UNK N   1      37.286  14.359  15.793  0.00  0.00    -0.298 OA
ENDROOT
BRANCH   3  22
HETATM   22  O   UNK N   1      36.167   8.822  17.779  0.00  0.00    -0.360 OA
HETATM   23  H   UNK N   1      36.649   8.424  17.081  0.00  0.00     0.217 HD
ENDBRANCH   3  22
BRANCH   5  24
HETATM   24  O   UNK N   1      35.427  12.718  20.337  0.00  0.00    -0.359 OA
HETATM   25  H   UNK N   1      35.036  13.566  20.416  0.00  0.00     0.217 HD
ENDBRANCH   5  24
TORSDOF 2
ENDMDL
MODEL 3
REMARK VINA RESULT:      -6.9      5.960      9.285
REMARK  2 active torsions:
REMARK  status: ('A' for Active; 'I' for Inactive)
REMARK    1  A    between atoms: C_3  and  O_20 
REMARK    2  A    between atoms: C_5  and  O_21 
ROOT
HETATM    1  C   UNK N   1      30.018  17.451   6.820  0.00  0.00     0.296 C 
HETATM    2  C   UNK N   1      31.439  17.076   6.557  0.00  0.00     0.081 A 
HETATM    3  C   UNK N   1      32.387  17.091   7.602  0.00  0.00     0.085 A 
HETATM    4  C   UNK N   1      33.696  16.676   7.369  0.00  0.00     0.076 A 
HETATM    5  C   UNK N   1      34.095  16.252   6.103  0.00  0.00     0.090 A 
HETATM    6  C   UNK N   1      33.184  16.257   5.038  0.00  0.00     0.075 A 
HETATM    7  C   UNK N   1      31.852  16.669   5.253  0.00  0.00    -0.008 A 
HETATM    8  C   UNK N   1      30.891  16.774   4.090  0.00  0.00     0.119 C 
HETATM    9  C   UNK N   1      30.338  15.488   3.548  0.00  0.00     0.131 C 
HETATM   10  C   UNK N   1      29.151  15.529   2.631  0.00  0.00     0.078 C 
HETATM   11  C   UNK N   1      27.882  15.978   3.359  0.00  0.00     0.008 C 
HETATM   12  C   UNK N   1      27.787  17.495   3.450  0.00  0.00     0.004 C 
HETATM   13  C   UNK N   1      26.495  17.926   4.142  0.00  0.00     0.027 C 
HETATM   14  C   UNK N   1      26.710  18.296   5.583  0.00  0.00    -0.031 C 
HETATM   15  C   UNK N   1      27.534  19.295   5.922  0.00  0.00    -0.029 C 
HETATM   16  C   UNK N   1      27.790  19.661   7.358  0.00  0.00     0.053 C 
HETATM   17  C   UNK N   1      28.353  18.506   8.201  0.00  0.00     0.183 C 
HETATM   18  O   UNK N   1      29.671  18.208   7.896  0.00  0.00    -0.317 OA
HETATM   19  O   UNK N   1      29.149  17.018   6.087  0.00  0.00    -0.259 OA
HETATM   20 Cl   UNK N   1      33.734  15.766   3.435  0.00  0.00    -0.081 Cl
HETATM   21  O   UNK N   1      30.843  14.416   3.837  0.00  0.00    -0.298 OA
ENDROOT
BRANCH   3  22
HETATM   22  O   UNK N   1      32.041  17.473   8.844  0.00  0.00    -0.360 OA
HETATM   23  H   UNK N   1      31.184  17.317   9.192  0.00  0.00     0.217 HD
ENDBRANCH   3  22
BRANCH   5  24
HETATM   24  O   UNK N   1      35.363  15.852   5.911  0.00  0.00    -0.359 OA
HETATM   25  H   UNK N   1      35.733  15.183   6.453  0.00  0.00     0.217 HD
ENDBRANCH   5  24
TORSDOF 2
ENDMDL
MODEL 4
REMARK VINA RESULT:      -6.7     11.238     13.513
REMARK  2 active torsions:
REMARK  status: ('A' for Active; 'I' for Inactive)
REMARK    1  A    between atoms: C_3  and  O_20 
REMARK    2  A    between atoms: C_5  and  O_21 
ROOT
HETATM    1  C   UNK N   1      27.226  24.470  -5.104  0.00  0.00     0.296 C 
HETATM    2  C   UNK N   1      28.364  23.887  -4.333  0.00  0.00     0.081 A 
HETATM    3  C   UNK N   1      28.234  23.632  -2.951  0.00  0.00     0.085 A 
HETATM    4  C   UNK N   1      29.273  23.025  -2.249  0.00  0.00     0.076 A 
HETATM    5  C   UNK N   1      30.458  22.672  -2.892  0.00  0.00     0.090 A 
HETATM    6  C   UNK N   1      30.627  22.942  -4.256  0.00  0.00     0.075 A 
HETATM    7  C   UNK N   1      29.586  23.551  -4.987  0.00  0.00    -0.008 A 
HETATM    8  C   UNK N   1      29.799  23.938  -6.434  0.00  0.00     0.119 C 
HETATM    9  C   UNK N   1      29.772  22.828  -7.444  0.00  0.00     0.131 C 
HETATM   10  C   UNK N   1      29.648  23.165  -8.901  0.00  0.00     0.078 C 
HETATM   11  C   UNK N   1      28.274  23.747  -9.238  0.00  0.00     0.008 C 
HETATM   12  C   UNK N   1      28.204  25.241  -8.949  0.00  0.00     0.004 C 
HETATM   13  C   UNK N   1      26.839  25.813  -9.329  0.00  0.00     0.027 C 
HETATM   14  C   UNK N   1      25.938  25.990  -8.140  0.00  0.00    -0.031 C 
HETATM   15  C   UNK N   1      26.285  26.794  -7.127  0.00  0.00    -0.029 C 
HETATM   16  C   UNK N   1      25.415  26.961  -5.911  0.00  0.00     0.053 C 
HETATM   17  C   UNK N   1      25.127  25.646  -5.170  0.00  0.00     0.183 C 
HETATM   18  O   UNK N   1      26.230  25.161  -4.486  0.00  0.00    -0.317 OA
HETATM   19  O   UNK N   1      27.161  24.269  -6.302  0.00  0.00    -0.259 OA
HETATM   20 Cl   UNK N   1      32.160  22.532  -5.029  0.00  0.00    -0.081 Cl
HETATM   21  O   UNK N   1      29.858  21.661  -7.099  0.00  0.00    -0.298 OA
ENDROOT
BRANCH   3  22
HETATM   22  O   UNK N   1      27.101  23.937  -2.294  0.00  0.00    -0.360 OA
HETATM   23  H   UNK N   1      26.971  24.773  -1.890  0.00  0.00     0.217 HD
ENDBRANCH   3  22
BRANCH   5  24
HETATM   24  O   UNK N   1      31.439  22.084  -2.188  0.00  0.00    -0.359 OA
HETATM   25  H   UNK N   1      31.270  21.762  -1.324  0.00  0.00     0.217 HD
ENDBRANCH   5  24
TORSDOF 2
ENDMDL
MODEL 5
REMARK VINA RESULT:      -6.7      4.526      6.875
REMARK  2 active torsions:
REMARK  status: ('A' for Active; 'I' for Inactive)
REMARK    1  A    between atoms: C_3  and  O_20 
REMARK    2  A    between atoms: C_5  and  O_21 
ROOT
HETATM    1  C   UNK N   1      28.492  17.709   6.199  0.00  0.00     0.296 C 
HETATM    2  C   UNK N   1      27.880  17.038   5.013  0.00  0.00     0.081 A 
HETATM    3  C   UNK N   1      26.539  17.298   4.659  0.00  0.00     0.085 A 
HETATM    4  C   UNK N   1      25.992  16.723   3.513  0.00  0.00     0.076 A 
HETATM    5  C   UNK N   1      26.751  15.878   2.707  0.00  0.00     0.090 A 
HETATM    6  C   UNK N   1      28.075  15.576   3.052  0.00  0.00     0.075 A 
HETATM    7  C   UNK N   1      28.651  16.150   4.204  0.00  0.00    -0.008 A 
HETATM    8  C   UNK N   1      30.044  15.752   4.638  0.00  0.00     0.119 C 
HETATM    9  C   UNK N   1      31.188  16.329   3.858  0.00  0.00     0.131 C 
HETATM   10  C   UNK N   1      32.577  16.245   4.421  0.00  0.00     0.078 C 
HETATM   11  C   UNK N   1      32.743  17.125   5.662  0.00  0.00     0.008 C 
HETATM   12  C   UNK N   1      32.255  16.425   6.923  0.00  0.00     0.004 C 
HETATM   13  C   UNK N   1      32.467  17.301   8.158  0.00  0.00     0.027 C 
HETATM   14  C   UNK N   1      31.209  18.000   8.590  0.00  0.00    -0.031 C 
HETATM   15  C   UNK N   1      30.122  17.304   8.947  0.00  0.00    -0.029 C 
HETATM   16  C   UNK N   1      28.842  17.982   9.351  0.00  0.00     0.053 C 
HETATM   17  C   UNK N   1      28.265  18.910   8.271  0.00  0.00     0.183 C 
HETATM   18  O   UNK N   1      27.724  18.219   7.199  0.00  0.00    -0.317 OA
HETATM   19  O   UNK N   1      29.699  17.851   6.237  0.00  0.00    -0.259 OA
HETATM   20 Cl   UNK N   1      28.994  14.459   2.039  0.00  0.00    -0.081 Cl
HETATM   21  O   UNK N   1      31.007  16.857   2.773  0.00  0.00    -0.298 OA
ENDROOT
BRANCH   3  22
HETATM   22  O   UNK N   1      25.776  18.123   5.396  0.00  0.00    -0.360 OA
HETATM   23  H   UNK N   1      25.945  18.277   6.305  0.00  0.00     0.217 HD
ENDBRANCH   3  22
BRANCH   5  24
HETATM   24  O   UNK N   1      26.196  15.343   1.606  0.00  0.00    -0.359 OA
HETATM   25  H   UNK N   1      25.789  15.897   0.969  0.00  0.00     0.217 HD
ENDBRANCH   5  24
TORSDOF 2
ENDMDL
MODEL 6
REMARK VINA RESULT:      -6.7     11.096     14.314
REMARK  2 active torsions:
REMARK  status: ('A' for Active; 'I' for Inactive)
REMARK    1  A    between atoms: C_3  and  O_20 
REMARK    2  A    between atoms: C_5  and  O_21 
ROOT
HETATM    1  C   UNK N   1      36.002  14.429   6.779  0.00  0.00     0.296 C 
HETATM    2  C   UNK N   1      36.349  14.138   8.203  0.00  0.00     0.081 A 
HETATM    3  C   UNK N   1      37.430  13.287   8.515  0.00  0.00     0.085 A 
HETATM    4  C   UNK N   1      37.794  13.073   9.843  0.00  0.00     0.076 A 
HETATM    5  C   UNK N   1      37.093  13.683  10.882  0.00  0.00     0.090 A 
HETATM    6  C   UNK N   1      35.996  14.508  10.603  0.00  0.00     0.075 A 
HETATM    7  C   UNK N   1      35.613  14.742   9.266  0.00  0.00    -0.008 A 
HETATM    8  C   UNK N   1      34.370  15.548   8.960  0.00  0.00     0.119 C 
HETATM    9  C   UNK N   1      34.469  17.037   9.125  0.00  0.00     0.131 C 
HETATM   10  C   UNK N   1      33.403  17.913   8.537  0.00  0.00     0.078 C 
HETATM   11  C   UNK N   1      33.432  17.899   7.007  0.00  0.00     0.008 C 
HETATM   12  C   UNK N   1      32.680  16.704   6.436  0.00  0.00     0.004 C 
HETATM   13  C   UNK N   1      32.684  16.729   4.907  0.00  0.00     0.027 C 
HETATM   14  C   UNK N   1      33.711  15.803   4.320  0.00  0.00    -0.031 C 
HETATM   15  C   UNK N   1      33.669  14.486   4.559  0.00  0.00    -0.029 C 
HETATM   16  C   UNK N   1      34.705  13.545   4.010  0.00  0.00     0.053 C 
HETATM   17  C   UNK N   1      36.140  13.884   4.439  0.00  0.00     0.183 C 
HETATM   18  O   UNK N   1      36.386  13.598   5.772  0.00  0.00    -0.317 OA
HETATM   19  O   UNK N   1      35.416  15.461   6.514  0.00  0.00    -0.259 OA
HETATM   20 Cl   UNK N   1      35.096  15.223  11.942  0.00  0.00    -0.081 Cl
HETATM   21  O   UNK N   1      35.398  17.542   9.735  0.00  0.00    -0.298 OA
ENDROOT
BRANCH   3  22
HETATM   22  O   UNK N   1      38.147  12.694   7.545  0.00  0.00    -0.360 OA
HETATM   23  H   UNK N   1      38.447  11.808   7.619  0.00  0.00     0.217 HD
ENDBRANCH   3  22
BRANCH   5  24
HETATM   24  O   UNK N   1      37.472  13.460  12.152  0.00  0.00    -0.359 OA
HETATM   25  H   UNK N   1      37.158  14.015  12.839  0.00  0.00     0.217 HD
ENDBRANCH   5  24
TORSDOF 2
ENDMDL
MODEL 7
REMARK VINA RESULT:      -6.7     12.317     13.562
REMARK  2 active torsions:
REMARK  status: ('A' for Active; 'I' for Inactive)
REMARK    1  A    between atoms: C_3  and  O_20 
REMARK    2  A    between atoms: C_5  and  O_21 
ROOT
HETATM    1  C   UNK N   1      29.125  25.450  -4.768  0.00  0.00     0.296 C 
HETATM    2  C   UNK N   1      28.727  24.319  -5.658  0.00  0.00     0.081 A 
HETATM    3  C   UNK N   1      29.493  23.135  -5.694  0.00  0.00     0.085 A 
HETATM    4  C   UNK N   1      29.082  22.056  -6.474  0.00  0.00     0.076 A 
HETATM    5  C   UNK N   1      27.919  22.131  -7.237  0.00  0.00     0.090 A 
HETATM    6  C   UNK N   1      27.156  23.306  -7.246  0.00  0.00     0.075 A 
HETATM    7  C   UNK N   1      27.551  24.408  -6.461  0.00  0.00    -0.008 A 
HETATM    8  C   UNK N   1      26.790  25.713  -6.543  0.00  0.00     0.119 C 
HETATM    9  C   UNK N   1      25.465  25.771  -5.842  0.00  0.00     0.131 C 
HETATM   10  C   UNK N   1      24.818  27.103  -5.605  0.00  0.00     0.078 C 
HETATM   11  C   UNK N   1      25.596  27.943  -4.589  0.00  0.00     0.008 C 
HETATM   12  C   UNK N   1      26.754  28.689  -5.238  0.00  0.00     0.004 C 
HETATM   13  C   UNK N   1      27.494  29.554  -4.217  0.00  0.00     0.027 C 
HETATM   14  C   UNK N   1      28.761  28.910  -3.729  0.00  0.00    -0.031 C 
HETATM   15  C   UNK N   1      29.750  28.605  -4.578  0.00  0.00    -0.029 C 
HETATM   16  C   UNK N   1      31.012  27.930  -4.117  0.00  0.00     0.053 C 
HETATM   17  C   UNK N   1      30.776  26.577  -3.428  0.00  0.00     0.183 C 
HETATM   18  O   UNK N   1      30.401  25.580  -4.313  0.00  0.00    -0.317 OA
HETATM   19  O   UNK N   1      28.274  26.236  -4.396  0.00  0.00    -0.259 OA
HETATM   20 Cl   UNK N   1      25.717  23.388  -8.266  0.00  0.00    -0.081 Cl
HETATM   21  O   UNK N   1      24.905  24.752  -5.470  0.00  0.00    -0.298 OA
ENDROOT
BRANCH   3  22
HETATM   22  O   UNK N   1      30.611  23.011  -4.957  0.00  0.00    -0.360 OA
HETATM   23  H   UNK N   1      31.466  23.067  -5.338  0.00  0.00     0.217 HD
ENDBRANCH   3  22
BRANCH   5  24
HETATM   24  O   UNK N   1      27.546  21.071  -7.975  0.00  0.00    -0.359 OA
HETATM   25  H   UNK N   1      28.176  20.419  -8.213  0.00  0.00     0.217 HD
ENDBRANCH   5  24
TORSDOF 2
ENDMDL
MODEL 8
REMARK VINA RESULT:      -6.5     11.299     13.608
REMARK  2 active torsions:
REMARK  status: ('A' for Active; 'I' for Inactive)
REMARK    1  A    between atoms: C_3  and  O_20 
REMARK    2  A    between atoms: C_5  and  O_21 
ROOT
HETATM    1  C   UNK N   1      28.562  22.979  -6.919  0.00  0.00     0.296 C 
HETATM    2  C   UNK N   1      29.342  22.384  -5.792  0.00  0.00     0.081 A 
HETATM    3  C   UNK N   1      30.154  21.250  -6.006  0.00  0.00     0.085 A 
HETATM    4  C   UNK N   1      30.933  20.739  -4.969  0.00  0.00     0.076 A 
HETATM    5  C   UNK N   1      30.917  21.329  -3.708  0.00  0.00     0.090 A 
HETATM    6  C   UNK N   1      30.097  22.438  -3.458  0.00  0.00     0.075 A 
HETATM    7  C   UNK N   1      29.303  22.974  -4.493  0.00  0.00    -0.008 A 
HETATM    8  C   UNK N   1      28.340  24.105  -4.207  0.00  0.00     0.119 C 
HETATM    9  C   UNK N   1      28.932  25.473  -4.039  0.00  0.00     0.131 C 
HETATM   10  C   UNK N   1      28.032  26.673  -4.080  0.00  0.00     0.078 C 
HETATM   11  C   UNK N   1      27.446  26.900  -5.475  0.00  0.00     0.008 C 
HETATM   12  C   UNK N   1      26.212  26.040  -5.719  0.00  0.00     0.004 C 
HETATM   13  C   UNK N   1      25.618  26.310  -7.102  0.00  0.00     0.027 C 
HETATM   14  C   UNK N   1      26.003  25.263  -8.108  0.00  0.00    -0.031 C 
HETATM   15  C   UNK N   1      25.671  23.978  -7.927  0.00  0.00    -0.029 C 
HETATM   16  C   UNK N   1      26.074  22.909  -8.904  0.00  0.00     0.053 C 
HETATM   17  C   UNK N   1      27.592  22.802  -9.114  0.00  0.00     0.183 C 
HETATM   18  O   UNK N   1      28.250  22.252  -8.026  0.00  0.00    -0.317 OA
HETATM   19  O   UNK N   1      28.253  24.154  -6.866  0.00  0.00    -0.259 OA
HETATM   20 Cl   UNK N   1      30.058  23.130  -1.835  0.00  0.00    -0.081 Cl
HETATM   21  O   UNK N   1      30.131  25.623  -3.863  0.00  0.00    -0.298 OA
ENDROOT
BRANCH   3  22
HETATM   22  O   UNK N   1      30.215  20.660  -7.213  0.00  0.00    -0.360 OA
HETATM   23  H   UNK N   1      30.896  20.856  -7.827  0.00  0.00     0.217 HD
ENDBRANCH   3  22
BRANCH   5  24
HETATM   24  O   UNK N   1      31.683  20.817  -2.731  0.00  0.00    -0.359 OA
HETATM   25  H   UNK N   1      31.731  21.244  -1.898  0.00  0.00     0.217 HD
ENDBRANCH   5  24
TORSDOF 2
ENDMDL
MODEL 9
REMARK VINA RESULT:      -6.5     11.946     14.472
REMARK  2 active torsions:
REMARK  status: ('A' for Active; 'I' for Inactive)
REMARK    1  A    between atoms: C_3  and  O_20 
REMARK    2  A    between atoms: C_5  and  O_21 
ROOT
HETATM    1  C   UNK N   1      35.797  14.608  10.566  0.00  0.00     0.296 C 
HETATM    2  C   UNK N   1      35.300  15.452   9.438  0.00  0.00     0.081 A 
HETATM    3  C   UNK N   1      34.913  16.790   9.664  0.00  0.00     0.085 A 
HETATM    4  C   UNK N   1      34.515  17.595   8.598  0.00  0.00     0.076 A 
HETATM    5  C   UNK N   1      34.483  17.093   7.299  0.00  0.00     0.090 A 
HETATM    6  C   UNK N   1      34.831  15.759   7.049  0.00  0.00     0.075 A 
HETATM    7  C   UNK N   1      35.241  14.928   8.113  0.00  0.00    -0.008 A 
HETATM    8  C   UNK N   1      35.521  13.461   7.868  0.00  0.00     0.119 C 
HETATM    9  C   UNK N   1      36.816  13.122   7.189  0.00  0.00     0.131 C 
HETATM   10  C   UNK N   1      37.306  11.704   7.208  0.00  0.00     0.078 C 
HETATM   11  C   UNK N   1      37.718  11.262   8.614  0.00  0.00     0.008 C 
HETATM   12  C   UNK N   1      36.523  10.797   9.436  0.00  0.00     0.004 C 
HETATM   13  C   UNK N   1      36.960  10.321  10.822  0.00  0.00     0.027 C 
HETATM   14  C   UNK N   1      36.727  11.356  11.885  0.00  0.00    -0.031 C 
HETATM   15  C   UNK N   1      35.496  11.815  12.143  0.00  0.00    -0.029 C 
HETATM   16  C   UNK N   1      35.244  12.876  13.179  0.00  0.00     0.053 C 
HETATM   17  C   UNK N   1      36.009  14.184  12.926  0.00  0.00     0.183 C 
HETATM   18  O   UNK N   1      35.499  14.908  11.860  0.00  0.00    -0.317 OA
HETATM   19  O   UNK N   1      36.530  13.670  10.322  0.00  0.00    -0.259 OA
HETATM   20 Cl   UNK N   1      34.728  15.137   5.400  0.00  0.00    -0.081 Cl
HETATM   21  O   UNK N   1      37.470  13.979   6.617  0.00  0.00    -0.298 OA
ENDROOT
BRANCH   3  22
HETATM   22  O   UNK N   1      34.948  17.322  10.898  0.00  0.00    -0.360 OA
HETATM   23  H   UNK N   1      34.231  17.815  11.247  0.00  0.00     0.217 HD
ENDBRANCH   3  22
BRANCH   5  24
HETATM   24  O   UNK N   1      34.100  17.895   6.291  0.00  0.00    -0.359 OA
HETATM   25  H   UNK N   1      34.742  18.285   5.730  0.00  0.00     0.217 HD
ENDBRANCH   5  24
TORSDOF 2
ENDMDL
