REMARK  2 active torsions:
REMARK  status: ('A' for Active; 'I' for Inactive)
REMARK    1  A    between atoms: C_3  and  O_20 
REMARK    2  A    between atoms: C_5  and  O_21 
ROOT
HETATM    1  C   UNK N   1      -0.470  -1.343   0.325  0.00  0.00     0.296 C 
HETATM    2  C   UNK N   1      -1.831  -0.751   0.157  0.00  0.00     0.081 A 
HETATM    3  C   UNK N   1      -2.983  -1.536   0.375  0.00  0.00     0.085 A 
HETATM    4  C   UNK N   1      -4.250  -0.963   0.284  0.00  0.00     0.076 A 
HETATM    5  C   UNK N   1      -4.402   0.385  -0.033  0.00  0.00     0.090 A 
HETATM    6  C   UNK N   1      -3.277   1.181  -0.286  0.00  0.00     0.075 A 
HETATM    7  C   UNK N   1      -1.985   0.623  -0.195  0.00  0.00    -0.008 A 
HETATM    8  C   UNK N   1      -0.772   1.448  -0.565  0.00  0.00     0.119 C 
HETATM    9  C   UNK N   1      -0.326   2.481   0.428  0.00  0.00     0.131 C 
HETATM   10  C   UNK N   1       1.034   3.098   0.284  0.00  0.00     0.078 C 
HETATM   11  C   UNK N   1       2.151   2.089   0.560  0.00  0.00     0.008 C 
HETATM   12  C   UNK N   1       2.470   1.246  -0.668  0.00  0.00     0.004 C 
HETATM   13  C   UNK N   1       3.615   0.273  -0.386  0.00  0.00     0.027 C 
HETATM   14  C   UNK N   1       3.129  -1.120  -0.102  0.00  0.00    -0.031 C 
HETATM   15  C   UNK N   1       2.424  -1.803  -1.013  0.00  0.00    -0.029 C 
HETATM   16  C   UNK N   1       1.899  -3.185  -0.738  0.00  0.00     0.053 C 
HETATM   17  C   UNK N   1       0.971  -3.264   0.484  0.00  0.00     0.183 C 
HETATM   18  O   UNK N   1      -0.268  -2.687   0.258  0.00  0.00    -0.317 OA
HETATM   19  O   UNK N   1       0.464  -0.609   0.586  0.00  0.00    -0.259 OA
HETATM   20 Cl   UNK N   1      -3.505   2.872  -0.738  0.00  0.00    -0.081 Cl
HETATM   21  O   UNK N   1      -1.054   2.830   1.343  0.00  0.00    -0.298 OA
ENDROOT
BRANCH   3  22
HETATM   22  O   UNK N   1      -2.883  -2.836   0.703  0.00  0.00    -0.360 OA
HETATM   23  H   UNK N   1      -3.633  -3.350   0.932  0.00  0.00     0.217 HD
ENDBRANCH   3  22
BRANCH   5  24
HETATM   24  O   UNK N   1      -5.637   0.909  -0.108  0.00  0.00    -0.359 OA
HETATM   25  H   UNK N   1      -5.751   1.838  -0.160  0.00  0.00     0.217 HD
ENDBRANCH   5  24
TORSDOF 2
