MODEL 1
REMARK VINA RESULT:      -8.9      0.000      0.000
REMARK  6 active torsions:
REMARK  status: ('A' for Active; 'I' for Inactive)
REMARK    1  A    between atoms: C_1  and  C_2 
REMARK    2  A    between atoms: C_1  and  N_33 
REMARK    3  A    between atoms: C_2  and  N_20 
REMARK    4  A    between atoms: C_6  and  C_9 
REMARK    5  A    between atoms: C_11  and  C_13 
REMARK       I    between atoms: C_13  and  N_34 
REMARK    6  A    between atoms: C_14  and  N_34 
REMARK       I    between atoms: C_32  and  N_33 
ROOT
HETATM    1  C   UNK N   1      36.003  11.765  16.245  0.00  0.00     0.027 A 
HETATM    2  C   UNK N   1      35.177  10.633  16.279  0.00  0.00    -0.024 A 
HETATM    3  C   UNK N   1      34.269  10.433  15.220  0.00  0.00     0.014 A 
HETATM    4  C   UNK N   1      34.214  11.376  14.164  0.00  0.00     0.032 A 
HETATM    5  N   UNK N   1      36.862  14.587  14.169  0.00  0.00    -0.201 N 
ATOM      6  HN  UNK N   1      37.521  15.365  14.155  1.00  0.00     0.183 HD
HETATM    7  C   UNK N   1      36.865  13.723  15.211  0.00  0.00     0.120 A 
HETATM    8  C   UNK N   1      35.977  12.661  15.218  0.00  0.00     0.008 A 
HETATM    9  C   UNK N   1      35.089  12.484  14.162  0.00  0.00     0.060 A 
HETATM   10  N   UNK N   1      35.108  13.381  13.139  0.00  0.00    -0.191 N 
ATOM     11  HN  UNK N   1      34.456  13.273  12.362  1.00  0.00     0.184 HD
HETATM   12  C   UNK N   1      35.991  14.426  13.142  0.00  0.00     0.678 A 
HETATM   13  N   UNK N   1      35.996  15.367  12.084  0.00  0.00    -0.224 N 
HETATM   14  H   UNK N   1      36.754  15.988  11.994  0.00  0.00     0.177 HD
ENDROOT
BRANCH   2  15
HETATM   15  C   UNK N   1      35.448   9.689  17.405  0.00  0.00    -0.019 A 
HETATM   16  C   UNK N   1      34.592   9.845  18.486  0.00  0.00     0.029 A 
HETATM   17  C   UNK N   1      34.708   9.192  19.683  0.00  0.00     0.032 A 
HETATM   18  C   UNK N   1      35.768   8.284  19.836  0.00  0.00     0.017 A 
HETATM   19  C   UNK N   1      36.645   8.049  18.748  0.00  0.00     0.009 A 
HETATM   20  C   UNK N   1      36.492   8.743  17.523  0.00  0.00    -0.051 A 
HETATM   21  C   UNK N   1      37.467   8.496  16.421  0.00  0.00     0.049 C 
BRANCH  17  22
HETATM   22  C   UNK N   1      33.656   9.542  20.687  0.00  0.00     0.252 C 
HETATM   23  O   UNK N   1      33.917  10.414  21.506  0.00  0.00    -0.268 OA
HETATM   24  N   UNK N   1      32.454   8.933  20.791  0.00  0.00    -0.352 N 
HETATM   25  H   UNK N   1      31.811   9.316  21.431  0.00  0.00     0.163 HD
BRANCH  24  26
HETATM   26  C   UNK N   1      32.033   7.782  20.054  0.00  0.00     0.084 A 
HETATM   27  C   UNK N   1      31.216   6.904  20.985  0.00  0.00     0.027 A 
HETATM   28  C   UNK N   1      30.518   7.806  19.995  0.00  0.00     0.027 A 
ENDBRANCH  24  26
ENDBRANCH  17  22
ENDBRANCH   2  15
BRANCH  13  29
HETATM   29  C   UNK N   1      34.915  15.432  11.140  0.00  0.00     0.168 C 
BRANCH  29  30
HETATM   30  C   UNK N   1      35.507  15.434   9.730  0.00  0.00     0.292 C 
BRANCH  30  31
HETATM   31  N   UNK N   1      34.647  16.073   8.734  0.00  0.00     0.094 N 
HETATM   32  C   UNK N   1      34.712  17.529   8.864  0.00  0.00     0.298 C 
HETATM   33  C   UNK N   1      33.857  18.159   7.763  0.00  0.00     0.198 C 
HETATM   34  O   UNK N   1      34.374  17.792   6.507  0.00  0.00    -0.388 OA
HETATM   35  C   UNK N   1      34.150  16.410   6.363  0.00  0.00     0.198 C 
HETATM   36  C   UNK N   1      35.008  15.653   7.376  0.00  0.00     0.298 C 
ENDBRANCH  30  31
ENDBRANCH  29  30
ENDBRANCH  13  29
TORSDOF 6
ENDMDL
MODEL 2
REMARK VINA RESULT:      -8.6      1.630      2.288
REMARK  6 active torsions:
REMARK  status: ('A' for Active; 'I' for Inactive)
REMARK    1  A    between atoms: C_1  and  C_2 
REMARK    2  A    between atoms: C_1  and  N_33 
REMARK    3  A    between atoms: C_2  and  N_20 
REMARK    4  A    between atoms: C_6  and  C_9 
REMARK    5  A    between atoms: C_11  and  C_13 
REMARK       I    between atoms: C_13  and  N_34 
REMARK    6  A    between atoms: C_14  and  N_34 
REMARK       I    between atoms: C_32  and  N_33 
ROOT
HETATM    1  C   UNK N   1      35.574  13.188  15.467  0.00  0.00     0.027 A 
HETATM    2  C   UNK N   1      34.888  12.075  15.974  0.00  0.00    -0.024 A 
HETATM    3  C   UNK N   1      34.181  11.255  15.071  0.00  0.00     0.014 A 
HETATM    4  C   UNK N   1      34.180  11.580  13.692  0.00  0.00     0.032 A 
HETATM    5  N   UNK N   1      36.409  14.835  12.368  0.00  0.00    -0.201 N 
ATOM      6  HN  UNK N   1      36.968  15.620  12.035  1.00  0.00     0.183 HD
HETATM    7  C   UNK N   1      36.352  14.564  13.693  0.00  0.00     0.120 A 
HETATM    8  C   UNK N   1      35.602  13.489  14.138  0.00  0.00     0.008 A 
HETATM    9  C   UNK N   1      34.912  12.694  13.229  0.00  0.00     0.060 A 
HETATM   10  N   UNK N   1      34.983  13.006  11.906  0.00  0.00    -0.191 N 
ATOM     11  HN  UNK N   1      34.474  12.441  11.227  1.00  0.00     0.184 HD
HETATM   12  C   UNK N   1      35.729  14.070  11.478  0.00  0.00     0.678 A 
HETATM   13  N   UNK N   1      35.787  14.402  10.103  0.00  0.00    -0.224 N 
HETATM   14  H   UNK N   1      36.474  15.032   9.787  0.00  0.00     0.177 HD
ENDROOT
BRANCH   2  15
HETATM   15  C   UNK N   1      35.091  11.820  17.432  0.00  0.00    -0.019 A 
HETATM   16  C   UNK N   1      34.998  10.482  17.785  0.00  0.00     0.029 A 
HETATM   17  C   UNK N   1      35.022  10.002  19.066  0.00  0.00     0.032 A 
HETATM   18  C   UNK N   1      35.159  10.929  20.113  0.00  0.00     0.017 A 
HETATM   19  C   UNK N   1      35.307  12.305  19.808  0.00  0.00     0.009 A 
HETATM   20  C   UNK N   1      35.279  12.764  18.468  0.00  0.00    -0.051 A 
HETATM   21  C   UNK N   1      35.391  14.227  18.198  0.00  0.00     0.049 C 
BRANCH  17  22
HETATM   22  C   UNK N   1      34.902   8.515  19.176  0.00  0.00     0.252 C 
HETATM   23  O   UNK N   1      35.893   7.842  18.925  0.00  0.00    -0.268 OA
HETATM   24  N   UNK N   1      33.765   7.853  19.485  0.00  0.00    -0.352 N 
HETATM   25  H   UNK N   1      33.835   6.880  19.619  0.00  0.00     0.163 HD
BRANCH  24  26
HETATM   26  C   UNK N   1      32.469   8.440  19.634  0.00  0.00     0.084 A 
HETATM   27  C   UNK N   1      31.497   7.337  20.013  0.00  0.00     0.027 A 
HETATM   28  C   UNK N   1      32.047   8.255  21.079  0.00  0.00     0.027 A 
ENDBRANCH  24  26
ENDBRANCH  17  22
ENDBRANCH   2  15
BRANCH  13  29
HETATM   29  C   UNK N   1      34.862  13.836   9.161  0.00  0.00     0.168 C 
BRANCH  29  30
HETATM   30  C   UNK N   1      33.552  14.621   9.243  0.00  0.00     0.292 C 
BRANCH  30  31
HETATM   31  N   UNK N   1      33.411  15.636   8.199  0.00  0.00     0.094 N 
HETATM   32  C   UNK N   1      33.628  16.972   8.754  0.00  0.00     0.298 C 
HETATM   33  C   UNK N   1      33.542  17.995   7.621  0.00  0.00     0.198 C 
HETATM   34  O   UNK N   1      34.549  17.727   6.677  0.00  0.00    -0.388 OA
HETATM   35  C   UNK N   1      34.214  16.508   6.060  0.00  0.00     0.198 C 
HETATM   36  C   UNK N   1      34.327  15.379   7.083  0.00  0.00     0.298 C 
ENDBRANCH  30  31
ENDBRANCH  29  30
ENDBRANCH  13  29
TORSDOF 6
ENDMDL
MODEL 3
REMARK VINA RESULT:      -8.3      2.016      3.123
REMARK  6 active torsions:
REMARK  status: ('A' for Active; 'I' for Inactive)
REMARK    1  A    between atoms: C_1  and  C_2 
REMARK    2  A    between atoms: C_1  and  N_33 
REMARK    3  A    between atoms: C_2  and  N_20 
REMARK    4  A    between atoms: C_6  and  C_9 
REMARK    5  A    between atoms: C_11  and  C_13 
REMARK       I    between atoms: C_13  and  N_34 
REMARK    6  A    between atoms: C_14  and  N_34 
REMARK       I    between atoms: C_32  and  N_33 
ROOT
HETATM    1  C   UNK N   1      34.807  11.309  15.288  0.00  0.00     0.027 A 
HETATM    2  C   UNK N   1      35.539  12.190  16.097  0.00  0.00    -0.024 A 
HETATM    3  C   UNK N   1      36.261  13.228  15.474  0.00  0.00     0.014 A 
HETATM    4  C   UNK N   1      36.232  13.346  14.063  0.00  0.00     0.032 A 
HETATM    5  N   UNK N   1      33.869  10.728  11.854  0.00  0.00    -0.201 N 
ATOM      6  HN  UNK N   1      33.278  10.100  11.309  1.00  0.00     0.183 HD
HETATM    7  C   UNK N   1      33.955  10.573  13.195  0.00  0.00     0.120 A 
HETATM    8  C   UNK N   1      34.749  11.435  13.932  0.00  0.00     0.008 A 
HETATM    9  C   UNK N   1      35.454  12.452  13.296  0.00  0.00     0.060 A 
HETATM   10  N   UNK N   1      35.353  12.567  11.944  0.00  0.00    -0.191 N 
ATOM     11  HN  UNK N   1      35.872  13.299  11.461  1.00  0.00     0.184 HD
HETATM   12  C   UNK N   1      34.563  11.710  11.227  0.00  0.00     0.678 A 
HETATM   13  N   UNK N   1      34.474  11.822   9.819  0.00  0.00    -0.224 N 
HETATM   14  H   UNK N   1      33.761  11.341   9.341  0.00  0.00     0.177 HD
ENDROOT
BRANCH   2  15
HETATM   15  C   UNK N   1      35.366  11.987  17.567  0.00  0.00    -0.019 A 
HETATM   16  C   UNK N   1      35.238  10.656  17.938  0.00  0.00     0.029 A 
HETATM   17  C   UNK N   1      34.948  10.215  19.200  0.00  0.00     0.032 A 
HETATM   18  C   UNK N   1      34.771  11.177  20.208  0.00  0.00     0.017 A 
HETATM   19  C   UNK N   1      34.937  12.549  19.896  0.00  0.00     0.009 A 
HETATM   20  C   UNK N   1      35.240  12.967  18.578  0.00  0.00    -0.051 A 
HETATM   21  C   UNK N   1      35.360  14.426  18.287  0.00  0.00     0.049 C 
BRANCH  17  22
HETATM   22  C   UNK N   1      34.862   8.728  19.335  0.00  0.00     0.252 C 
HETATM   23  O   UNK N   1      35.887   8.080  19.164  0.00  0.00    -0.268 OA
HETATM   24  N   UNK N   1      33.727   8.039  19.584  0.00  0.00    -0.352 N 
HETATM   25  H   UNK N   1      33.815   7.071  19.744  0.00  0.00     0.163 HD
BRANCH  24  26
HETATM   26  C   UNK N   1      32.408   8.590  19.635  0.00  0.00     0.084 A 
HETATM   27  C   UNK N   1      31.456   7.485  20.058  0.00  0.00     0.027 A 
HETATM   28  C   UNK N   1      31.930   8.499  21.072  0.00  0.00     0.027 A 
ENDBRANCH  24  26
ENDBRANCH  17  22
ENDBRANCH   2  15
BRANCH  13  29
HETATM   29  C   UNK N   1      35.405  12.624   9.075  0.00  0.00     0.168 C 
BRANCH  29  30
HETATM   30  C   UNK N   1      34.618  13.690   8.312  0.00  0.00     0.292 C 
BRANCH  30  31
HETATM   31  N   UNK N   1      34.428  14.930   9.065  0.00  0.00     0.094 N 
HETATM   32  C   UNK N   1      35.581  15.184   9.928  0.00  0.00     0.298 C 
HETATM   33  C   UNK N   1      35.375  16.520  10.643  0.00  0.00     0.198 C 
HETATM   34  O   UNK N   1      35.288  17.549   9.687  0.00  0.00    -0.388 OA
HETATM   35  C   UNK N   1      34.086  17.350   8.984  0.00  0.00     0.198 C 
HETATM   36  C   UNK N   1      34.187  16.064   8.166  0.00  0.00     0.298 C 
ENDBRANCH  30  31
ENDBRANCH  29  30
ENDBRANCH  13  29
TORSDOF 6
ENDMDL
MODEL 4
REMARK VINA RESULT:      -8.2      1.688      2.499
REMARK  6 active torsions:
REMARK  status: ('A' for Active; 'I' for Inactive)
REMARK    1  A    between atoms: C_1  and  C_2 
REMARK    2  A    between atoms: C_1  and  N_33 
REMARK    3  A    between atoms: C_2  and  N_20 
REMARK    4  A    between atoms: C_6  and  C_9 
REMARK    5  A    between atoms: C_11  and  C_13 
REMARK       I    between atoms: C_13  and  N_34 
REMARK    6  A    between atoms: C_14  and  N_34 
REMARK       I    between atoms: C_32  and  N_33 
ROOT
HETATM    1  C   UNK N   1      35.936  11.553  16.050  0.00  0.00     0.027 A 
HETATM    2  C   UNK N   1      34.997  10.512  16.059  0.00  0.00    -0.024 A 
HETATM    3  C   UNK N   1      34.025  10.478  15.040  0.00  0.00     0.014 A 
HETATM    4  C   UNK N   1      34.020  11.491  14.049  0.00  0.00     0.032 A 
HETATM    5  N   UNK N   1      36.990  14.405  14.109  0.00  0.00    -0.201 N 
ATOM      6  HN  UNK N   1      37.726  15.111  14.108  1.00  0.00     0.183 HD
HETATM    7  C   UNK N   1      36.950  13.478  15.094  0.00  0.00     0.120 A 
HETATM    8  C   UNK N   1      35.956  12.514  15.083  0.00  0.00     0.008 A 
HETATM    9  C   UNK N   1      35.006  12.500  14.068  0.00  0.00     0.060 A 
HETATM   10  N   UNK N   1      35.071  13.458  13.103  0.00  0.00    -0.191 N 
ATOM     11  HN  UNK N   1      34.376  13.470  12.357  1.00  0.00     0.184 HD
HETATM   12  C   UNK N   1      36.059  14.404  13.123  0.00  0.00     0.678 A 
HETATM   13  N   UNK N   1      36.113  15.409  12.126  0.00  0.00    -0.224 N 
HETATM   14  H   UNK N   1      36.928  15.953  12.034  0.00  0.00     0.177 HD
ENDROOT
BRANCH   2  15
HETATM   15  C   UNK N   1      35.220   9.472  17.108  0.00  0.00    -0.019 A 
HETATM   16  C   UNK N   1      35.087   9.947  18.405  0.00  0.00     0.029 A 
HETATM   17  C   UNK N   1      35.360   9.230  19.538  0.00  0.00     0.032 A 
HETATM   18  C   UNK N   1      35.802   7.905  19.386  0.00  0.00     0.017 A 
HETATM   19  C   UNK N   1      35.910   7.352  18.086  0.00  0.00     0.009 A 
HETATM   20  C   UNK N   1      35.616   8.126  16.937  0.00  0.00    -0.051 A 
HETATM   21  C   UNK N   1      35.789   7.515  15.586  0.00  0.00     0.049 C 
BRANCH  17  22
HETATM   22  C   UNK N   1      35.138   9.975  20.815  0.00  0.00     0.252 C 
HETATM   23  O   UNK N   1      33.983  10.219  21.140  0.00  0.00    -0.268 OA
HETATM   24  N   UNK N   1      36.120  10.445  21.616  0.00  0.00    -0.352 N 
HETATM   25  H   UNK N   1      35.847  10.838  22.477  0.00  0.00     0.163 HD
BRANCH  24  26
HETATM   26  C   UNK N   1      37.520  10.424  21.324  0.00  0.00     0.084 A 
HETATM   27  C   UNK N   1      38.268  10.789  22.594  0.00  0.00     0.027 A 
HETATM   28  C   UNK N   1      38.148   9.341  22.180  0.00  0.00     0.027 A 
ENDBRANCH  24  26
ENDBRANCH  17  22
ENDBRANCH   2  15
BRANCH  13  29
HETATM   29  C   UNK N   1      35.002  15.647  11.248  0.00  0.00     0.168 C 
BRANCH  29  30
HETATM   30  C   UNK N   1      35.434  15.303   9.822  0.00  0.00     0.292 C 
BRANCH  30  31
HETATM   31  N   UNK N   1      34.626  15.955   8.791  0.00  0.00     0.094 N 
HETATM   32  C   UNK N   1      34.670  17.408   8.952  0.00  0.00     0.298 C 
HETATM   33  C   UNK N   1      33.873  18.052   7.817  0.00  0.00     0.198 C 
HETATM   34  O   UNK N   1      34.463  17.714   6.586  0.00  0.00    -0.388 OA
HETATM   35  C   UNK N   1      34.259  16.334   6.403  0.00  0.00     0.198 C 
HETATM   36  C   UNK N   1      35.065  15.564   7.448  0.00  0.00     0.298 C 
ENDBRANCH  30  31
ENDBRANCH  29  30
ENDBRANCH  13  29
TORSDOF 6
ENDMDL
MODEL 5
REMARK VINA RESULT:      -8.2      4.142     12.353
REMARK  6 active torsions:
REMARK  status: ('A' for Active; 'I' for Inactive)
REMARK    1  A    between atoms: C_1  and  C_2 
REMARK    2  A    between atoms: C_1  and  N_33 
REMARK    3  A    between atoms: C_2  and  N_20 
REMARK    4  A    between atoms: C_6  and  C_9 
REMARK    5  A    between atoms: C_11  and  C_13 
REMARK       I    between atoms: C_13  and  N_34 
REMARK    6  A    between atoms: C_14  and  N_34 
REMARK       I    between atoms: C_32  and  N_33 
ROOT
HETATM    1  C   UNK N   1      33.290  16.813   8.182  0.00  0.00     0.027 A 
HETATM    2  C   UNK N   1      32.383  15.988   7.503  0.00  0.00    -0.024 A 
HETATM    3  C   UNK N   1      32.278  14.639   7.898  0.00  0.00     0.014 A 
HETATM    4  C   UNK N   1      33.089  14.159   8.956  0.00  0.00     0.032 A 
HETATM    5  N   UNK N   1      35.605  16.809  10.949  0.00  0.00    -0.201 N 
ATOM      6  HN  UNK N   1      36.210  17.457  11.453  1.00  0.00     0.183 HD
HETATM    7  C   UNK N   1      34.881  17.248   9.893  0.00  0.00     0.120 A 
HETATM    8  C   UNK N   1      34.052  16.366   9.221  0.00  0.00     0.008 A 
HETATM    9  C   UNK N   1      33.965  15.039   9.628  0.00  0.00     0.060 A 
HETATM   10  N   UNK N   1      34.719  14.632  10.685  0.00  0.00    -0.191 N 
ATOM     11  HN  UNK N   1      34.677  13.660  10.990  1.00  0.00     0.184 HD
HETATM   12  C   UNK N   1      35.533  15.513  11.343  0.00  0.00     0.678 A 
HETATM   13  N   UNK N   1      36.329  15.082  12.432  0.00  0.00    -0.224 N 
HETATM   14  H   UNK N   1      36.750  15.752  13.017  0.00  0.00     0.177 HD
ENDROOT
BRANCH   2  15
HETATM   15  C   UNK N   1      31.530  16.686   6.494  0.00  0.00    -0.019 A 
HETATM   16  C   UNK N   1      30.239  16.942   6.933  0.00  0.00     0.029 A 
HETATM   17  C   UNK N   1      29.232  17.456   6.161  0.00  0.00     0.032 A 
HETATM   18  C   UNK N   1      29.522  17.757   4.820  0.00  0.00     0.017 A 
HETATM   19  C   UNK N   1      30.837  17.560   4.331  0.00  0.00     0.009 A 
HETATM   20  C   UNK N   1      31.853  17.029   5.161  0.00  0.00    -0.051 A 
HETATM   21  C   UNK N   1      33.211  16.795   4.589  0.00  0.00     0.049 C 
BRANCH  17  22
HETATM   22  C   UNK N   1      27.930  17.634   6.874  0.00  0.00     0.252 C 
HETATM   23  O   UNK N   1      27.339  16.627   7.242  0.00  0.00    -0.268 OA
HETATM   24  N   UNK N   1      27.330  18.824   7.101  0.00  0.00    -0.352 N 
HETATM   25  H   UNK N   1      26.522  18.818   7.664  0.00  0.00     0.163 HD
BRANCH  24  26
HETATM   26  C   UNK N   1      27.765  20.089   6.597  0.00  0.00     0.084 A 
HETATM   27  C   UNK N   1      26.814  20.501   5.487  0.00  0.00     0.027 A 
HETATM   28  C   UNK N   1      26.661  21.093   6.868  0.00  0.00     0.027 A 
ENDBRANCH  24  26
ENDBRANCH  17  22
ENDBRANCH   2  15
BRANCH  13  29
HETATM   29  C   UNK N   1      36.532  13.685  12.699  0.00  0.00     0.168 C 
BRANCH  29  30
HETATM   30  C   UNK N   1      36.426  13.464  14.208  0.00  0.00     0.292 C 
BRANCH  30  31
HETATM   31  N   UNK N   1      35.828  12.179  14.571  0.00  0.00     0.094 N 
HETATM   32  C   UNK N   1      34.426  12.133  14.157  0.00  0.00     0.298 C 
HETATM   33  C   UNK N   1      33.860  10.752  14.491  0.00  0.00     0.198 C 
HETATM   34  O   UNK N   1      34.575   9.773  13.778  0.00  0.00    -0.388 OA
HETATM   35  C   UNK N   1      35.874   9.747  14.316  0.00  0.00     0.198 C 
HETATM   36  C   UNK N   1      36.581  11.061  13.991  0.00  0.00     0.298 C 
ENDBRANCH  30  31
ENDBRANCH  29  30
ENDBRANCH  13  29
TORSDOF 6
ENDMDL
MODEL 6
REMARK VINA RESULT:      -8.2      3.941     12.579
REMARK  6 active torsions:
REMARK  status: ('A' for Active; 'I' for Inactive)
REMARK    1  A    between atoms: C_1  and  C_2 
REMARK    2  A    between atoms: C_1  and  N_33 
REMARK    3  A    between atoms: C_2  and  N_20 
REMARK    4  A    between atoms: C_6  and  C_9 
REMARK    5  A    between atoms: C_11  and  C_13 
REMARK       I    between atoms: C_13  and  N_34 
REMARK    6  A    between atoms: C_14  and  N_34 
REMARK       I    between atoms: C_32  and  N_33 
ROOT
HETATM    1  C   UNK N   1      32.483  15.209   8.112  0.00  0.00     0.027 A 
HETATM    2  C   UNK N   1      32.520  16.591   7.882  0.00  0.00    -0.024 A 
HETATM    3  C   UNK N   1      33.410  17.374   8.643  0.00  0.00     0.014 A 
HETATM    4  C   UNK N   1      34.231  16.749   9.614  0.00  0.00     0.032 A 
HETATM    5  N   UNK N   1      34.086  12.611  10.035  0.00  0.00    -0.201 N 
ATOM      6  HN  UNK N   1      34.069  11.596  10.130  1.00  0.00     0.183 HD
HETATM    7  C   UNK N   1      33.254  13.218   9.158  0.00  0.00     0.120 A 
HETATM    8  C   UNK N   1      33.291  14.596   9.024  0.00  0.00     0.008 A 
HETATM    9  C   UNK N   1      34.177  15.349   9.786  0.00  0.00     0.060 A 
HETATM   10  N   UNK N   1      34.989  14.704  10.667  0.00  0.00    -0.191 N 
ATOM     11  HN  UNK N   1      35.637  15.241  11.243  1.00  0.00     0.184 HD
HETATM   12  C   UNK N   1      34.944  13.342  10.790  0.00  0.00     0.678 A 
HETATM   13  N   UNK N   1      35.779  12.675  11.720  0.00  0.00    -0.224 N 
HETATM   14  H   UNK N   1      35.884  11.698  11.659  0.00  0.00     0.177 HD
ENDROOT
BRANCH   2  15
HETATM   15  C   UNK N   1      31.672  17.062   6.745  0.00  0.00    -0.019 A 
HETATM   16  C   UNK N   1      30.336  17.236   7.077  0.00  0.00     0.029 A 
HETATM   17  C   UNK N   1      29.338  17.540   6.192  0.00  0.00     0.032 A 
HETATM   18  C   UNK N   1      29.684  17.698   4.840  0.00  0.00     0.017 A 
HETATM   19  C   UNK N   1      31.042  17.580   4.452  0.00  0.00     0.009 A 
HETATM   20  C   UNK N   1      32.048  17.266   5.398  0.00  0.00    -0.051 A 
HETATM   21  C   UNK N   1      33.457  17.106   4.934  0.00  0.00     0.049 C 
BRANCH  17  22
HETATM   22  C   UNK N   1      27.980  17.670   6.805  0.00  0.00     0.252 C 
HETATM   23  O   UNK N   1      27.396  16.641   7.122  0.00  0.00    -0.268 OA
HETATM   24  N   UNK N   1      27.325  18.837   6.993  0.00  0.00    -0.352 N 
HETATM   25  H   UNK N   1      26.478  18.801   7.492  0.00  0.00     0.163 HD
BRANCH  24  26
HETATM   26  C   UNK N   1      27.754  20.120   6.529  0.00  0.00     0.084 A 
HETATM   27  C   UNK N   1      26.807  20.559   5.426  0.00  0.00     0.027 A 
HETATM   28  C   UNK N   1      26.642  21.108   6.823  0.00  0.00     0.027 A 
ENDBRANCH  24  26
ENDBRANCH  17  22
ENDBRANCH   2  15
BRANCH  13  29
HETATM   29  C   UNK N   1      36.473  13.398  12.749  0.00  0.00     0.168 C 
BRANCH  29  30
HETATM   30  C   UNK N   1      36.909  12.402  13.825  0.00  0.00     0.292 C 
BRANCH  30  31
HETATM   31  N   UNK N   1      35.938  12.248  14.908  0.00  0.00     0.094 N 
HETATM   32  C   UNK N   1      36.266  11.079  15.724  0.00  0.00     0.298 C 
HETATM   33  C   UNK N   1      35.271  10.994  16.883  0.00  0.00     0.198 C 
HETATM   34  O   UNK N   1      35.385  12.149  17.678  0.00  0.00    -0.388 OA
HETATM   35  C   UNK N   1      34.913  13.224  16.903  0.00  0.00     0.198 C 
HETATM   36  C   UNK N   1      35.867  13.459  15.733  0.00  0.00     0.298 C 
ENDBRANCH  30  31
ENDBRANCH  29  30
ENDBRANCH  13  29
TORSDOF 6
ENDMDL
MODEL 7
REMARK VINA RESULT:      -7.8      1.821      2.352
REMARK  6 active torsions:
REMARK  status: ('A' for Active; 'I' for Inactive)
REMARK    1  A    between atoms: C_1  and  C_2 
REMARK    2  A    between atoms: C_1  and  N_33 
REMARK    3  A    between atoms: C_2  and  N_20 
REMARK    4  A    between atoms: C_6  and  C_9 
REMARK    5  A    between atoms: C_11  and  C_13 
REMARK       I    between atoms: C_13  and  N_34 
REMARK    6  A    between atoms: C_14  and  N_34 
REMARK       I    between atoms: C_32  and  N_33 
ROOT
HETATM    1  C   UNK N   1      35.934  12.561  15.115  0.00  0.00     0.027 A 
HETATM    2  C   UNK N   1      35.375  11.293  15.320  0.00  0.00    -0.024 A 
HETATM    3  C   UNK N   1      34.592  10.731  14.291  0.00  0.00     0.014 A 
HETATM    4  C   UNK N   1      34.390  11.460  13.093  0.00  0.00     0.032 A 
HETATM    5  N   UNK N   1      36.268  15.144  12.618  0.00  0.00    -0.201 N 
ATOM      6  HN  UNK N   1      36.741  16.038  12.488  1.00  0.00     0.183 HD
HETATM    7  C   UNK N   1      36.402  14.477  13.788  0.00  0.00     0.120 A 
HETATM    8  C   UNK N   1      35.769  13.256  13.953  0.00  0.00     0.008 A 
HETATM    9  C   UNK N   1      35.001  12.722  12.925  0.00  0.00     0.060 A 
HETATM   10  N   UNK N   1      34.879  13.429  11.768  0.00  0.00    -0.191 N 
ATOM     11  HN  UNK N   1      34.311  13.057  11.008  1.00  0.00     0.184 HD
HETATM   12  C   UNK N   1      35.511  14.632  11.616  0.00  0.00     0.678 A 
HETATM   13  N   UNK N   1      35.368  15.373  10.417  0.00  0.00    -0.224 N 
HETATM   14  H   UNK N   1      35.977  16.126  10.240  0.00  0.00     0.177 HD
ENDROOT
BRANCH   2  15
HETATM   15  C   UNK N   1      35.783  10.622  16.591  0.00  0.00    -0.019 A 
HETATM   16  C   UNK N   1      35.345  11.274  17.734  0.00  0.00     0.029 A 
HETATM   17  C   UNK N   1      35.688  10.934  19.015  0.00  0.00     0.032 A 
HETATM   18  C   UNK N   1      36.544   9.835  19.196  0.00  0.00     0.017 A 
HETATM   19  C   UNK N   1      36.984   9.102  18.066  0.00  0.00     0.009 A 
HETATM   20  C   UNK N   1      36.606   9.483  16.755  0.00  0.00    -0.051 A 
HETATM   21  C   UNK N   1      37.131   8.709  15.593  0.00  0.00     0.049 C 
BRANCH  17  22
HETATM   22  C   UNK N   1      35.082  11.801  20.072  0.00  0.00     0.252 C 
HETATM   23  O   UNK N   1      35.282  13.007  20.004  0.00  0.00    -0.268 OA
HETATM   24  N   UNK N   1      34.370  11.348  21.128  0.00  0.00    -0.352 N 
HETATM   25  H   UNK N   1      33.944  12.024  21.704  0.00  0.00     0.163 HD
BRANCH  24  26
HETATM   26  C   UNK N   1      34.182   9.976  21.483  0.00  0.00     0.084 A 
HETATM   27  C   UNK N   1      32.879   9.867  22.255  0.00  0.00     0.027 A 
HETATM   28  C   UNK N   1      32.922   9.494  20.792  0.00  0.00     0.027 A 
ENDBRANCH  24  26
ENDBRANCH  17  22
ENDBRANCH   2  15
BRANCH  13  29
HETATM   29  C   UNK N   1      34.353  15.046   9.456  0.00  0.00     0.168 C 
BRANCH  29  30
HETATM   30  C   UNK N   1      34.615  15.854   8.184  0.00  0.00     0.292 C 
BRANCH  30  31
HETATM   31  N   UNK N   1      33.429  16.033   7.348  0.00  0.00     0.094 N 
HETATM   32  C   UNK N   1      32.627  14.810   7.333  0.00  0.00     0.298 C 
HETATM   33  C   UNK N   1      31.364  15.061   6.507  0.00  0.00     0.198 C 
HETATM   34  O   UNK N   1      30.614  16.088   7.108  0.00  0.00    -0.388 OA
HETATM   35  C   UNK N   1      31.357  17.273   6.961  0.00  0.00     0.198 C 
HETATM   36  C   UNK N   1      32.629  17.177   7.800  0.00  0.00     0.298 C 
ENDBRANCH  30  31
ENDBRANCH  29  30
ENDBRANCH  13  29
TORSDOF 6
ENDMDL
MODEL 8
REMARK VINA RESULT:      -7.8      2.327      3.490
REMARK  6 active torsions:
REMARK  status: ('A' for Active; 'I' for Inactive)
REMARK    1  A    between atoms: C_1  and  C_2 
REMARK    2  A    between atoms: C_1  and  N_33 
REMARK    3  A    between atoms: C_2  and  N_20 
REMARK    4  A    between atoms: C_6  and  C_9 
REMARK    5  A    between atoms: C_11  and  C_13 
REMARK       I    between atoms: C_13  and  N_34 
REMARK    6  A    between atoms: C_14  and  N_34 
REMARK       I    between atoms: C_32  and  N_33 
ROOT
HETATM    1  C   UNK N   1      36.045  12.222  16.338  0.00  0.00     0.027 A 
HETATM    2  C   UNK N   1      35.278  11.075  16.584  0.00  0.00    -0.024 A 
HETATM    3  C   UNK N   1      34.344  10.672  15.608  0.00  0.00     0.014 A 
HETATM    4  C   UNK N   1      34.205  11.433  14.421  0.00  0.00     0.032 A 
HETATM    5  N   UNK N   1      36.690  14.716  13.812  0.00  0.00    -0.201 N 
ATOM      6  HN  UNK N   1      37.308  15.510  13.649  1.00  0.00     0.183 HD
HETATM    7  C   UNK N   1      36.772  14.028  14.975  0.00  0.00     0.120 A 
HETATM    8  C   UNK N   1      35.939  12.943  15.186  0.00  0.00     0.008 A 
HETATM    9  C   UNK N   1      35.024  12.563  14.209  0.00  0.00     0.060 A 
HETATM   10  N   UNK N   1      34.962  13.288  13.059  0.00  0.00    -0.191 N 
ATOM     11  HN  UNK N   1      34.290  13.031  12.337  1.00  0.00     0.184 HD
HETATM   12  C   UNK N   1      35.792  14.357  12.861  0.00  0.00     0.678 A 
HETATM   13  N   UNK N   1      35.713  15.119  11.670  0.00  0.00    -0.224 N 
HETATM   14  H   UNK N   1      36.436  15.750  11.452  0.00  0.00     0.177 HD
ENDROOT
BRANCH   2  15
HETATM   15  C   UNK N   1      35.635  10.333  17.831  0.00  0.00    -0.019 A 
HETATM   16  C   UNK N   1      35.935   8.996  17.620  0.00  0.00     0.029 A 
HETATM   17  C   UNK N   1      36.171   8.077  18.607  0.00  0.00     0.032 A 
HETATM   18  C   UNK N   1      36.115   8.515  19.940  0.00  0.00     0.017 A 
HETATM   19  C   UNK N   1      35.860   9.882  20.212  0.00  0.00     0.009 A 
HETATM   20  C   UNK N   1      35.622  10.804  19.164  0.00  0.00    -0.051 A 
HETATM   21  C   UNK N   1      35.312  12.224  19.501  0.00  0.00     0.049 C 
BRANCH  17  22
HETATM   22  C   UNK N   1      36.470   6.697  18.113  0.00  0.00     0.252 C 
HETATM   23  O   UNK N   1      35.544   5.899  18.054  0.00  0.00    -0.268 OA
HETATM   24  N   UNK N   1      37.699   6.247  17.773  0.00  0.00    -0.352 N 
HETATM   25  H   UNK N   1      37.752   5.349  17.373  0.00  0.00     0.163 HD
BRANCH  24  26
HETATM   26  C   UNK N   1      38.927   6.960  17.942  0.00  0.00     0.084 A 
HETATM   27  C   UNK N   1      39.994   6.252  17.127  0.00  0.00     0.027 A 
HETATM   28  C   UNK N   1      39.334   7.498  16.584  0.00  0.00     0.027 A 
ENDBRANCH  24  26
ENDBRANCH  17  22
ENDBRANCH   2  15
BRANCH  13  29
HETATM   29  C   UNK N   1      34.597  14.988  10.775  0.00  0.00     0.168 C 
BRANCH  29  30
HETATM   30  C   UNK N   1      35.126  15.021   9.340  0.00  0.00     0.292 C 
BRANCH  30  31
HETATM   31  N   UNK N   1      34.379  15.921   8.461  0.00  0.00     0.094 N 
HETATM   32  C   UNK N   1      34.560  17.311   8.882  0.00  0.00     0.298 C 
HETATM   33  C   UNK N   1      33.823  18.221   7.898  0.00  0.00     0.198 C 
HETATM   34  O   UNK N   1      34.375  18.060   6.615  0.00  0.00    -0.388 OA
HETATM   35  C   UNK N   1      34.042  16.761   6.189  0.00  0.00     0.198 C 
HETATM   36  C   UNK N   1      34.775  15.743   7.060  0.00  0.00     0.298 C 
ENDBRANCH  30  31
ENDBRANCH  29  30
ENDBRANCH  13  29
TORSDOF 6
ENDMDL
MODEL 9
REMARK VINA RESULT:      -7.5      1.865      2.677
REMARK  6 active torsions:
REMARK  status: ('A' for Active; 'I' for Inactive)
REMARK    1  A    between atoms: C_1  and  C_2 
REMARK    2  A    between atoms: C_1  and  N_33 
REMARK    3  A    between atoms: C_2  and  N_20 
REMARK    4  A    between atoms: C_6  and  C_9 
REMARK    5  A    between atoms: C_11  and  C_13 
REMARK       I    between atoms: C_13  and  N_34 
REMARK    6  A    between atoms: C_14  and  N_34 
REMARK       I    between atoms: C_32  and  N_33 
ROOT
HETATM    1  C   UNK N   1      35.325  10.440  14.573  0.00  0.00     0.027 A 
HETATM    2  C   UNK N   1      36.206  11.069  15.463  0.00  0.00    -0.024 A 
HETATM    3  C   UNK N   1      36.806  12.281  15.067  0.00  0.00     0.014 A 
HETATM    4  C   UNK N   1      36.508  12.821  13.792  0.00  0.00     0.032 A 
HETATM    5  N   UNK N   1      33.742  10.882  11.361  0.00  0.00    -0.201 N 
ATOM      6  HN  UNK N   1      33.052  10.421  10.769  1.00  0.00     0.183 HD
HETATM    7  C   UNK N   1      34.081  10.332  12.550  0.00  0.00     0.120 A 
HETATM    8  C   UNK N   1      35.010  10.968  13.356  0.00  0.00     0.008 A 
HETATM    9  C   UNK N   1      35.590  12.164  12.945  0.00  0.00     0.060 A 
HETATM   10  N   UNK N   1      35.233  12.679  11.737  0.00  0.00    -0.191 N 
ATOM     11  HN  UNK N   1      35.656  13.548  11.415  1.00  0.00     0.184 HD
HETATM   12  C   UNK N   1      34.313  12.041  10.950  0.00  0.00     0.678 A 
HETATM   13  N   UNK N   1      33.957  12.571   9.686  0.00  0.00    -0.224 N 
HETATM   14  H   UNK N   1      33.161  12.223   9.224  0.00  0.00     0.177 HD
ENDROOT
BRANCH   2  15
HETATM   15  C   UNK N   1      36.316  10.421  16.804  0.00  0.00    -0.019 A 
HETATM   16  C   UNK N   1      35.741  11.156  17.830  0.00  0.00     0.029 A 
HETATM   17  C   UNK N   1      35.815  10.843  19.161  0.00  0.00     0.032 A 
HETATM   18  C   UNK N   1      36.520   9.684  19.525  0.00  0.00     0.017 A 
HETATM   19  C   UNK N   1      37.086   8.869  18.514  0.00  0.00     0.009 A 
HETATM   20  C   UNK N   1      36.987   9.224  17.147  0.00  0.00    -0.051 A 
HETATM   21  C   UNK N   1      37.640   8.359  16.122  0.00  0.00     0.049 C 
BRANCH  17  22
HETATM   22  C   UNK N   1      35.111  11.803  20.066  0.00  0.00     0.252 C 
HETATM   23  O   UNK N   1      35.312  12.999  19.897  0.00  0.00    -0.268 OA
HETATM   24  N   UNK N   1      34.305  11.449  21.092  0.00  0.00    -0.352 N 
HETATM   25  H   UNK N   1      33.825  12.173  21.555  0.00  0.00     0.163 HD
BRANCH  24  26
HETATM   26  C   UNK N   1      34.089  10.117  21.563  0.00  0.00     0.084 A 
HETATM   27  C   UNK N   1      32.884  10.137  22.487  0.00  0.00     0.027 A 
HETATM   28  C   UNK N   1      32.731   9.668  21.059  0.00  0.00     0.027 A 
ENDBRANCH  24  26
ENDBRANCH  17  22
ENDBRANCH   2  15
BRANCH  13  29
HETATM   29  C   UNK N   1      34.736  13.607   9.067  0.00  0.00     0.168 C 
BRANCH  29  30
HETATM   30  C   UNK N   1      33.987  14.094   7.825  0.00  0.00     0.292 C 
BRANCH  30  31
HETATM   31  N   UNK N   1      33.729  15.534   7.824  0.00  0.00     0.094 N 
HETATM   32  C   UNK N   1      34.759  16.237   8.589  0.00  0.00     0.298 C 
HETATM   33  C   UNK N   1      34.493  17.741   8.504  0.00  0.00     0.198 C 
HETATM   34  O   UNK N   1      34.567  18.150   7.160  0.00  0.00    -0.388 OA
HETATM   35  C   UNK N   1      33.468  17.573   6.498  0.00  0.00     0.198 C 
HETATM   36  C   UNK N   1      33.646  16.056   6.456  0.00  0.00     0.298 C 
ENDBRANCH  30  31
ENDBRANCH  29  30
ENDBRANCH  13  29
TORSDOF 6
ENDMDL
