REMARK  4 active torsions:
REMARK  status: ('A' for Active; 'I' for Inactive)
REMARK    1  A    between atoms: C_4  and  N_24 
REMARK    2  A    between atoms: C_5  and  C_17 
REMARK    3  A    between atoms: C_6  and  N_24 
REMARK    4  A    between atoms: C_18  and  C_19 
ROOT
HETATM    1  C   UNK N   1      -2.022  -1.574  -0.150  0.00  0.00     0.036 A 
HETATM    2  C   UNK N   1      -4.255  -0.522  -0.194  0.00  0.00     0.146 A 
HETATM    3  C   UNK N   1      -2.167  -0.439   0.653  0.00  0.00     0.051 A 
HETATM    4  C   UNK N   1       0.158  -0.546   1.180  0.00  0.00     0.017 A 
HETATM    5  C   UNK N   1      -1.087   0.065   1.358  0.00  0.00     0.032 A 
HETATM    6  C   UNK N   1      -0.799  -2.215  -0.325  0.00  0.00     0.035 A 
HETATM    7  C   UNK N   1       0.320  -1.655   0.317  0.00  0.00     0.002 A 
HETATM    8  N   UNK N   1      -3.407   0.151   0.630  0.00  0.00    -0.336 N 
ATOM      9  HN  UNK N   1      -3.659   0.984   1.161  1.00  0.00     0.168 HD
HETATM   10  S   UNK N   1      -3.484  -1.830  -0.871  0.00  0.00    -0.052 SA
ENDROOT
BRANCH   7  11
HETATM   11  C   UNK N   1       1.675  -2.149   0.007  0.00  0.00     0.114 A 
HETATM   12  C   UNK N   1       2.846  -1.411  -0.131  0.00  0.00     0.082 A 
HETATM   13  N   UNK N   1       3.847  -2.277  -0.387  0.00  0.00    -0.344 N 
HETATM   14  C   UNK N   1       3.263  -3.494  -0.428  0.00  0.00     0.234 A 
ATOM     15  HN  UNK N   1       4.835  -2.059  -0.521  1.00  0.00     0.167 HD
HETATM   16  O   UNK N   1       1.965  -3.406  -0.208  0.00  0.00    -0.303 OA
BRANCH  12  17
HETATM   17  C   UNK N   1       3.024   0.073  -0.158  0.00  0.00     0.032 A 
HETATM   18  C   UNK N   1       4.298   0.665  -0.053  0.00  0.00     0.129 A 
HETATM   19  C   UNK N   1       4.436   2.057  -0.117  0.00  0.00     0.043 A 
HETATM   20  F   UNK N   1       5.406  -0.096   0.126  0.00  0.00    -0.205 F 
HETATM   21  C   UNK N   1       3.317   2.873  -0.300  0.00  0.00     0.003 A 
HETATM   22  C   UNK N   1       2.055   2.299  -0.429  0.00  0.00     0.001 A 
HETATM   23  C   UNK N   1       1.917   0.914  -0.364  0.00  0.00     0.017 A 
ENDBRANCH  12  17
ENDBRANCH   7  11
BRANCH   2  24
HETATM   24  N   UNK N   1      -5.550  -0.066  -0.543  0.00  0.00    -0.367 N 
HETATM   25  H   UNK N   1      -6.122  -0.647  -1.095  0.00  0.00     0.162 HD
BRANCH  24  26
HETATM   26  C   UNK N   1      -6.068   1.219  -0.120  0.00  0.00     0.075 C 
HETATM   27  C   UNK N   1      -6.199   1.288   1.390  0.00  0.00     0.032 C 
HETATM   28  C   UNK N   1      -5.191   2.355  -0.627  0.00  0.00     0.032 C 
ENDBRANCH  24  26
ENDBRANCH   2  24
TORSDOF 4
