MODEL 1
REMARK VINA RESULT:      -7.4      0.000      0.000
REMARK  4 active torsions:
REMARK  status: ('A' for Active; 'I' for Inactive)
REMARK    1  A    between atoms: C_4  and  N_24 
REMARK    2  A    between atoms: C_5  and  C_17 
REMARK    3  A    between atoms: C_6  and  N_24 
REMARK    4  A    between atoms: C_18  and  C_19 
ROOT
HETATM    1  C   UNK N   1      33.681  15.834   9.426  0.00  0.00     0.036 A 
HETATM    2  C   UNK N   1      35.495  15.643  11.089  0.00  0.00     0.146 A 
HETATM    3  C   UNK N   1      34.606  16.881   9.428  0.00  0.00     0.051 A 
HETATM    4  C   UNK N   1      33.289  18.013   7.791  0.00  0.00     0.017 A 
HETATM    5  C   UNK N   1      34.441  17.965   8.582  0.00  0.00     0.032 A 
HETATM    6  C   UNK N   1      32.538  15.846   8.632  0.00  0.00     0.035 A 
HETATM    7  C   UNK N   1      32.319  16.985   7.836  0.00  0.00     0.002 A 
HETATM    8  N   UNK N   1      35.616  16.780  10.353  0.00  0.00    -0.336 N 
ATOM      9  HN  UNK N   1      36.360  17.468  10.472  1.00  0.00     0.168 HD
HETATM   10  S   UNK N   1      34.168  14.774  10.594  0.00  0.00    -0.052 SA
ENDROOT
BRANCH   7  11
HETATM   11  C   UNK N   1      31.032  17.163   7.137  0.00  0.00     0.114 A 
HETATM   12  C   UNK N   1      30.682  16.730   5.862  0.00  0.00     0.082 A 
HETATM   13  N   UNK N   1      29.400  17.088   5.647  0.00  0.00    -0.344 N 
HETATM   14  C   UNK N   1      29.021  17.744   6.765  0.00  0.00     0.234 A 
ATOM     15  HN  UNK N   1      28.836  16.902   4.817  1.00  0.00     0.167 HD
HETATM   16  O   UNK N   1      30.006  17.798   7.641  0.00  0.00    -0.303 OA
BRANCH  12  17
HETATM   17  C   UNK N   1      31.546  16.116   4.808  0.00  0.00     0.032 A 
HETATM   18  C   UNK N   1      32.349  16.904   3.961  0.00  0.00     0.129 A 
HETATM   19  C   UNK N   1      33.174  16.297   3.007  0.00  0.00     0.043 A 
HETATM   20  F   UNK N   1      32.328  18.257   4.043  0.00  0.00    -0.205 F 
HETATM   21  C   UNK N   1      33.222  14.905   2.892  0.00  0.00     0.003 A 
HETATM   22  C   UNK N   1      32.451  14.114   3.739  0.00  0.00     0.001 A 
HETATM   23  C   UNK N   1      31.628  14.718   4.688  0.00  0.00     0.017 A 
ENDBRANCH  12  17
ENDBRANCH   7  11
BRANCH   2  24
HETATM   24  N   UNK N   1      36.294  15.341  12.219  0.00  0.00    -0.367 N 
HETATM   25  H   UNK N   1      36.983  15.988  12.497  0.00  0.00     0.162 HD
BRANCH  24  26
HETATM   26  C   UNK N   1      36.139  14.121  12.985  0.00  0.00     0.075 C 
HETATM   27  C   UNK N   1      36.921  12.980  12.363  0.00  0.00     0.032 C 
HETATM   28  C   UNK N   1      36.564  14.327  14.432  0.00  0.00     0.032 C 
ENDBRANCH  24  26
ENDBRANCH   2  24
TORSDOF 4
ENDMDL
MODEL 2
REMARK VINA RESULT:      -7.2      2.135      3.880
REMARK  4 active torsions:
REMARK  status: ('A' for Active; 'I' for Inactive)
REMARK    1  A    between atoms: C_4  and  N_24 
REMARK    2  A    between atoms: C_5  and  C_17 
REMARK    3  A    between atoms: C_6  and  N_24 
REMARK    4  A    between atoms: C_18  and  C_19 
ROOT
HETATM    1  C   UNK N   1      34.559  15.687  10.046  0.00  0.00     0.036 A 
HETATM    2  C   UNK N   1      35.807  14.658  11.911  0.00  0.00     0.146 A 
HETATM    3  C   UNK N   1      34.261  14.345  10.300  0.00  0.00     0.051 A 
HETATM    4  C   UNK N   1      32.840  14.325   8.383  0.00  0.00     0.017 A 
HETATM    5  C   UNK N   1      33.368  13.660   9.494  0.00  0.00     0.032 A 
HETATM    6  C   UNK N   1      34.029  16.379   8.960  0.00  0.00     0.035 A 
HETATM    7  C   UNK N   1      33.191  15.662   8.087  0.00  0.00     0.002 A 
HETATM    8  N   UNK N   1      34.954  13.768  11.335  0.00  0.00    -0.336 N 
ATOM      9  HN  UNK N   1      34.844  12.799  11.633  1.00  0.00     0.168 HD
HETATM   10  S   UNK N   1      35.693  16.135  11.157  0.00  0.00    -0.052 SA
ENDROOT
BRANCH   7  11
HETATM   11  C   UNK N   1      32.768  16.264   6.808  0.00  0.00     0.114 A 
HETATM   12  C   UNK N   1      31.648  17.050   6.559  0.00  0.00     0.082 A 
HETATM   13  N   UNK N   1      31.676  17.401   5.257  0.00  0.00    -0.344 N 
HETATM   14  C   UNK N   1      32.777  16.804   4.751  0.00  0.00     0.234 A 
ATOM     15  HN  UNK N   1      31.009  17.992   4.761  1.00  0.00     0.167 HD
HETATM   16  O   UNK N   1      33.413  16.115   5.680  0.00  0.00    -0.303 OA
BRANCH  12  17
HETATM   17  C   UNK N   1      30.502  17.367   7.464  0.00  0.00     0.032 A 
HETATM   18  C   UNK N   1      30.660  18.198   8.591  0.00  0.00     0.129 A 
HETATM   19  C   UNK N   1      29.559  18.505   9.400  0.00  0.00     0.043 A 
HETATM   20  F   UNK N   1      31.875  18.702   8.918  0.00  0.00    -0.205 F 
HETATM   21  C   UNK N   1      28.292  18.004   9.094  0.00  0.00     0.003 A 
HETATM   22  C   UNK N   1      28.118  17.200   7.970  0.00  0.00     0.001 A 
HETATM   23  C   UNK N   1      29.213  16.893   7.165  0.00  0.00     0.017 A 
ENDBRANCH  12  17
ENDBRANCH   7  11
BRANCH   2  24
HETATM   24  N   UNK N   1      36.765  14.315  12.896  0.00  0.00    -0.367 N 
HETATM   25  H   UNK N   1      37.721  14.393  12.673  0.00  0.00     0.162 HD
BRANCH  24  26
HETATM   26  C   UNK N   1      36.396  13.856  14.220  0.00  0.00     0.075 C 
HETATM   27  C   UNK N   1      36.783  12.403  14.424  0.00  0.00     0.032 C 
HETATM   28  C   UNK N   1      37.028  14.727  15.296  0.00  0.00     0.032 C 
ENDBRANCH  24  26
ENDBRANCH   2  24
TORSDOF 4
ENDMDL
MODEL 3
REMARK VINA RESULT:      -7.1      2.104      3.943
REMARK  4 active torsions:
REMARK  status: ('A' for Active; 'I' for Inactive)
REMARK    1  A    between atoms: C_4  and  N_24 
REMARK    2  A    between atoms: C_5  and  C_17 
REMARK    3  A    between atoms: C_6  and  N_24 
REMARK    4  A    between atoms: C_18  and  C_19 
ROOT
HETATM    1  C   UNK N   1      34.523  15.654  10.058  0.00  0.00     0.036 A 
HETATM    2  C   UNK N   1      35.773  14.609  11.912  0.00  0.00     0.146 A 
HETATM    3  C   UNK N   1      34.291  14.288  10.244  0.00  0.00     0.051 A 
HETATM    4  C   UNK N   1      32.927  14.279   8.286  0.00  0.00     0.017 A 
HETATM    5  C   UNK N   1      33.459  13.593   9.382  0.00  0.00     0.032 A 
HETATM    6  C   UNK N   1      33.986  16.365   8.989  0.00  0.00     0.035 A 
HETATM    7  C   UNK N   1      33.213  15.646   8.060  0.00  0.00     0.002 A 
HETATM    8  N   UNK N   1      34.986  13.702  11.273  0.00  0.00    -0.336 N 
ATOM      9  HN  UNK N   1      34.921  12.716  11.525  1.00  0.00     0.168 HD
HETATM   10  S   UNK N   1      35.600  16.111  11.221  0.00  0.00    -0.052 SA
ENDROOT
BRANCH   7  11
HETATM   11  C   UNK N   1      32.793  16.282   6.796  0.00  0.00     0.114 A 
HETATM   12  C   UNK N   1      31.709  17.125   6.580  0.00  0.00     0.082 A 
HETATM   13  N   UNK N   1      31.727  17.489   5.282  0.00  0.00    -0.344 N 
HETATM   14  C   UNK N   1      32.785  16.843   4.746  0.00  0.00     0.234 A 
ATOM     15  HN  UNK N   1      31.079  18.118   4.806  1.00  0.00     0.167 HD
HETATM   16  O   UNK N   1      33.405  16.113   5.653  0.00  0.00    -0.303 OA
BRANCH  12  17
HETATM   17  C   UNK N   1      30.600  17.489   7.514  0.00  0.00     0.032 A 
HETATM   18  C   UNK N   1      29.290  17.003   7.328  0.00  0.00     0.129 A 
HETATM   19  C   UNK N   1      28.280  17.333   8.240  0.00  0.00     0.043 A 
HETATM   20  F   UNK N   1      28.982  16.224   6.262  0.00  0.00    -0.205 F 
HETATM   21  C   UNK N   1      28.561  18.133   9.350  0.00  0.00     0.003 A 
HETATM   22  C   UNK N   1      29.856  18.601   9.558  0.00  0.00     0.001 A 
HETATM   23  C   UNK N   1      30.861  18.274   8.650  0.00  0.00     0.017 A 
ENDBRANCH  12  17
ENDBRANCH   7  11
BRANCH   2  24
HETATM   24  N   UNK N   1      36.721  14.272  12.910  0.00  0.00    -0.367 N 
HETATM   25  H   UNK N   1      37.590  14.734  12.910  0.00  0.00     0.162 HD
BRANCH  24  26
HETATM   26  C   UNK N   1      36.463  13.279  13.932  0.00  0.00     0.075 C 
HETATM   27  C   UNK N   1      37.253  12.009  13.675  0.00  0.00     0.032 C 
HETATM   28  C   UNK N   1      36.776  13.825  15.317  0.00  0.00     0.032 C 
ENDBRANCH  24  26
ENDBRANCH   2  24
TORSDOF 4
ENDMDL
MODEL 4
REMARK VINA RESULT:      -7.1      5.479     10.627
REMARK  4 active torsions:
REMARK  status: ('A' for Active; 'I' for Inactive)
REMARK    1  A    between atoms: C_4  and  N_24 
REMARK    2  A    between atoms: C_5  and  C_17 
REMARK    3  A    between atoms: C_6  and  N_24 
REMARK    4  A    between atoms: C_18  and  C_19 
ROOT
HETATM    1  C   UNK N   1      25.406  18.484   4.230  0.00  0.00     0.036 A 
HETATM    2  C   UNK N   1      23.756  20.081   3.324  0.00  0.00     0.146 A 
HETATM    3  C   UNK N   1      25.916  19.734   3.868  0.00  0.00     0.051 A 
HETATM    4  C   UNK N   1      28.116  18.951   4.361  0.00  0.00     0.017 A 
HETATM    5  C   UNK N   1      27.273  19.994   3.967  0.00  0.00     0.032 A 
HETATM    6  C   UNK N   1      26.221  17.437   4.649  0.00  0.00     0.035 A 
HETATM    7  C   UNK N   1      27.609  17.666   4.665  0.00  0.00     0.002 A 
HETATM    8  N   UNK N   1      25.002  20.625   3.361  0.00  0.00    -0.336 N 
ATOM      9  HN  UNK N   1      25.228  21.571   3.054  1.00  0.00     0.168 HD
HETATM   10  S   UNK N   1      23.786  18.529   3.919  0.00  0.00    -0.052 SA
ENDROOT
BRANCH   7  11
HETATM   11  C   UNK N   1      28.542  16.546   4.889  0.00  0.00     0.114 A 
HETATM   12  C   UNK N   1      29.237  16.228   6.051  0.00  0.00     0.082 A 
HETATM   13  N   UNK N   1      29.949  15.109   5.808  0.00  0.00    -0.344 N 
HETATM   14  C   UNK N   1      29.696  14.799   4.518  0.00  0.00     0.234 A 
ATOM     15  HN  UNK N   1      30.550  14.604   6.460  1.00  0.00     0.167 HD
HETATM   16  O   UNK N   1      28.869  15.671   3.974  0.00  0.00    -0.303 OA
BRANCH  12  17
HETATM   17  C   UNK N   1      29.351  17.007   7.321  0.00  0.00     0.032 A 
HETATM   18  C   UNK N   1      30.564  17.608   7.712  0.00  0.00     0.129 A 
HETATM   19  C   UNK N   1      30.630  18.362   8.890  0.00  0.00     0.043 A 
HETATM   20  F   UNK N   1      31.687  17.455   6.967  0.00  0.00    -0.205 F 
HETATM   21  C   UNK N   1      29.494  18.540   9.683  0.00  0.00     0.003 A 
HETATM   22  C   UNK N   1      28.283  17.972   9.296  0.00  0.00     0.001 A 
HETATM   23  C   UNK N   1      28.217  17.220   8.124  0.00  0.00     0.017 A 
ENDBRANCH  12  17
ENDBRANCH   7  11
BRANCH   2  24
HETATM   24  N   UNK N   1      22.639  20.699   2.710  0.00  0.00    -0.367 N 
HETATM   25  H   UNK N   1      22.687  21.660   2.500  0.00  0.00     0.162 HD
BRANCH  24  26
HETATM   26  C   UNK N   1      21.430  19.975   2.375  0.00  0.00     0.075 C 
HETATM   27  C   UNK N   1      20.372  20.147   3.449  0.00  0.00     0.032 C 
HETATM   28  C   UNK N   1      20.886  20.415   1.023  0.00  0.00     0.032 C 
ENDBRANCH  24  26
ENDBRANCH   2  24
TORSDOF 4
ENDMDL
MODEL 5
REMARK VINA RESULT:      -7.0      8.261     13.742
REMARK  4 active torsions:
REMARK  status: ('A' for Active; 'I' for Inactive)
REMARK    1  A    between atoms: C_4  and  N_24 
REMARK    2  A    between atoms: C_5  and  C_17 
REMARK    3  A    between atoms: C_6  and  N_24 
REMARK    4  A    between atoms: C_18  and  C_19 
ROOT
HETATM    1  C   UNK N   1      35.278  11.389  16.727  0.00  0.00     0.036 A 
HETATM    2  C   UNK N   1      35.175  12.554  14.553  0.00  0.00     0.146 A 
HETATM    3  C   UNK N   1      35.115  12.776  16.796  0.00  0.00     0.051 A 
HETATM    4  C   UNK N   1      35.297  12.653  19.173  0.00  0.00     0.017 A 
HETATM    5  C   UNK N   1      35.084  13.419  18.022  0.00  0.00     0.032 A 
HETATM    6  C   UNK N   1      35.468  10.601  17.859  0.00  0.00     0.035 A 
HETATM    7  C   UNK N   1      35.527  11.259  19.100  0.00  0.00     0.002 A 
HETATM    8  N   UNK N   1      35.060  13.428  15.589  0.00  0.00    -0.336 N 
ATOM      9  HN  UNK N   1      34.947  14.436  15.483  1.00  0.00     0.168 HD
HETATM   10  S   UNK N   1      35.331  11.001  15.125  0.00  0.00    -0.052 SA
ENDROOT
BRANCH   7  11
HETATM   11  C   UNK N   1      35.937  10.522  20.310  0.00  0.00     0.114 A 
HETATM   12  C   UNK N   1      35.255   9.502  20.966  0.00  0.00     0.082 A 
HETATM   13  N   UNK N   1      36.015   9.105  22.006  0.00  0.00    -0.344 N 
HETATM   14  C   UNK N   1      37.105   9.901  21.975  0.00  0.00     0.234 A 
ATOM     15  HN  UNK N   1      35.809   8.362  22.675  1.00  0.00     0.167 HD
HETATM   16  O   UNK N   1      37.043  10.754  20.970  0.00  0.00    -0.303 OA
BRANCH  12  17
HETATM   17  C   UNK N   1      33.872   8.989  20.722  0.00  0.00     0.032 A 
HETATM   18  C   UNK N   1      32.739   9.655  21.228  0.00  0.00     0.129 A 
HETATM   19  C   UNK N   1      31.454   9.169  20.953  0.00  0.00     0.043 A 
HETATM   20  F   UNK N   1      32.869  10.764  21.998  0.00  0.00    -0.205 F 
HETATM   21  C   UNK N   1      31.281   8.030  20.164  0.00  0.00     0.003 A 
HETATM   22  C   UNK N   1      32.392   7.376  19.639  0.00  0.00     0.001 A 
HETATM   23  C   UNK N   1      33.670   7.858  19.913  0.00  0.00     0.017 A 
ENDBRANCH  12  17
ENDBRANCH   7  11
BRANCH   2  24
HETATM   24  N   UNK N   1      35.310  12.944  13.198  0.00  0.00    -0.367 N 
HETATM   25  H   UNK N   1      34.629  12.647  12.552  0.00  0.00     0.162 HD
BRANCH  24  26
HETATM   26  C   UNK N   1      36.408  13.761  12.724  0.00  0.00     0.075 C 
HETATM   27  C   UNK N   1      37.243  13.018  11.699  0.00  0.00     0.032 C 
HETATM   28  C   UNK N   1      35.900  15.073  12.142  0.00  0.00     0.032 C 
ENDBRANCH  24  26
ENDBRANCH   2  24
TORSDOF 4
ENDMDL
MODEL 6
REMARK VINA RESULT:      -6.9      6.836     10.183
REMARK  4 active torsions:
REMARK  status: ('A' for Active; 'I' for Inactive)
REMARK    1  A    between atoms: C_4  and  N_24 
REMARK    2  A    between atoms: C_5  and  C_17 
REMARK    3  A    between atoms: C_6  and  N_24 
REMARK    4  A    between atoms: C_18  and  C_19 
ROOT
HETATM    1  C   UNK N   1      25.859  18.467   4.302  0.00  0.00     0.036 A 
HETATM    2  C   UNK N   1      28.155  18.158   5.154  0.00  0.00     0.146 A 
HETATM    3  C   UNK N   1      26.783  19.437   3.903  0.00  0.00     0.051 A 
HETATM    4  C   UNK N   1      25.020  20.645   2.842  0.00  0.00     0.017 A 
HETATM    5  C   UNK N   1      26.381  20.517   3.136  0.00  0.00     0.032 A 
HETATM    6  C   UNK N   1      24.503  18.559   4.003  0.00  0.00     0.035 A 
HETATM    7  C   UNK N   1      24.073  19.699   3.300  0.00  0.00     0.002 A 
HETATM    8  N   UNK N   1      28.062  19.271   4.377  0.00  0.00    -0.336 N 
ATOM      9  HN  UNK N   1      28.839  19.898   4.172  1.00  0.00     0.168 HD
HETATM   10  S   UNK N   1      26.683  17.391   5.242  0.00  0.00    -0.052 SA
ENDROOT
BRANCH   7  11
HETATM   11  C   UNK N   1      22.632  19.968   3.137  0.00  0.00     0.114 A 
HETATM   12  C   UNK N   1      21.563  19.289   3.712  0.00  0.00     0.082 A 
HETATM   13  N   UNK N   1      20.429  19.895   3.307  0.00  0.00    -0.344 N 
HETATM   14  C   UNK N   1      20.830  20.889   2.485  0.00  0.00     0.234 A 
ATOM     15  HN  UNK N   1      19.471  19.654   3.566  1.00  0.00     0.167 HD
HETATM   16  O   UNK N   1      22.145  20.914   2.377  0.00  0.00    -0.303 OA
BRANCH  12  17
HETATM   17  C   UNK N   1      21.572  18.028   4.514  0.00  0.00     0.032 A 
HETATM   18  C   UNK N   1      21.623  16.762   3.898  0.00  0.00     0.129 A 
HETATM   19  C   UNK N   1      21.666  15.600   4.677  0.00  0.00     0.043 A 
HETATM   20  F   UNK N   1      21.616  16.646   2.547  0.00  0.00    -0.205 F 
HETATM   21  C   UNK N   1      21.674  15.681   6.072  0.00  0.00     0.003 A 
HETATM   22  C   UNK N   1      21.648  16.926   6.693  0.00  0.00     0.001 A 
HETATM   23  C   UNK N   1      21.604  18.083   5.918  0.00  0.00     0.017 A 
ENDBRANCH  12  17
ENDBRANCH   7  11
BRANCH   2  24
HETATM   24  N   UNK N   1      29.304  17.811   5.907  0.00  0.00    -0.367 N 
HETATM   25  H   UNK N   1      30.177  17.787   5.452  0.00  0.00     0.162 HD
BRANCH  24  26
HETATM   26  C   UNK N   1      29.248  17.493   7.320  0.00  0.00     0.075 C 
HETATM   27  C   UNK N   1      30.595  17.015   7.829  0.00  0.00     0.032 C 
HETATM   28  C   UNK N   1      28.771  18.690   8.130  0.00  0.00     0.032 C 
ENDBRANCH  24  26
ENDBRANCH   2  24
TORSDOF 4
ENDMDL
MODEL 7
REMARK VINA RESULT:      -6.8      3.195      7.467
REMARK  4 active torsions:
REMARK  status: ('A' for Active; 'I' for Inactive)
REMARK    1  A    between atoms: C_4  and  N_24 
REMARK    2  A    between atoms: C_5  and  C_17 
REMARK    3  A    between atoms: C_6  and  N_24 
REMARK    4  A    between atoms: C_18  and  C_19 
ROOT
HETATM    1  C   UNK N   1      29.198  17.056   6.773  0.00  0.00     0.036 A 
HETATM    2  C   UNK N   1      27.047  18.019   6.035  0.00  0.00     0.146 A 
HETATM    3  C   UNK N   1      28.715  18.113   7.549  0.00  0.00     0.051 A 
HETATM    4  C   UNK N   1      30.726  18.054   8.833  0.00  0.00     0.017 A 
HETATM    5  C   UNK N   1      29.457  18.599   8.613  0.00  0.00     0.032 A 
HETATM    6  C   UNK N   1      30.447  16.480   6.986  0.00  0.00     0.035 A 
HETATM    7  C   UNK N   1      31.243  17.029   8.007  0.00  0.00     0.002 A 
HETATM    8  N   UNK N   1      27.520  18.654   7.141  0.00  0.00    -0.336 N 
ATOM      9  HN  UNK N   1      27.049  19.429   7.607  1.00  0.00     0.168 HD
HETATM   10  S   UNK N   1      28.086  16.803   5.579  0.00  0.00    -0.052 SA
ENDROOT
BRANCH   7  11
HETATM   11  C   UNK N   1      32.652  16.616   8.149  0.00  0.00     0.114 A 
HETATM   12  C   UNK N   1      33.583  16.383   7.141  0.00  0.00     0.082 A 
HETATM   13  N   UNK N   1      34.750  16.054   7.731  0.00  0.00    -0.344 N 
HETATM   14  C   UNK N   1      34.494  16.065   9.057  0.00  0.00     0.234 A 
ATOM     15  HN  UNK N   1      35.637  15.842   7.273  1.00  0.00     0.167 HD
HETATM   16  O   UNK N   1      33.236  16.385   9.296  0.00  0.00    -0.303 OA
BRANCH  12  17
HETATM   17  C   UNK N   1      33.374  16.336   5.662  0.00  0.00     0.032 A 
HETATM   18  C   UNK N   1      33.336  15.114   4.962  0.00  0.00     0.129 A 
HETATM   19  C   UNK N   1      33.104  15.100   3.581  0.00  0.00     0.043 A 
HETATM   20  F   UNK N   1      33.537  13.937   5.604  0.00  0.00    -0.205 F 
HETATM   21  C   UNK N   1      32.893  16.292   2.885  0.00  0.00     0.003 A 
HETATM   22  C   UNK N   1      32.905  17.505   3.569  0.00  0.00     0.001 A 
HETATM   23  C   UNK N   1      33.137  17.520   4.943  0.00  0.00     0.017 A 
ENDBRANCH  12  17
ENDBRANCH   7  11
BRANCH   2  24
HETATM   24  N   UNK N   1      25.920  18.451   5.294  0.00  0.00    -0.367 N 
HETATM   25  H   UNK N   1      25.030  18.393   5.712  0.00  0.00     0.162 HD
BRANCH  24  26
HETATM   26  C   UNK N   1      26.022  18.976   3.948  0.00  0.00     0.075 C 
HETATM   27  C   UNK N   1      24.717  19.610   3.505  0.00  0.00     0.032 C 
HETATM   28  C   UNK N   1      27.161  19.980   3.838  0.00  0.00     0.032 C 
ENDBRANCH  24  26
ENDBRANCH   2  24
TORSDOF 4
ENDMDL
MODEL 8
REMARK VINA RESULT:      -6.8      3.703      9.045
REMARK  4 active torsions:
REMARK  status: ('A' for Active; 'I' for Inactive)
REMARK    1  A    between atoms: C_4  and  N_24 
REMARK    2  A    between atoms: C_5  and  C_17 
REMARK    3  A    between atoms: C_6  and  N_24 
REMARK    4  A    between atoms: C_18  and  C_19 
ROOT
HETATM    1  C   UNK N   1      33.919  14.902   9.830  0.00  0.00     0.036 A 
HETATM    2  C   UNK N   1      32.746  16.743   8.678  0.00  0.00     0.146 A 
HETATM    3  C   UNK N   1      34.452  16.177  10.039  0.00  0.00     0.051 A 
HETATM    4  C   UNK N   1      36.245  15.198  11.272  0.00  0.00     0.017 A 
HETATM    5  C   UNK N   1      35.600  16.343  10.795  0.00  0.00     0.032 A 
HETATM    6  C   UNK N   1      34.529  13.748  10.315  0.00  0.00     0.035 A 
HETATM    7  C   UNK N   1      35.743  13.903  11.007  0.00  0.00     0.002 A 
HETATM    8  N   UNK N   1      33.804  17.204   9.398  0.00  0.00    -0.336 N 
ATOM      9  HN  UNK N   1      34.080  18.184   9.454  1.00  0.00     0.168 HD
HETATM   10  S   UNK N   1      32.611  15.094   8.843  0.00  0.00    -0.052 SA
ENDROOT
BRANCH   7  11
HETATM   11  C   UNK N   1      36.550  12.719  11.359  0.00  0.00     0.114 A 
HETATM   12  C   UNK N   1      36.600  12.046  12.576  0.00  0.00     0.082 A 
HETATM   13  N   UNK N   1      37.450  11.009  12.434  0.00  0.00    -0.344 N 
HETATM   14  C   UNK N   1      37.910  11.096  11.168  0.00  0.00     0.234 A 
ATOM     15  HN  UNK N   1      37.693  10.308  13.135  1.00  0.00     0.167 HD
HETATM   16  O   UNK N   1      37.380  12.128  10.539  0.00  0.00    -0.303 OA
BRANCH  12  17
HETATM   17  C   UNK N   1      35.981  12.422  13.883  0.00  0.00     0.032 A 
HETATM   18  C   UNK N   1      34.722  11.924  14.274  0.00  0.00     0.129 A 
HETATM   19  C   UNK N   1      34.184  12.266  15.520  0.00  0.00     0.043 A 
HETATM   20  F   UNK N   1      34.005  11.122  13.448  0.00  0.00    -0.205 F 
HETATM   21  C   UNK N   1      34.894  13.091  16.397  0.00  0.00     0.003 A 
HETATM   22  C   UNK N   1      36.149  13.570  16.033  0.00  0.00     0.001 A 
HETATM   23  C   UNK N   1      36.684  13.231  14.792  0.00  0.00     0.017 A 
ENDBRANCH  12  17
ENDBRANCH   7  11
BRANCH   2  24
HETATM   24  N   UNK N   1      31.984  17.540   7.789  0.00  0.00    -0.367 N 
HETATM   25  H   UNK N   1      31.984  18.517   7.913  0.00  0.00     0.162 HD
BRANCH  24  26
HETATM   26  C   UNK N   1      31.205  16.978   6.704  0.00  0.00     0.075 C 
HETATM   27  C   UNK N   1      29.763  17.445   6.764  0.00  0.00     0.032 C 
HETATM   28  C   UNK N   1      31.818  17.325   5.355  0.00  0.00     0.032 C 
ENDBRANCH  24  26
ENDBRANCH   2  24
TORSDOF 4
ENDMDL
MODEL 9
REMARK VINA RESULT:      -6.6      7.141      9.613
REMARK  4 active torsions:
REMARK  status: ('A' for Active; 'I' for Inactive)
REMARK    1  A    between atoms: C_4  and  N_24 
REMARK    2  A    between atoms: C_5  and  C_17 
REMARK    3  A    between atoms: C_6  and  N_24 
REMARK    4  A    between atoms: C_18  and  C_19 
ROOT
HETATM    1  C   UNK N   1      25.047  14.411   6.805  0.00  0.00     0.036 A 
HETATM    2  C   UNK N   1      23.123  13.299   7.879  0.00  0.00     0.146 A 
HETATM    3  C   UNK N   1      23.799  14.982   6.541  0.00  0.00     0.051 A 
HETATM    4  C   UNK N   1      24.844  16.500   5.023  0.00  0.00     0.017 A 
HETATM    5  C   UNK N   1      23.689  16.059   5.676  0.00  0.00     0.032 A 
HETATM    6  C   UNK N   1      26.215  14.847   6.186  0.00  0.00     0.035 A 
HETATM    7  C   UNK N   1      26.097  15.881   5.240  0.00  0.00     0.002 A 
HETATM    8  N   UNK N   1      22.725  14.366   7.135  0.00  0.00    -0.336 N 
ATOM      9  HN  UNK N   1      21.757  14.668   7.031  1.00  0.00     0.168 HD
HETATM   10  S   UNK N   1      24.775  13.132   7.811  0.00  0.00    -0.052 SA
ENDROOT
BRANCH   7  11
HETATM   11  C   UNK N   1      27.249  16.245   4.394  0.00  0.00     0.114 A 
HETATM   12  C   UNK N   1      27.972  17.433   4.396  0.00  0.00     0.082 A 
HETATM   13  N   UNK N   1      28.953  17.316   3.479  0.00  0.00    -0.344 N 
HETATM   14  C   UNK N   1      28.784  16.093   2.931  0.00  0.00     0.234 A 
ATOM     15  HN  UNK N   1      29.671  18.004   3.248  1.00  0.00     0.167 HD
HETATM   16  O   UNK N   1      27.755  15.468   3.472  0.00  0.00    -0.303 OA
BRANCH  12  17
HETATM   17  C   UNK N   1      27.691  18.704   5.131  0.00  0.00     0.032 A 
HETATM   18  C   UNK N   1      27.947  18.830   6.510  0.00  0.00     0.129 A 
HETATM   19  C   UNK N   1      27.706  20.045   7.164  0.00  0.00     0.043 A 
HETATM   20  F   UNK N   1      28.416  17.780   7.230  0.00  0.00    -0.205 F 
HETATM   21  C   UNK N   1      27.223  21.148   6.456  0.00  0.00     0.003 A 
HETATM   22  C   UNK N   1      26.988  21.043   5.087  0.00  0.00     0.001 A 
HETATM   23  C   UNK N   1      27.226  19.834   4.437  0.00  0.00     0.017 A 
ENDBRANCH  12  17
ENDBRANCH   7  11
BRANCH   2  24
HETATM   24  N   UNK N   1      22.232  12.376   8.482  0.00  0.00    -0.367 N 
HETATM   25  H   UNK N   1      21.987  11.563   7.983  0.00  0.00     0.162 HD
BRANCH  24  26
HETATM   26  C   UNK N   1      21.670  12.579   9.801  0.00  0.00     0.075 C 
HETATM   27  C   UNK N   1      22.745  12.526  10.871  0.00  0.00     0.032 C 
HETATM   28  C   UNK N   1      20.914  13.898   9.876  0.00  0.00     0.032 C 
ENDBRANCH  24  26
ENDBRANCH   2  24
TORSDOF 4
ENDMDL
