MODEL 1
REMARK VINA RESULT:      -7.6      0.000      0.000
REMARK  3 active torsions:
REMARK  status: ('A' for Active; 'I' for Inactive)
REMARK       I    between atoms: C_9  and  N_20 
REMARK       I    between atoms: C_12  and  N_13 
REMARK    1  A    between atoms: N_13  and  C_14 
REMARK    2  A    between atoms: N_20  and  C_21 
REMARK    3  A    between atoms: C_21  and  C_22 
ROOT
HETATM    1  N   UNK N   1      33.152  14.533   7.301  0.00  0.00    -0.288 N 
ATOM      2  HN  UNK N   1      33.503  13.737   7.836  1.00  0.00     0.187 HD
HETATM    3  C   UNK N   1      33.401  14.794   5.984  0.00  0.00     0.135 A 
HETATM    4  C   UNK N   1      32.750  15.992   5.662  0.00  0.00     0.108 A 
HETATM    5  C   UNK N   1      32.134  16.365   6.793  0.00  0.00     0.182 A 
HETATM    6  N   UNK N   1      32.370  15.503   7.758  0.00  0.00    -0.067 N 
HETATM    7  N   UNK N   1      31.360  17.428   6.969  0.00  0.00    -0.172 N 
ATOM      8  HN  UNK N   1      31.209  18.092   6.211  1.00  0.00     0.186 HD
HETATM    9  C   UNK N   1      30.772  17.613   8.178  0.00  0.00     0.694 A 
HETATM   10  N   UNK N   1      31.055  16.775   9.217  0.00  0.00    -0.020 N 
ATOM     11  HN  UNK N   1      30.651  16.943  10.138  1.00  0.00     0.203 HD
HETATM   12  C   UNK N   1      31.880  15.720   9.015  0.00  0.00     0.720 A 
HETATM   13  N   UNK N   1      32.430  15.019  10.106  0.00  0.00    -0.189 N 
HETATM   14  N   UNK N   1      29.516  18.172   8.145  0.00  0.00    -0.225 N 
HETATM   15  C   UNK N   1      32.688  16.747   4.438  0.00  0.00     0.105 C 
HETATM   16  N   UNK N   1      32.648  17.340   3.445  0.00  0.00    -0.191 NA
HETATM   17  H   UNK N   1      31.888  14.591  10.809  0.00  0.00     0.184 HD
HETATM   18  H   UNK N   1      29.233  18.939   8.694  0.00  0.00     0.177 HD
ENDROOT
BRANCH  14  19
HETATM   19  C   UNK N   1      28.669  17.489   7.204  0.00  0.00     0.142 C 
BRANCH  19  20
HETATM   20  C   UNK N   1      27.969  18.444   6.342  0.00  0.00     0.004 C 
HETATM   21  C   UNK N   1      27.909  19.809   6.973  0.00  0.00     0.006 C 
HETATM   22  C   UNK N   1      26.745  20.487   6.278  0.00  0.00     0.000 C 
HETATM   23  C   UNK N   1      26.987  20.562   4.762  0.00  0.00     0.000 C 
HETATM   24  C   UNK N   1      27.455  19.234   4.134  0.00  0.00     0.000 C 
HETATM   25  C   UNK N   1      28.554  18.578   4.958  0.00  0.00     0.006 C 
ENDBRANCH  19  20
ENDBRANCH  14  19
BRANCH  13  26
HETATM   26  C   UNK N   1      33.841  14.999  10.083  0.00  0.00     0.049 A 
HETATM   27  C   UNK N   1      34.575  16.172  10.219  0.00  0.00     0.030 A 
HETATM   28  C   UNK N   1      35.940  16.076  10.528  0.00  0.00     0.002 A 
HETATM   29  C   UNK N   1      36.545  14.824  10.742  0.00  0.00     0.000 A 
HETATM   30  C   UNK N   1      35.816  13.652  10.581  0.00  0.00     0.002 A 
HETATM   31  C   UNK N   1      34.482  13.745  10.245  0.00  0.00     0.030 A 
ENDBRANCH  13  26
TORSDOF 3
ENDMDL
MODEL 2
REMARK VINA RESULT:      -7.5      4.732      9.624
REMARK  3 active torsions:
REMARK  status: ('A' for Active; 'I' for Inactive)
REMARK       I    between atoms: C_9  and  N_20 
REMARK       I    between atoms: C_12  and  N_13 
REMARK    1  A    between atoms: N_13  and  C_14 
REMARK    2  A    between atoms: N_20  and  C_21 
REMARK    3  A    between atoms: C_21  and  C_22 
ROOT
HETATM    1  N   UNK N   1      37.213  14.939  10.213  0.00  0.00    -0.288 N 
ATOM      2  HN  UNK N   1      37.141  15.948  10.077  1.00  0.00     0.187 HD
HETATM    3  C   UNK N   1      38.224  14.134   9.775  0.00  0.00     0.135 A 
HETATM    4  C   UNK N   1      37.913  12.822  10.154  0.00  0.00     0.108 A 
HETATM    5  C   UNK N   1      36.751  12.920  10.814  0.00  0.00     0.182 A 
HETATM    6  N   UNK N   1      36.339  14.168  10.851  0.00  0.00    -0.067 N 
HETATM    7  N   UNK N   1      36.075  11.937  11.396  0.00  0.00    -0.172 N 
ATOM      8  HN  UNK N   1      36.404  10.974  11.336  1.00  0.00     0.186 HD
HETATM    9  C   UNK N   1      34.938  12.238  12.071  0.00  0.00     0.694 A 
HETATM   10  N   UNK N   1      34.449  13.512  12.065  0.00  0.00    -0.020 N 
ATOM     11  HN  UNK N   1      33.569  13.729  12.532  1.00  0.00     0.203 HD
HETATM   12  C   UNK N   1      35.143  14.487  11.431  0.00  0.00     0.720 A 
HETATM   13  N   UNK N   1      34.541  15.727  11.144  0.00  0.00    -0.189 N 
HETATM   14  N   UNK N   1      34.697  11.478  13.191  0.00  0.00    -0.225 N 
HETATM   15  C   UNK N   1      38.601  11.576   9.940  0.00  0.00     0.105 C 
HETATM   16  N   UNK N   1      39.169  10.584   9.758  0.00  0.00    -0.191 NA
HETATM   17  H   UNK N   1      34.147  16.314  11.830  0.00  0.00     0.184 HD
HETATM   18  H   UNK N   1      33.841  11.032  13.389  0.00  0.00     0.177 HD
ENDROOT
BRANCH  14  19
HETATM   19  C   UNK N   1      35.857  11.420  14.038  0.00  0.00     0.142 C 
BRANCH  19  20
HETATM   20  C   UNK N   1      35.514  11.761  15.421  0.00  0.00     0.004 C 
HETATM   21  C   UNK N   1      36.187  10.834  16.396  0.00  0.00     0.006 C 
HETATM   22  C   UNK N   1      35.344  10.941  17.652  0.00  0.00     0.000 C 
HETATM   23  C   UNK N   1      35.312  12.392  18.161  0.00  0.00     0.000 C 
HETATM   24  C   UNK N   1      35.013  13.436  17.066  0.00  0.00     0.000 C 
HETATM   25  C   UNK N   1      35.833  13.184  15.809  0.00  0.00     0.006 C 
ENDBRANCH  19  20
ENDBRANCH  14  19
BRANCH  13  26
HETATM   26  C   UNK N   1      34.561  16.037   9.767  0.00  0.00     0.049 A 
HETATM   27  C   UNK N   1      34.015  15.167   8.830  0.00  0.00     0.030 A 
HETATM   28  C   UNK N   1      33.752  15.650   7.540  0.00  0.00     0.002 A 
HETATM   29  C   UNK N   1      33.993  16.997   7.211  0.00  0.00     0.000 A 
HETATM   30  C   UNK N   1      34.562  17.858   8.141  0.00  0.00     0.002 A 
HETATM   31  C   UNK N   1      34.851  17.375   9.399  0.00  0.00     0.030 A 
ENDBRANCH  13  26
TORSDOF 3
ENDMDL
MODEL 3
REMARK VINA RESULT:      -7.3      9.372     12.071
REMARK  3 active torsions:
REMARK  status: ('A' for Active; 'I' for Inactive)
REMARK       I    between atoms: C_9  and  N_20 
REMARK       I    between atoms: C_12  and  N_13 
REMARK    1  A    between atoms: N_13  and  C_14 
REMARK    2  A    between atoms: N_20  and  C_21 
REMARK    3  A    between atoms: C_21  and  C_22 
ROOT
HETATM    1  N   UNK N   1      22.985  15.996   3.414  0.00  0.00    -0.288 N 
ATOM      2  HN  UNK N   1      23.672  16.717   3.191  1.00  0.00     0.187 HD
HETATM    3  C   UNK N   1      22.566  14.994   2.588  0.00  0.00     0.135 A 
HETATM    4  C   UNK N   1      21.604  14.250   3.282  0.00  0.00     0.108 A 
HETATM    5  C   UNK N   1      21.519  14.833   4.486  0.00  0.00     0.182 A 
HETATM    6  N   UNK N   1      22.335  15.861   4.564  0.00  0.00    -0.067 N 
HETATM    7  N   UNK N   1      20.758  14.456   5.506  0.00  0.00    -0.172 N 
ATOM      8  HN  UNK N   1      20.119  13.667   5.413  1.00  0.00     0.186 HD
HETATM    9  C   UNK N   1      20.849  15.139   6.674  0.00  0.00     0.694 A 
HETATM   10  N   UNK N   1      21.633  16.253   6.762  0.00  0.00    -0.020 N 
ATOM     11  HN  UNK N   1      21.663  16.794   7.626  1.00  0.00     0.203 HD
HETATM   12  C   UNK N   1      22.369  16.634   5.691  0.00  0.00     0.720 A 
HETATM   13  N   UNK N   1      22.945  17.918   5.636  0.00  0.00    -0.189 N 
HETATM   14  N   UNK N   1      20.699  14.385   7.814  0.00  0.00    -0.225 N 
HETATM   15  C   UNK N   1      20.818  13.107   2.896  0.00  0.00     0.105 C 
HETATM   16  N   UNK N   1      20.195  12.188   2.569  0.00  0.00    -0.191 NA
HETATM   17  H   UNK N   1      23.567  18.266   6.315  0.00  0.00     0.184 HD
HETATM   18  H   UNK N   1      20.096  14.614   8.558  0.00  0.00     0.177 HD
ENDROOT
BRANCH  14  19
HETATM   19  C   UNK N   1      21.537  13.217   7.777  0.00  0.00     0.142 C 
BRANCH  19  20
HETATM   20  C   UNK N   1      21.722  12.663   9.120  0.00  0.00     0.004 C 
HETATM   21  C   UNK N   1      23.151  12.793   9.574  0.00  0.00     0.006 C 
HETATM   22  C   UNK N   1      23.293  11.740  10.655  0.00  0.00     0.000 C 
HETATM   23  C   UNK N   1      22.299  11.999  11.799  0.00  0.00     0.000 C 
HETATM   24  C   UNK N   1      20.858  12.279  11.326  0.00  0.00     0.000 C 
HETATM   25  C   UNK N   1      20.825  13.269  10.172  0.00  0.00     0.006 C 
ENDBRANCH  19  20
ENDBRANCH  14  19
BRANCH  13  26
HETATM   26  C   UNK N   1      22.533  18.651   4.503  0.00  0.00     0.049 A 
HETATM   27  C   UNK N   1      21.191  18.953   4.296  0.00  0.00     0.030 A 
HETATM   28  C   UNK N   1      20.865  19.950   3.365  0.00  0.00     0.002 A 
HETATM   29  C   UNK N   1      21.871  20.662   2.687  0.00  0.00     0.000 A 
HETATM   30  C   UNK N   1      23.210  20.341   2.876  0.00  0.00     0.002 A 
HETATM   31  C   UNK N   1      23.530  19.339   3.767  0.00  0.00     0.030 A 
ENDBRANCH  13  26
TORSDOF 3
ENDMDL
MODEL 4
REMARK VINA RESULT:      -7.3      2.944      8.477
REMARK  3 active torsions:
REMARK  status: ('A' for Active; 'I' for Inactive)
REMARK       I    between atoms: C_9  and  N_20 
REMARK       I    between atoms: C_12  and  N_13 
REMARK    1  A    between atoms: N_13  and  C_14 
REMARK    2  A    between atoms: N_20  and  C_21 
REMARK    3  A    between atoms: C_21  and  C_22 
ROOT
HETATM    1  N   UNK N   1      33.997  14.795   7.107  0.00  0.00    -0.288 N 
ATOM      2  HN  UNK N   1      34.142  15.394   6.294  1.00  0.00     0.187 HD
HETATM    3  C   UNK N   1      33.558  13.502   7.091  0.00  0.00     0.135 A 
HETATM    4  C   UNK N   1      33.480  13.068   8.421  0.00  0.00     0.108 A 
HETATM    5  C   UNK N   1      33.896  14.112   9.151  0.00  0.00     0.182 A 
HETATM    6  N   UNK N   1      34.203  15.129   8.376  0.00  0.00    -0.067 N 
HETATM    7  N   UNK N   1      34.028  14.165  10.470  0.00  0.00    -0.172 N 
ATOM      8  HN  UNK N   1      33.763  13.369  11.051  1.00  0.00     0.186 HD
HETATM    9  C   UNK N   1      34.521  15.297  11.031  0.00  0.00     0.694 A 
HETATM   10  N   UNK N   1      34.780  16.392  10.259  0.00  0.00    -0.020 N 
ATOM     11  HN  UNK N   1      35.105  17.258  10.688  1.00  0.00     0.203 HD
HETATM   12  C   UNK N   1      34.600  16.319   8.919  0.00  0.00     0.720 A 
HETATM   13  N   UNK N   1      34.563  17.487   8.134  0.00  0.00    -0.189 N 
HETATM   14  N   UNK N   1      35.308  15.112  12.143  0.00  0.00    -0.225 N 
HETATM   15  C   UNK N   1      33.061  11.815   8.994  0.00  0.00     0.105 C 
HETATM   16  N   UNK N   1      32.722  10.801   9.437  0.00  0.00    -0.191 NA
HETATM   17  H   UNK N   1      35.295  18.146   8.102  0.00  0.00     0.184 HD
HETATM   18  H   UNK N   1      35.196  15.598  12.992  0.00  0.00     0.177 HD
ENDROOT
BRANCH  14  19
HETATM   19  C   UNK N   1      36.316  14.115  11.904  0.00  0.00     0.142 C 
BRANCH  19  20
HETATM   20  C   UNK N   1      36.626  13.379  13.132  0.00  0.00     0.004 C 
HETATM   21  C   UNK N   1      35.483  13.437  14.108  0.00  0.00     0.006 C 
HETATM   22  C   UNK N   1      36.125  13.144  15.450  0.00  0.00     0.000 C 
HETATM   23  C   UNK N   1      36.804  11.764  15.436  0.00  0.00     0.000 C 
HETATM   24  C   UNK N   1      37.694  11.514  14.202  0.00  0.00     0.000 C 
HETATM   25  C   UNK N   1      37.002  11.934  12.913  0.00  0.00     0.006 C 
ENDBRANCH  19  20
ENDBRANCH  14  19
BRANCH  13  26
HETATM   26  C   UNK N   1      33.364  17.613   7.401  0.00  0.00     0.049 A 
HETATM   27  C   UNK N   1      33.366  17.555   6.012  0.00  0.00     0.030 A 
HETATM   28  C   UNK N   1      32.148  17.346   5.348  0.00  0.00     0.002 A 
HETATM   29  C   UNK N   1      30.957  17.153   6.071  0.00  0.00     0.000 A 
HETATM   30  C   UNK N   1      30.953  17.237   7.457  0.00  0.00     0.002 A 
HETATM   31  C   UNK N   1      32.144  17.475   8.109  0.00  0.00     0.030 A 
ENDBRANCH  13  26
TORSDOF 3
ENDMDL
MODEL 5
REMARK VINA RESULT:      -7.2      4.976      7.479
REMARK  3 active torsions:
REMARK  status: ('A' for Active; 'I' for Inactive)
REMARK       I    between atoms: C_9  and  N_20 
REMARK       I    between atoms: C_12  and  N_13 
REMARK    1  A    between atoms: N_13  and  C_14 
REMARK    2  A    between atoms: N_20  and  C_21 
REMARK    3  A    between atoms: C_21  and  C_22 
ROOT
HETATM    1  N   UNK N   1      28.538  18.706   4.667  0.00  0.00    -0.288 N 
ATOM      2  HN  UNK N   1      29.480  18.672   5.058  1.00  0.00     0.187 HD
HETATM    3  C   UNK N   1      27.950  19.782   4.068  0.00  0.00     0.135 A 
HETATM    4  C   UNK N   1      26.652  19.403   3.701  0.00  0.00     0.108 A 
HETATM    5  C   UNK N   1      26.547  18.121   4.079  0.00  0.00     0.182 A 
HETATM    6  N   UNK N   1      27.660  17.710   4.646  0.00  0.00    -0.067 N 
HETATM    7  N   UNK N   1      25.505  17.318   3.907  0.00  0.00    -0.172 N 
ATOM      8  HN  UNK N   1      24.646  17.667   3.483  1.00  0.00     0.186 HD
HETATM    9  C   UNK N   1      25.604  16.026   4.308  0.00  0.00     0.694 A 
HETATM   10  N   UNK N   1      26.718  15.591   4.964  0.00  0.00    -0.020 N 
ATOM     11  HN  UNK N   1      26.773  14.633   5.306  1.00  0.00     0.203 HD
HETATM   12  C   UNK N   1      27.752  16.445   5.156  0.00  0.00     0.720 A 
HETATM   13  N   UNK N   1      28.776  16.138   6.073  0.00  0.00    -0.189 N 
HETATM   14  N   UNK N   1      24.939  15.112   3.525  0.00  0.00    -0.225 N 
HETATM   15  C   UNK N   1      25.587  20.132   3.064  0.00  0.00     0.105 C 
HETATM   16  N   UNK N   1      24.742  20.734   2.550  0.00  0.00    -0.191 NA
HETATM   17  H   UNK N   1      29.326  15.323   6.024  0.00  0.00     0.184 HD
HETATM   18  H   UNK N   1      24.329  14.420   3.871  0.00  0.00     0.177 HD
ENDROOT
BRANCH  14  19
HETATM   19  C   UNK N   1      25.251  15.297   2.133  0.00  0.00     0.142 C 
BRANCH  19  20
HETATM   20  C   UNK N   1      24.917  14.100   1.358  0.00  0.00     0.004 C 
HETATM   21  C   UNK N   1      25.159  12.847   2.156  0.00  0.00     0.006 C 
HETATM   22  C   UNK N   1      25.307  11.763   1.106  0.00  0.00     0.000 C 
HETATM   23  C   UNK N   1      24.036  11.663   0.247  0.00  0.00     0.000 C 
HETATM   24  C   UNK N   1      23.518  13.021  -0.267  0.00  0.00     0.000 C 
HETATM   25  C   UNK N   1      23.502  14.072   0.834  0.00  0.00     0.006 C 
ENDBRANCH  19  20
ENDBRANCH  14  19
BRANCH  13  26
HETATM   26  C   UNK N   1      28.925  17.125   7.072  0.00  0.00     0.049 A 
HETATM   27  C   UNK N   1      27.865  17.466   7.904  0.00  0.00     0.030 A 
HETATM   28  C   UNK N   1      28.139  18.184   9.077  0.00  0.00     0.002 A 
HETATM   29  C   UNK N   1      29.460  18.513   9.430  0.00  0.00     0.000 A 
HETATM   30  C   UNK N   1      30.515  18.194   8.585  0.00  0.00     0.002 A 
HETATM   31  C   UNK N   1      30.243  17.516   7.415  0.00  0.00     0.030 A 
ENDBRANCH  13  26
TORSDOF 3
ENDMDL
MODEL 6
REMARK VINA RESULT:      -7.0      8.330     10.996
REMARK  3 active torsions:
REMARK  status: ('A' for Active; 'I' for Inactive)
REMARK       I    between atoms: C_9  and  N_20 
REMARK       I    between atoms: C_12  and  N_13 
REMARK    1  A    between atoms: N_13  and  C_14 
REMARK    2  A    between atoms: N_20  and  C_21 
REMARK    3  A    between atoms: C_21  and  C_22 
ROOT
HETATM    1  N   UNK N   1      24.515  15.755   3.328  0.00  0.00    -0.288 N 
ATOM      2  HN  UNK N   1      25.360  16.327   3.334  1.00  0.00     0.187 HD
HETATM    3  C   UNK N   1      24.131  14.890   2.345  0.00  0.00     0.135 A 
HETATM    4  C   UNK N   1      22.903  14.335   2.728  0.00  0.00     0.108 A 
HETATM    5  C   UNK N   1      22.635  14.880   3.922  0.00  0.00     0.182 A 
HETATM    6  N   UNK N   1      23.587  15.716   4.277  0.00  0.00    -0.067 N 
HETATM    7  N   UNK N   1      21.588  14.632   4.699  0.00  0.00    -0.172 N 
ATOM      8  HN  UNK N   1      20.853  13.996   4.392  1.00  0.00     0.186 HD
HETATM    9  C   UNK N   1      21.515  15.241   5.909  0.00  0.00     0.694 A 
HETATM   10  N   UNK N   1      22.450  16.167   6.272  0.00  0.00    -0.020 N 
ATOM     11  HN  UNK N   1      22.368  16.659   7.161  1.00  0.00     0.203 HD
HETATM   12  C   UNK N   1      23.487  16.426   5.441  0.00  0.00     0.720 A 
HETATM   13  N   UNK N   1      24.293  17.565   5.631  0.00  0.00    -0.189 N 
HETATM   14  N   UNK N   1      20.946  14.494   6.913  0.00  0.00    -0.225 N 
HETATM   15  C   UNK N   1      22.034  13.392   2.073  0.00  0.00     0.105 C 
HETATM   16  N   UNK N   1      21.349  12.633   1.532  0.00  0.00    -0.191 NA
HETATM   17  H   UNK N   1      24.782  17.754   6.465  0.00  0.00     0.184 HD
HETATM   18  H   UNK N   1      20.233  14.817   7.511  0.00  0.00     0.177 HD
ENDROOT
BRANCH  14  19
HETATM   19  C   UNK N   1      21.529  13.182   6.977  0.00  0.00     0.142 C 
BRANCH  19  20
HETATM   20  C   UNK N   1      21.644  12.727   8.365  0.00  0.00     0.004 C 
HETATM   21  C   UNK N   1      23.080  12.489   8.746  0.00  0.00     0.006 C 
HETATM   22  C   UNK N   1      22.998  11.545   9.929  0.00  0.00     0.000 C 
HETATM   23  C   UNK N   1      22.194  12.182  11.076  0.00  0.00     0.000 C 
HETATM   24  C   UNK N   1      20.859  12.812  10.632  0.00  0.00     0.000 C 
HETATM   25  C   UNK N   1      21.024  13.658   9.377  0.00  0.00     0.006 C 
ENDBRANCH  19  20
ENDBRANCH  14  19
BRANCH  13  26
HETATM   26  C   UNK N   1      24.321  18.406   4.498  0.00  0.00     0.049 A 
HETATM   27  C   UNK N   1      23.157  18.988   4.010  0.00  0.00     0.030 A 
HETATM   28  C   UNK N   1      23.269  20.063   3.116  0.00  0.00     0.002 A 
HETATM   29  C   UNK N   1      24.529  20.572   2.753  0.00  0.00     0.000 A 
HETATM   30  C   UNK N   1      25.692  19.972   3.222  0.00  0.00     0.002 A 
HETATM   31  C   UNK N   1      25.583  18.896   4.076  0.00  0.00     0.030 A 
ENDBRANCH  13  26
TORSDOF 3
ENDMDL
MODEL 7
REMARK VINA RESULT:      -7.0     12.438     16.734
REMARK  3 active torsions:
REMARK  status: ('A' for Active; 'I' for Inactive)
REMARK       I    between atoms: C_9  and  N_20 
REMARK       I    between atoms: C_12  and  N_13 
REMARK    1  A    between atoms: N_13  and  C_14 
REMARK    2  A    between atoms: N_20  and  C_21 
REMARK    3  A    between atoms: C_21  and  C_22 
ROOT
HETATM    1  N   UNK N   1      26.525  24.513  -4.234  0.00  0.00    -0.288 N 
ATOM      2  HN  UNK N   1      25.577  24.877  -4.338  1.00  0.00     0.187 HD
HETATM    3  C   UNK N   1      27.182  24.291  -3.058  0.00  0.00     0.135 A 
HETATM    4  C   UNK N   1      28.461  23.815  -3.373  0.00  0.00     0.108 A 
HETATM    5  C   UNK N   1      28.488  23.758  -4.711  0.00  0.00     0.182 A 
HETATM    6  N   UNK N   1      27.346  24.168  -5.219  0.00  0.00    -0.067 N 
HETATM    7  N   UNK N   1      29.487  23.332  -5.475  0.00  0.00    -0.172 N 
ATOM      8  HN  UNK N   1      30.370  23.039  -5.058  1.00  0.00     0.186 HD
HETATM    9  C   UNK N   1      29.310  23.294  -6.819  0.00  0.00     0.694 A 
HETATM   10  N   UNK N   1      28.163  23.780  -7.377  0.00  0.00    -0.020 N 
ATOM     11  HN  UNK N   1      28.050  23.795  -8.390  1.00  0.00     0.203 HD
HETATM   12  C   UNK N   1      27.177  24.243  -6.573  0.00  0.00     0.720 A 
HETATM   13  N   UNK N   1      26.125  25.017  -7.100  0.00  0.00    -0.189 N 
HETATM   14  N   UNK N   1      29.933  22.255  -7.468  0.00  0.00    -0.225 N 
HETATM   15  C   UNK N   1      29.574  23.442  -2.540  0.00  0.00     0.105 C 
HETATM   16  N   UNK N   1      30.459  23.147  -1.854  0.00  0.00    -0.191 NA
HETATM   17  H   UNK N   1      25.530  24.709  -7.822  0.00  0.00     0.184 HD
HETATM   18  H   UNK N   1      30.498  22.357  -8.269  0.00  0.00     0.177 HD
ENDROOT
BRANCH  14  19
HETATM   19  C   UNK N   1      29.652  20.999  -6.827  0.00  0.00     0.142 C 
BRANCH  19  20
HETATM   20  C   UNK N   1      30.888  20.352  -6.379  0.00  0.00     0.004 C 
HETATM   21  C   UNK N   1      32.061  20.768  -7.225  0.00  0.00     0.006 C 
HETATM   22  C   UNK N   1      33.076  19.661  -7.021  0.00  0.00     0.000 C 
HETATM   23  C   UNK N   1      33.451  19.535  -5.535  0.00  0.00     0.000 C 
HETATM   24  C   UNK N   1      32.240  19.512  -4.582  0.00  0.00     0.000 C 
HETATM   25  C   UNK N   1      31.228  20.595  -4.929  0.00  0.00     0.006 C 
ENDBRANCH  19  20
ENDBRANCH  14  19
BRANCH  13  26
HETATM   26  C   UNK N   1      26.016  26.280  -6.481  0.00  0.00     0.049 A 
HETATM   27  C   UNK N   1      24.952  26.574  -5.635  0.00  0.00     0.030 A 
HETATM   28  C   UNK N   1      25.055  27.689  -4.791  0.00  0.00     0.002 A 
HETATM   29  C   UNK N   1      26.226  28.469  -4.765  0.00  0.00     0.000 A 
HETATM   30  C   UNK N   1      27.277  28.190  -5.630  0.00  0.00     0.002 A 
HETATM   31  C   UNK N   1      27.163  27.113  -6.483  0.00  0.00     0.030 A 
ENDBRANCH  13  26
TORSDOF 3
ENDMDL
MODEL 8
REMARK VINA RESULT:      -6.9     13.789     17.466
REMARK  3 active torsions:
REMARK  status: ('A' for Active; 'I' for Inactive)
REMARK       I    between atoms: C_9  and  N_20 
REMARK       I    between atoms: C_12  and  N_13 
REMARK    1  A    between atoms: N_13  and  C_14 
REMARK    2  A    between atoms: N_20  and  C_21 
REMARK    3  A    between atoms: C_21  and  C_22 
ROOT
HETATM    1  N   UNK N   1      27.046  24.941  -4.046  0.00  0.00    -0.288 N 
ATOM      2  HN  UNK N   1      26.362  25.550  -3.595  1.00  0.00     0.187 HD
HETATM    3  C   UNK N   1      28.060  24.267  -3.429  0.00  0.00     0.135 A 
HETATM    4  C   UNK N   1      28.769  23.575  -4.419  0.00  0.00     0.108 A 
HETATM    5  C   UNK N   1      28.128  23.854  -5.562  0.00  0.00     0.182 A 
HETATM    6  N   UNK N   1      27.111  24.658  -5.342  0.00  0.00    -0.067 N 
HETATM    7  N   UNK N   1      28.414  23.394  -6.774  0.00  0.00    -0.172 N 
ATOM      8  HN  UNK N   1      29.221  22.788  -6.922  1.00  0.00     0.186 HD
HETATM    9  C   UNK N   1      27.613  23.745  -7.811  0.00  0.00     0.694 A 
HETATM   10  N   UNK N   1      26.594  24.634  -7.625  0.00  0.00    -0.020 N 
ATOM     11  HN  UNK N   1      26.023  24.934  -8.413  1.00  0.00     0.203 HD
HETATM   12  C   UNK N   1      26.351  25.115  -6.382  0.00  0.00     0.720 A 
HETATM   13  N   UNK N   1      25.524  26.240  -6.197  0.00  0.00    -0.189 N 
HETATM   14  N   UNK N   1      27.437  22.780  -8.774  0.00  0.00    -0.225 N 
HETATM   15  C   UNK N   1      29.933  22.730  -4.347  0.00  0.00     0.105 C 
HETATM   16  N   UNK N   1      30.869  22.054  -4.271  0.00  0.00    -0.191 NA
HETATM   17  H   UNK N   1      24.591  26.289  -6.509  0.00  0.00     0.184 HD
HETATM   18  H   UNK N   1      27.542  22.934  -9.742  0.00  0.00     0.177 HD
ENDROOT
BRANCH  14  19
HETATM   19  C   UNK N   1      27.078  21.519  -8.186  0.00  0.00     0.142 C 
BRANCH  19  20
HETATM   20  C   UNK N   1      28.034  20.475  -8.561  0.00  0.00     0.004 C 
HETATM   21  C   UNK N   1      28.890  20.907  -9.721  0.00  0.00     0.006 C 
HETATM   22  C   UNK N   1      29.392  19.607 -10.316  0.00  0.00     0.000 C 
HETATM   23  C   UNK N   1      30.194  18.808  -9.275  0.00  0.00     0.000 C 
HETATM   24  C   UNK N   1      29.498  18.688  -7.904  0.00  0.00     0.000 C 
HETATM   25  C   UNK N   1      28.937  20.024  -7.438  0.00  0.00     0.006 C 
ENDBRANCH  19  20
ENDBRANCH  14  19
BRANCH  13  26
HETATM   26  C   UNK N   1      26.178  27.290  -5.518  0.00  0.00     0.049 A 
HETATM   27  C   UNK N   1      27.168  28.039  -6.144  0.00  0.00     0.030 A 
HETATM   28  C   UNK N   1      27.545  29.263  -5.571  0.00  0.00     0.002 A 
HETATM   29  C   UNK N   1      26.907  29.745  -4.414  0.00  0.00     0.000 A 
HETATM   30  C   UNK N   1      25.937  28.982  -3.775  0.00  0.00     0.002 A 
HETATM   31  C   UNK N   1      25.588  27.765  -4.320  0.00  0.00     0.030 A 
ENDBRANCH  13  26
TORSDOF 3
ENDMDL
MODEL 9
REMARK VINA RESULT:      -6.9      2.903      4.800
REMARK  3 active torsions:
REMARK  status: ('A' for Active; 'I' for Inactive)
REMARK       I    between atoms: C_9  and  N_20 
REMARK       I    between atoms: C_12  and  N_13 
REMARK    1  A    between atoms: N_13  and  C_14 
REMARK    2  A    between atoms: N_20  and  C_21 
REMARK    3  A    between atoms: C_21  and  C_22 
ROOT
HETATM    1  N   UNK N   1      31.733  17.496   6.937  0.00  0.00    -0.288 N 
ATOM      2  HN  UNK N   1      32.743  17.558   6.804  1.00  0.00     0.187 HD
HETATM    3  C   UNK N   1      31.068  17.565   8.127  0.00  0.00     0.135 A 
HETATM    4  C   UNK N   1      29.702  17.412   7.856  0.00  0.00     0.108 A 
HETATM    5  C   UNK N   1      29.627  17.283   6.524  0.00  0.00     0.182 A 
HETATM    6  N   UNK N   1      30.824  17.335   5.982  0.00  0.00    -0.067 N 
HETATM    7  N   UNK N   1      28.527  17.147   5.794  0.00  0.00    -0.172 N 
ATOM      8  HN  UNK N   1      27.612  17.089   6.239  1.00  0.00     0.186 HD
HETATM    9  C   UNK N   1      28.644  17.087   4.444  0.00  0.00     0.694 A 
HETATM   10  N   UNK N   1      29.877  17.067   3.859  0.00  0.00    -0.020 N 
ATOM     11  HN  UNK N   1      29.966  16.974   2.848  1.00  0.00     0.203 HD
HETATM   12  C   UNK N   1      30.983  17.170   4.635  0.00  0.00     0.720 A 
HETATM   13  N   UNK N   1      32.254  16.855   4.118  0.00  0.00    -0.189 N 
HETATM   14  N   UNK N   1      27.623  17.674   3.735  0.00  0.00    -0.225 N 
HETATM   15  C   UNK N   1      28.553  17.379   8.723  0.00  0.00     0.105 C 
HETATM   16  N   UNK N   1      27.641  17.355   9.435  0.00  0.00    -0.191 NA
HETATM   17  H   UNK N   1      32.645  17.292   3.327  0.00  0.00     0.184 HD
HETATM   18  H   UNK N   1      27.140  17.243   2.992  0.00  0.00     0.177 HD
ENDROOT
BRANCH  14  19
HETATM   19  C   UNK N   1      27.351  19.000   4.220  0.00  0.00     0.142 C 
BRANCH  19  20
HETATM   20  C   UNK N   1      25.938  19.344   4.040  0.00  0.00     0.004 C 
HETATM   21  C   UNK N   1      25.732  20.188   2.812  0.00  0.00     0.006 C 
HETATM   22  C   UNK N   1      24.411  20.888   3.061  0.00  0.00     0.000 C 
HETATM   23  C   UNK N   1      23.281  19.863   3.253  0.00  0.00     0.000 C 
HETATM   24  C   UNK N   1      23.627  18.724   4.233  0.00  0.00     0.000 C 
HETATM   25  C   UNK N   1      25.013  18.154   3.969  0.00  0.00     0.006 C 
ENDBRANCH  19  20
ENDBRANCH  14  19
BRANCH  13  26
HETATM   26  C   UNK N   1      32.906  15.844   4.856  0.00  0.00     0.049 A 
HETATM   27  C   UNK N   1      32.432  14.537   4.853  0.00  0.00     0.030 A 
HETATM   28  C   UNK N   1      33.279  13.516   5.308  0.00  0.00     0.002 A 
HETATM   29  C   UNK N   1      34.595  13.798   5.717  0.00  0.00     0.000 A 
HETATM   30  C   UNK N   1      35.058  15.108   5.745  0.00  0.00     0.002 A 
HETATM   31  C   UNK N   1      34.215  16.116   5.328  0.00  0.00     0.030 A 
ENDBRANCH  13  26
TORSDOF 3
ENDMDL
