MODEL 1
REMARK VINA RESULT:      -8.3      0.000      0.000
REMARK  3 active torsions:
REMARK  status: ('A' for Active; 'I' for Inactive)
REMARK       I    between atoms: C_9  and  N_20 
REMARK       I    between atoms: C_12  and  N_13 
REMARK    1  A    between atoms: N_13  and  C_14 
REMARK    2  A    between atoms: N_20  and  C_21 
REMARK    3  A    between atoms: C_21  and  C_22 
ROOT
HETATM    1  N   UNK N   1      27.748  19.237   5.401  0.00  0.00    -0.288 N 
ATOM      2  HN  UNK N   1      28.575  19.276   5.997  1.00  0.00     0.187 HD
HETATM    3  C   UNK N   1      27.393  20.156   4.459  0.00  0.00     0.135 A 
HETATM    4  C   UNK N   1      26.204  19.718   3.864  0.00  0.00     0.108 A 
HETATM    5  C   UNK N   1      25.904  18.566   4.483  0.00  0.00     0.182 A 
HETATM    6  N   UNK N   1      26.829  18.285   5.405  0.00  0.00    -0.067 N 
HETATM    7  N   UNK N   1      24.820  17.801   4.278  0.00  0.00    -0.172 N 
ATOM      8  HN  UNK N   1      24.136  18.036   3.560  1.00  0.00     0.186 HD
HETATM    9  C   UNK N   1      24.670  16.709   5.055  0.00  0.00     0.694 A 
HETATM   10  N   UNK N   1      25.607  16.399   5.998  0.00  0.00    -0.020 N 
ATOM     11  HN  UNK N   1      25.477  15.570   6.577  1.00  0.00     0.203 HD
HETATM   12  C   UNK N   1      26.708  17.170   6.180  0.00  0.00     0.720 A 
HETATM   13  N   UNK N   1      27.617  16.773   7.204  0.00  0.00    -0.189 N 
HETATM   14  N   UNK N   1      23.464  16.004   5.031  0.00  0.00    -0.221 N 
HETATM   15  C   UNK N   1      25.389  20.312   2.838  0.00  0.00     0.105 C 
HETATM   16  N   UNK N   1      24.761  20.820   2.009  0.00  0.00    -0.191 NA
HETATM   17  H   UNK N   1      27.367  15.913   7.612  0.00  0.00     0.184 HD
HETATM   18  H   UNK N   1      22.898  15.983   4.225  0.00  0.00     0.178 HD
ENDROOT
BRANCH  14  19
HETATM   19  C   UNK N   1      23.088  15.313   6.229  0.00  0.00     0.176 C 
BRANCH  19  20
HETATM   20  C   UNK N   1      21.920  15.925   6.881  0.00  0.00    -0.040 A 
HETATM   21  C   UNK N   1      21.488  17.206   6.521  0.00  0.00     0.010 A 
HETATM   22  C   UNK N   1      20.495  17.839   7.269  0.00  0.00     0.024 A 
HETATM   23  C   UNK N   1      19.946  17.197   8.385  0.00  0.00     0.034 A 
HETATM   24  C   UNK N   1      20.355  15.901   8.718  0.00  0.00     0.024 A 
HETATM   25 Cl   UNK N   1      18.947  18.103   9.507  0.00  0.00    -0.084 Cl
HETATM   26  C   UNK N   1      21.341  15.264   7.964  0.00  0.00     0.010 A 
ENDBRANCH  19  20
ENDBRANCH  14  19
BRANCH  13  27
HETATM   27  C   UNK N   1      28.799  17.319   7.776  0.00  0.00     0.049 A 
HETATM   28  C   UNK N   1      30.021  16.914   7.223  0.00  0.00     0.030 A 
HETATM   29  C   UNK N   1      31.233  17.384   7.733  0.00  0.00     0.002 A 
HETATM   30  C   UNK N   1      31.235  18.273   8.810  0.00  0.00     0.000 A 
HETATM   31  C   UNK N   1      30.022  18.688   9.374  0.00  0.00     0.002 A 
HETATM   32  C   UNK N   1      28.809  18.209   8.859  0.00  0.00     0.030 A 
ENDBRANCH  13  27
TORSDOF 3
ENDMDL
MODEL 2
REMARK VINA RESULT:      -8.2      9.510     13.842
REMARK  3 active torsions:
REMARK  status: ('A' for Active; 'I' for Inactive)
REMARK       I    between atoms: C_9  and  N_20 
REMARK       I    between atoms: C_12  and  N_13 
REMARK    1  A    between atoms: N_13  and  C_14 
REMARK    2  A    between atoms: N_20  and  C_21 
REMARK    3  A    between atoms: C_21  and  C_22 
ROOT
HETATM    1  N   UNK N   1      36.295  14.551   8.598  0.00  0.00    -0.288 N 
ATOM      2  HN  UNK N   1      35.665  15.125   8.036  1.00  0.00     0.187 HD
HETATM    3  C   UNK N   1      37.271  13.729   8.121  0.00  0.00     0.135 A 
HETATM    4  C   UNK N   1      37.906  13.139   9.222  0.00  0.00     0.108 A 
HETATM    5  C   UNK N   1      37.273  13.632  10.297  0.00  0.00     0.182 A 
HETATM    6  N   UNK N   1      36.307  14.473   9.919  0.00  0.00    -0.067 N 
HETATM    7  N   UNK N   1      37.506  13.317  11.582  0.00  0.00    -0.172 N 
ATOM      8  HN  UNK N   1      38.257  12.678  11.841  1.00  0.00     0.186 HD
HETATM    9  C   UNK N   1      36.710  13.877  12.516  0.00  0.00     0.694 A 
HETATM   10  N   UNK N   1      35.723  14.744  12.151  0.00  0.00    -0.020 N 
ATOM     11  HN  UNK N   1      35.130  15.157  12.871  1.00  0.00     0.203 HD
HETATM   12  C   UNK N   1      35.512  15.070  10.852  0.00  0.00     0.720 A 
HETATM   13  N   UNK N   1      34.442  15.969  10.572  0.00  0.00    -0.189 N 
HETATM   14  N   UNK N   1      36.769  13.421  13.835  0.00  0.00    -0.221 N 
HETATM   15  C   UNK N   1      38.978  12.183   9.290  0.00  0.00     0.105 C 
HETATM   16  N   UNK N   1      39.844  11.416   9.305  0.00  0.00    -0.191 NA
HETATM   17  H   UNK N   1      34.025  16.319  11.392  0.00  0.00     0.184 HD
HETATM   18  H   UNK N   1      37.597  13.043  14.211  0.00  0.00     0.178 HD
ENDROOT
BRANCH  14  19
HETATM   19  C   UNK N   1      35.572  13.529  14.617  0.00  0.00     0.176 C 
BRANCH  19  20
HETATM   20  C   UNK N   1      35.679  12.817  15.899  0.00  0.00    -0.040 A 
HETATM   21  C   UNK N   1      36.049  11.469  15.942  0.00  0.00     0.010 A 
HETATM   22  C   UNK N   1      35.972  10.765  17.144  0.00  0.00     0.024 A 
HETATM   23  C   UNK N   1      35.510  11.406  18.299  0.00  0.00     0.034 A 
HETATM   24  C   UNK N   1      35.177  12.765  18.260  0.00  0.00     0.024 A 
HETATM   25 Cl   UNK N   1      35.105  10.458  19.718  0.00  0.00    -0.084 Cl
HETATM   26  C   UNK N   1      35.263  13.470  17.059  0.00  0.00     0.010 A 
ENDBRANCH  19  20
ENDBRANCH  14  19
BRANCH  13  27
HETATM   27  C   UNK N   1      33.833  16.484   9.394  0.00  0.00     0.049 A 
HETATM   28  C   UNK N   1      32.700  15.812   8.917  0.00  0.00     0.030 A 
HETATM   29  C   UNK N   1      32.048  16.235   7.757  0.00  0.00     0.002 A 
HETATM   30  C   UNK N   1      32.527  17.345   7.057  0.00  0.00     0.000 A 
HETATM   31  C   UNK N   1      33.658  18.027   7.520  0.00  0.00     0.002 A 
HETATM   32  C   UNK N   1      34.309  17.595   8.684  0.00  0.00     0.030 A 
ENDBRANCH  13  27
TORSDOF 3
ENDMDL
MODEL 3
REMARK VINA RESULT:      -7.8      3.470      6.527
REMARK  3 active torsions:
REMARK  status: ('A' for Active; 'I' for Inactive)
REMARK       I    between atoms: C_9  and  N_20 
REMARK       I    between atoms: C_12  and  N_13 
REMARK    1  A    between atoms: N_13  and  C_14 
REMARK    2  A    between atoms: N_20  and  C_21 
REMARK    3  A    between atoms: C_21  and  C_22 
ROOT
HETATM    1  N   UNK N   1      24.556  18.291   3.967  0.00  0.00    -0.288 N 
ATOM      2  HN  UNK N   1      23.777  18.755   3.500  1.00  0.00     0.187 HD
HETATM    3  C   UNK N   1      25.880  18.522   3.740  0.00  0.00     0.135 A 
HETATM    4  C   UNK N   1      26.611  17.687   4.594  0.00  0.00     0.108 A 
HETATM    5  C   UNK N   1      25.689  16.994   5.280  0.00  0.00     0.182 A 
HETATM    6  N   UNK N   1      24.462  17.356   4.899  0.00  0.00    -0.067 N 
HETATM    7  N   UNK N   1      25.918  16.032   6.190  0.00  0.00    -0.172 N 
ATOM      8  HN  UNK N   1      26.867  15.784   6.468  1.00  0.00     0.186 HD
HETATM    9  C   UNK N   1      24.847  15.408   6.721  0.00  0.00     0.694 A 
HETATM   10  N   UNK N   1      23.585  15.768   6.351  0.00  0.00    -0.020 N 
ATOM     11  HN  UNK N   1      22.787  15.284   6.763  1.00  0.00     0.203 HD
HETATM   12  C   UNK N   1      23.367  16.756   5.447  0.00  0.00     0.720 A 
HETATM   13  N   UNK N   1      22.012  17.043   5.111  0.00  0.00    -0.189 N 
HETATM   14  N   UNK N   1      25.033  14.265   7.502  0.00  0.00    -0.221 N 
HETATM   15  C   UNK N   1      28.029  17.509   4.751  0.00  0.00     0.105 C 
HETATM   16  N   UNK N   1      29.177  17.395   4.851  0.00  0.00    -0.191 NA
HETATM   17  H   UNK N   1      21.375  16.527   5.656  0.00  0.00     0.184 HD
HETATM   18  H   UNK N   1      25.856  14.128   8.025  0.00  0.00     0.178 HD
ENDROOT
BRANCH  14  19
HETATM   19  C   UNK N   1      23.971  13.302   7.511  0.00  0.00     0.176 C 
BRANCH  19  20
HETATM   20  C   UNK N   1      23.759  12.719   8.844  0.00  0.00    -0.040 A 
HETATM   21  C   UNK N   1      22.471  12.414   9.297  0.00  0.00     0.010 A 
HETATM   22  C   UNK N   1      22.273  12.032  10.624  0.00  0.00     0.024 A 
HETATM   23  C   UNK N   1      23.362  11.969  11.501  0.00  0.00     0.034 A 
HETATM   24  C   UNK N   1      24.654  12.238  11.034  0.00  0.00     0.024 A 
HETATM   25 Cl   UNK N   1      23.083  11.809  13.225  0.00  0.00    -0.084 Cl
HETATM   26  C   UNK N   1      24.852  12.611   9.705  0.00  0.00     0.010 A 
ENDBRANCH  19  20
ENDBRANCH  14  19
BRANCH  13  27
HETATM   27  C   UNK N   1      21.358  17.896   4.179  0.00  0.00     0.049 A 
HETATM   28  C   UNK N   1      20.906  17.312   2.990  0.00  0.00     0.030 A 
HETATM   29  C   UNK N   1      20.269  18.076   2.009  0.00  0.00     0.002 A 
HETATM   30  C   UNK N   1      20.077  19.444   2.211  0.00  0.00     0.000 A 
HETATM   31  C   UNK N   1      20.524  20.043   3.396  0.00  0.00     0.002 A 
HETATM   32  C   UNK N   1      21.164  19.270   4.374  0.00  0.00     0.030 A 
ENDBRANCH  13  27
TORSDOF 3
ENDMDL
MODEL 4
REMARK VINA RESULT:      -7.5      3.801      5.697
REMARK  3 active torsions:
REMARK  status: ('A' for Active; 'I' for Inactive)
REMARK       I    between atoms: C_9  and  N_20 
REMARK       I    between atoms: C_12  and  N_13 
REMARK    1  A    between atoms: N_13  and  C_14 
REMARK    2  A    between atoms: N_20  and  C_21 
REMARK    3  A    between atoms: C_21  and  C_22 
ROOT
HETATM    1  N   UNK N   1      26.260  15.680   2.868  0.00  0.00    -0.288 N 
ATOM      2  HN  UNK N   1      26.411  16.680   2.734  1.00  0.00     0.187 HD
HETATM    3  C   UNK N   1      26.501  14.702   1.950  0.00  0.00     0.135 A 
HETATM    4  C   UNK N   1      26.171  13.475   2.539  0.00  0.00     0.108 A 
HETATM    5  C   UNK N   1      25.744  13.781   3.773  0.00  0.00     0.182 A 
HETATM    6  N   UNK N   1      25.795  15.102   3.964  0.00  0.00    -0.067 N 
HETATM    7  N   UNK N   1      25.276  12.926   4.698  0.00  0.00    -0.172 N 
ATOM      8  HN  UNK N   1      25.259  11.922   4.527  1.00  0.00     0.186 HD
HETATM    9  C   UNK N   1      24.832  13.446   5.861  0.00  0.00     0.694 A 
HETATM   10  N   UNK N   1      24.882  14.792   6.078  0.00  0.00    -0.020 N 
ATOM     11  HN  UNK N   1      24.541  15.167   6.963  1.00  0.00     0.203 HD
HETATM   12  C   UNK N   1      25.377  15.642   5.144  0.00  0.00     0.720 A 
HETATM   13  N   UNK N   1      25.367  17.032   5.460  0.00  0.00    -0.189 N 
HETATM   14  N   UNK N   1      24.142  12.631   6.761  0.00  0.00    -0.221 N 
HETATM   15  C   UNK N   1      26.211  12.137   2.013  0.00  0.00     0.105 C 
HETATM   16  N   UNK N   1      26.260  11.075   1.556  0.00  0.00    -0.191 NA
HETATM   17  H   UNK N   1      25.067  17.203   6.381  0.00  0.00     0.184 HD
HETATM   18  H   UNK N   1      24.315  11.663   6.814  0.00  0.00     0.178 HD
ENDROOT
BRANCH  14  19
HETATM   19  C   UNK N   1      23.174  13.267   7.606  0.00  0.00     0.176 C 
BRANCH  19  20
HETATM   20  C   UNK N   1      23.185  12.722   8.972  0.00  0.00    -0.040 A 
HETATM   21  C   UNK N   1      21.994  12.553   9.686  0.00  0.00     0.010 A 
HETATM   22  C   UNK N   1      22.036  12.207  11.037  0.00  0.00     0.024 A 
HETATM   23  C   UNK N   1      23.271  12.044  11.676  0.00  0.00     0.034 A 
HETATM   24  C   UNK N   1      24.459  12.177  10.949  0.00  0.00     0.024 A 
HETATM   25 Cl   UNK N   1      23.336  11.931  13.425  0.00  0.00    -0.084 Cl
HETATM   26  C   UNK N   1      24.415  12.515   9.596  0.00  0.00     0.010 A 
ENDBRANCH  19  20
ENDBRANCH  14  19
BRANCH  13  27
HETATM   27  C   UNK N   1      25.687  18.231   4.764  0.00  0.00     0.049 A 
HETATM   28  C   UNK N   1      27.002  18.700   4.876  0.00  0.00     0.030 A 
HETATM   29  C   UNK N   1      27.401  19.879   4.242  0.00  0.00     0.002 A 
HETATM   30  C   UNK N   1      26.482  20.605   3.483  0.00  0.00     0.000 A 
HETATM   31  C   UNK N   1      25.164  20.149   3.361  0.00  0.00     0.002 A 
HETATM   32  C   UNK N   1      24.769  18.967   4.002  0.00  0.00     0.030 A 
ENDBRANCH  13  27
TORSDOF 3
ENDMDL
MODEL 5
REMARK VINA RESULT:      -7.4      7.852     11.740
REMARK  3 active torsions:
REMARK  status: ('A' for Active; 'I' for Inactive)
REMARK       I    between atoms: C_9  and  N_20 
REMARK       I    between atoms: C_12  and  N_13 
REMARK    1  A    between atoms: N_13  and  C_14 
REMARK    2  A    between atoms: N_20  and  C_21 
REMARK    3  A    between atoms: C_21  and  C_22 
ROOT
HETATM    1  N   UNK N   1      37.769  13.297  11.296  0.00  0.00    -0.288 N 
ATOM      2  HN  UNK N   1      37.723  13.005  12.272  1.00  0.00     0.187 HD
HETATM    3  C   UNK N   1      38.825  13.115  10.453  0.00  0.00     0.135 A 
HETATM    4  C   UNK N   1      38.473  13.651   9.208  0.00  0.00     0.108 A 
HETATM    5  C   UNK N   1      37.231  14.132   9.371  0.00  0.00     0.182 A 
HETATM    6  N   UNK N   1      36.816  13.921  10.623  0.00  0.00    -0.067 N 
HETATM    7  N   UNK N   1      36.493  14.782   8.456  0.00  0.00    -0.172 N 
ATOM      8  HN  UNK N   1      36.833  14.919   7.505  1.00  0.00     0.186 HD
HETATM    9  C   UNK N   1      35.287  15.245   8.841  0.00  0.00     0.694 A 
HETATM   10  N   UNK N   1      34.841  15.035  10.114  0.00  0.00    -0.020 N 
ATOM     11  HN  UNK N   1      33.927  15.393  10.388  1.00  0.00     0.203 HD
HETATM   12  C   UNK N   1      35.588  14.358  11.022  0.00  0.00     0.720 A 
HETATM   13  N   UNK N   1      35.042  14.208  12.330  0.00  0.00    -0.189 N 
HETATM   14  N   UNK N   1      34.578  16.107   8.001  0.00  0.00    -0.221 N 
HETATM   15  C   UNK N   1      39.215  13.747   7.979  0.00  0.00     0.105 C 
HETATM   16  N   UNK N   1      39.842  13.803   7.008  0.00  0.00    -0.191 NA
HETATM   17  H   UNK N   1      34.123  14.556  12.393  0.00  0.00     0.184 HD
HETATM   18  H   UNK N   1      34.681  16.069   7.023  0.00  0.00     0.178 HD
ENDROOT
BRANCH  14  19
HETATM   19  C   UNK N   1      33.695  17.047   8.626  0.00  0.00     0.176 C 
BRANCH  19  20
HETATM   20  C   UNK N   1      32.464  17.255   7.849  0.00  0.00    -0.040 A 
HETATM   21  C   UNK N   1      31.254  17.550   8.488  0.00  0.00     0.010 A 
HETATM   22  C   UNK N   1      30.067  17.566   7.755  0.00  0.00     0.024 A 
HETATM   23  C   UNK N   1      30.089  17.274   6.386  0.00  0.00     0.034 A 
HETATM   24  C   UNK N   1      31.306  17.018   5.745  0.00  0.00     0.024 A 
HETATM   25 Cl   UNK N   1      28.584  16.976   5.536  0.00  0.00    -0.084 Cl
HETATM   26  C   UNK N   1      32.493  17.010   6.477  0.00  0.00     0.010 A 
ENDBRANCH  19  20
ENDBRANCH  14  19
BRANCH  13  27
HETATM   27  C   UNK N   1      35.505  13.677  13.566  0.00  0.00     0.049 A 
HETATM   28  C   UNK N   1      34.940  12.468  13.990  0.00  0.00     0.030 A 
HETATM   29  C   UNK N   1      35.320  11.881  15.199  0.00  0.00     0.002 A 
HETATM   30  C   UNK N   1      36.278  12.504  16.002  0.00  0.00     0.000 A 
HETATM   31  C   UNK N   1      36.852  13.713  15.592  0.00  0.00     0.002 A 
HETATM   32  C   UNK N   1      36.464  14.298  14.378  0.00  0.00     0.030 A 
ENDBRANCH  13  27
TORSDOF 3
ENDMDL
MODEL 6
REMARK VINA RESULT:      -7.3     13.099     15.106
REMARK  3 active torsions:
REMARK  status: ('A' for Active; 'I' for Inactive)
REMARK       I    between atoms: C_9  and  N_20 
REMARK       I    between atoms: C_12  and  N_13 
REMARK    1  A    between atoms: N_13  and  C_14 
REMARK    2  A    between atoms: N_20  and  C_21 
REMARK    3  A    between atoms: C_21  and  C_22 
ROOT
HETATM    1  N   UNK N   1      28.669  22.504  -6.028  0.00  0.00    -0.288 N 
ATOM      2  HN  UNK N   1      29.591  22.131  -5.799  1.00  0.00     0.187 HD
HETATM    3  C   UNK N   1      27.868  22.089  -7.049  0.00  0.00     0.135 A 
HETATM    4  C   UNK N   1      26.693  22.850  -7.004  0.00  0.00     0.108 A 
HETATM    5  C   UNK N   1      26.855  23.684  -5.966  0.00  0.00     0.182 A 
HETATM    6  N   UNK N   1      28.040  23.476  -5.388  0.00  0.00    -0.067 N 
HETATM    7  N   UNK N   1      26.001  24.639  -5.560  0.00  0.00    -0.172 N 
ATOM      8  HN  UNK N   1      25.098  24.767  -6.015  1.00  0.00     0.186 HD
HETATM    9  C   UNK N   1      26.382  25.420  -4.529  0.00  0.00     0.694 A 
HETATM   10  N   UNK N   1      27.586  25.219  -3.919  0.00  0.00    -0.020 N 
ATOM     11  HN  UNK N   1      27.858  25.820  -3.141  1.00  0.00     0.203 HD
HETATM   12  C   UNK N   1      28.430  24.237  -4.326  0.00  0.00     0.720 A 
HETATM   13  N   UNK N   1      29.673  24.122  -3.638  0.00  0.00    -0.189 N 
HETATM   14  N   UNK N   1      25.634  26.555  -4.210  0.00  0.00    -0.221 N 
HETATM   15  C   UNK N   1      25.532  22.842  -7.853  0.00  0.00     0.105 C 
HETATM   16  N   UNK N   1      24.614  22.804  -8.556  0.00  0.00    -0.191 NA
HETATM   17  H   UNK N   1      29.735  24.738  -2.872  0.00  0.00     0.184 HD
HETATM   18  H   UNK N   1      24.667  26.600  -4.389  0.00  0.00     0.178 HD
ENDROOT
BRANCH  14  19
HETATM   19  C   UNK N   1      26.336  27.652  -3.610  0.00  0.00     0.176 C 
BRANCH  19  20
HETATM   20  C   UNK N   1      26.969  28.522  -4.612  0.00  0.00    -0.040 A 
HETATM   21  C   UNK N   1      27.118  28.099  -5.937  0.00  0.00     0.010 A 
HETATM   22  C   UNK N   1      27.877  28.859  -6.828  0.00  0.00     0.024 A 
HETATM   23  C   UNK N   1      28.498  30.033  -6.388  0.00  0.00     0.034 A 
HETATM   24  C   UNK N   1      28.315  30.472  -5.073  0.00  0.00     0.024 A 
HETATM   25 Cl   UNK N   1      29.703  30.811  -7.399  0.00  0.00    -0.084 Cl
HETATM   26  C   UNK N   1      27.549  29.717  -4.185  0.00  0.00     0.010 A 
ENDBRANCH  19  20
ENDBRANCH  14  19
BRANCH  13  27
HETATM   27  C   UNK N   1      30.845  23.330  -3.790  0.00  0.00     0.049 A 
HETATM   28  C   UNK N   1      30.986  22.231  -2.933  0.00  0.00     0.030 A 
HETATM   29  C   UNK N   1      32.113  21.409  -2.998  0.00  0.00     0.002 A 
HETATM   30  C   UNK N   1      33.118  21.680  -3.929  0.00  0.00     0.000 A 
HETATM   31  C   UNK N   1      32.991  22.775  -4.792  0.00  0.00     0.002 A 
HETATM   32  C   UNK N   1      31.859  23.598  -4.720  0.00  0.00     0.030 A 
ENDBRANCH  13  27
TORSDOF 3
ENDMDL
MODEL 7
REMARK VINA RESULT:      -7.3      8.922     13.062
REMARK  3 active torsions:
REMARK  status: ('A' for Active; 'I' for Inactive)
REMARK       I    between atoms: C_9  and  N_20 
REMARK       I    between atoms: C_12  and  N_13 
REMARK    1  A    between atoms: N_13  and  C_14 
REMARK    2  A    between atoms: N_20  and  C_21 
REMARK    3  A    between atoms: C_21  and  C_22 
ROOT
HETATM    1  N   UNK N   1      35.198  13.656   7.535  0.00  0.00    -0.288 N 
ATOM      2  HN  UNK N   1      34.559  14.241   6.996  1.00  0.00     0.187 HD
HETATM    3  C   UNK N   1      35.780  12.500   7.108  0.00  0.00     0.135 A 
HETATM    4  C   UNK N   1      36.589  12.022   8.146  0.00  0.00     0.108 A 
HETATM    5  C   UNK N   1      36.445  12.910   9.141  0.00  0.00     0.182 A 
HETATM    6  N   UNK N   1      35.608  13.884   8.772  0.00  0.00    -0.067 N 
HETATM    7  N   UNK N   1      36.998  12.846  10.363  0.00  0.00    -0.172 N 
ATOM      8  HN  UNK N   1      37.641  12.096  10.613  1.00  0.00     0.186 HD
HETATM    9  C   UNK N   1      36.673  13.812  11.247  0.00  0.00     0.694 A 
HETATM   10  N   UNK N   1      35.826  14.819  10.888  0.00  0.00    -0.020 N 
ATOM     11  HN  UNK N   1      35.590  15.540  11.570  1.00  0.00     0.203 HD
HETATM   12  C   UNK N   1      35.291  14.883   9.643  0.00  0.00     0.720 A 
HETATM   13  N   UNK N   1      34.401  15.964   9.373  0.00  0.00    -0.189 N 
HETATM   14  N   UNK N   1      37.046  13.675  12.586  0.00  0.00    -0.221 N 
HETATM   15  C   UNK N   1      37.403  10.840   8.238  0.00  0.00     0.105 C 
HETATM   16  N   UNK N   1      38.048   9.880   8.274  0.00  0.00    -0.191 NA
HETATM   17  H   UNK N   1      34.345  16.598  10.123  0.00  0.00     0.184 HD
HETATM   18  H   UNK N   1      37.851  13.172  12.846  0.00  0.00     0.178 HD
ENDROOT
BRANCH  14  19
HETATM   19  C   UNK N   1      36.206  14.301  13.565  0.00  0.00     0.176 C 
BRANCH  19  20
HETATM   20  C   UNK N   1      35.634  13.331  14.510  0.00  0.00    -0.040 A 
HETATM   21  C   UNK N   1      35.976  13.364  15.866  0.00  0.00     0.010 A 
HETATM   22  C   UNK N   1      35.567  12.332  16.711  0.00  0.00     0.024 A 
HETATM   23  C   UNK N   1      34.830  11.260  16.196  0.00  0.00     0.034 A 
HETATM   24  C   UNK N   1      34.458  11.250  14.847  0.00  0.00     0.024 A 
HETATM   25 Cl   UNK N   1      34.595   9.818  17.167  0.00  0.00    -0.084 Cl
HETATM   26  C   UNK N   1      34.859  12.287  14.004  0.00  0.00     0.010 A 
ENDBRANCH  19  20
ENDBRANCH  14  19
BRANCH  13  27
HETATM   27  C   UNK N   1      33.575  16.346   8.280  0.00  0.00     0.049 A 
HETATM   28  C   UNK N   1      34.169  17.116   7.272  0.00  0.00     0.030 A 
HETATM   29  C   UNK N   1      33.430  17.552   6.170  0.00  0.00     0.002 A 
HETATM   30  C   UNK N   1      32.078  17.219   6.065  0.00  0.00     0.000 A 
HETATM   31  C   UNK N   1      31.470  16.450   7.064  0.00  0.00     0.002 A 
HETATM   32  C   UNK N   1      32.217  16.018   8.169  0.00  0.00     0.030 A 
ENDBRANCH  13  27
TORSDOF 3
ENDMDL
MODEL 8
REMARK VINA RESULT:      -7.3      2.912      6.957
REMARK  3 active torsions:
REMARK  status: ('A' for Active; 'I' for Inactive)
REMARK       I    between atoms: C_9  and  N_20 
REMARK       I    between atoms: C_12  and  N_13 
REMARK    1  A    between atoms: N_13  and  C_14 
REMARK    2  A    between atoms: N_20  and  C_21 
REMARK    3  A    between atoms: C_21  and  C_22 
ROOT
HETATM    1  N   UNK N   1      21.360  17.358   4.560  0.00  0.00    -0.288 N 
ATOM      2  HN  UNK N   1      20.972  16.542   5.036  1.00  0.00     0.187 HD
HETATM    3  C   UNK N   1      20.677  18.215   3.751  0.00  0.00     0.135 A 
HETATM    4  C   UNK N   1      21.575  19.197   3.316  0.00  0.00     0.108 A 
HETATM    5  C   UNK N   1      22.749  18.873   3.880  0.00  0.00     0.182 A 
HETATM    6  N   UNK N   1      22.616  17.770   4.620  0.00  0.00    -0.067 N 
HETATM    7  N   UNK N   1      23.923  19.505   3.713  0.00  0.00    -0.172 N 
ATOM      8  HN  UNK N   1      23.991  20.352   3.150  1.00  0.00     0.186 HD
HETATM    9  C   UNK N   1      25.007  18.978   4.319  0.00  0.00     0.694 A 
HETATM   10  N   UNK N   1      24.891  17.856   5.086  0.00  0.00    -0.020 N 
ATOM     11  HN  UNK N   1      25.721  17.471   5.536  1.00  0.00     0.203 HD
HETATM   12  C   UNK N   1      23.695  17.240   5.263  0.00  0.00     0.720 A 
HETATM   13  N   UNK N   1      23.683  16.062   6.065  0.00  0.00    -0.189 N 
HETATM   14  N   UNK N   1      26.277  19.467   4.007  0.00  0.00    -0.221 N 
HETATM   15  C   UNK N   1      21.391  20.320   2.436  0.00  0.00     0.105 C 
HETATM   16  N   UNK N   1      21.203  21.214   1.726  0.00  0.00    -0.191 NA
HETATM   17  H   UNK N   1      24.560  15.879   6.473  0.00  0.00     0.184 HD
HETATM   18  H   UNK N   1      26.413  20.398   3.718  0.00  0.00     0.178 HD
ENDROOT
BRANCH  14  19
HETATM   19  C   UNK N   1      27.375  18.552   4.125  0.00  0.00     0.176 C 
BRANCH  19  20
HETATM   20  C   UNK N   1      28.029  18.636   5.439  0.00  0.00    -0.040 A 
HETATM   21  C   UNK N   1      28.918  17.641   5.862  0.00  0.00     0.010 A 
HETATM   22  C   UNK N   1      29.388  17.642   7.175  0.00  0.00     0.024 A 
HETATM   23  C   UNK N   1      28.959  18.631   8.068  0.00  0.00     0.034 A 
HETATM   24  C   UNK N   1      28.101  19.645   7.631  0.00  0.00     0.024 A 
HETATM   25 Cl   UNK N   1      29.285  18.455   9.783  0.00  0.00    -0.084 Cl
HETATM   26  C   UNK N   1      27.637  19.648   6.315  0.00  0.00     0.010 A 
ENDBRANCH  19  20
ENDBRANCH  14  19
BRANCH  13  27
HETATM   27  C   UNK N   1      22.709  15.087   6.419  0.00  0.00     0.049 A 
HETATM   28  C   UNK N   1      22.656  13.927   5.637  0.00  0.00     0.030 A 
HETATM   29  C   UNK N   1      21.720  12.925   5.899  0.00  0.00     0.002 A 
HETATM   30  C   UNK N   1      20.820  13.075   6.956  0.00  0.00     0.000 A 
HETATM   31  C   UNK N   1      20.860  14.229   7.747  0.00  0.00     0.002 A 
HETATM   32  C   UNK N   1      21.801  15.232   7.477  0.00  0.00     0.030 A 
ENDBRANCH  13  27
TORSDOF 3
ENDMDL
MODEL 9
REMARK VINA RESULT:      -7.3      3.563      5.710
REMARK  3 active torsions:
REMARK  status: ('A' for Active; 'I' for Inactive)
REMARK       I    between atoms: C_9  and  N_20 
REMARK       I    between atoms: C_12  and  N_13 
REMARK    1  A    between atoms: N_13  and  C_14 
REMARK    2  A    between atoms: N_20  and  C_21 
REMARK    3  A    between atoms: C_21  and  C_22 
ROOT
HETATM    1  N   UNK N   1      31.279  16.732   6.261  0.00  0.00    -0.288 N 
ATOM      2  HN  UNK N   1      31.977  16.259   5.687  1.00  0.00     0.187 HD
HETATM    3  C   UNK N   1      31.432  17.112   7.561  0.00  0.00     0.135 A 
HETATM    4  C   UNK N   1      30.246  17.737   7.965  0.00  0.00     0.108 A 
HETATM    5  C   UNK N   1      29.442  17.692   6.892  0.00  0.00     0.182 A 
HETATM    6  N   UNK N   1      30.063  17.087   5.876  0.00  0.00    -0.067 N 
HETATM    7  N   UNK N   1      28.176  18.132   6.817  0.00  0.00    -0.172 N 
ATOM      8  HN  UNK N   1      27.731  18.599   7.606  1.00  0.00     0.186 HD
HETATM    9  C   UNK N   1      27.513  17.934   5.658  0.00  0.00     0.694 A 
HETATM   10  N   UNK N   1      28.132  17.324   4.606  0.00  0.00    -0.020 N 
ATOM     11  HN  UNK N   1      27.615  17.182   3.738  1.00  0.00     0.203 HD
HETATM   12  C   UNK N   1      29.419  16.904   4.689  0.00  0.00     0.720 A 
HETATM   13  N   UNK N   1      29.967  16.260   3.541  0.00  0.00    -0.189 N 
HETATM   14  N   UNK N   1      26.139  18.175   5.599  0.00  0.00    -0.221 N 
HETATM   15  C   UNK N   1      29.862  18.300   9.232  0.00  0.00     0.105 C 
HETATM   16  N   UNK N   1      29.590  18.745  10.265  0.00  0.00    -0.191 NA
HETATM   17  H   UNK N   1      29.350  16.272   2.775  0.00  0.00     0.184 HD
HETATM   18  H   UNK N   1      25.711  18.848   6.176  0.00  0.00     0.178 HD
ENDROOT
BRANCH  14  19
HETATM   19  C   UNK N   1      25.381  17.401   4.661  0.00  0.00     0.176 C 
BRANCH  19  20
HETATM   20  C   UNK N   1      24.327  18.193   4.009  0.00  0.00    -0.040 A 
HETATM   21  C   UNK N   1      24.591  19.480   3.528  0.00  0.00     0.010 A 
HETATM   22  C   UNK N   1      23.543  20.282   3.078  0.00  0.00     0.024 A 
HETATM   23  C   UNK N   1      22.229  19.802   3.122  0.00  0.00     0.034 A 
HETATM   24  C   UNK N   1      21.974  18.501   3.568  0.00  0.00     0.024 A 
HETATM   25 Cl   UNK N   1      20.890  20.907   2.867  0.00  0.00    -0.084 Cl
HETATM   26  C   UNK N   1      23.024  17.696   4.010  0.00  0.00     0.010 A 
ENDBRANCH  19  20
ENDBRANCH  14  19
BRANCH  13  27
HETATM   27  C   UNK N   1      31.193  15.605   3.236  0.00  0.00     0.049 A 
HETATM   28  C   UNK N   1      32.318  16.416   3.047  0.00  0.00     0.030 A 
HETATM   29  C   UNK N   1      33.559  15.861   2.726  0.00  0.00     0.002 A 
HETATM   30  C   UNK N   1      33.687  14.477   2.592  0.00  0.00     0.000 A 
HETATM   31  C   UNK N   1      32.572  13.653   2.779  0.00  0.00     0.002 A 
HETATM   32  C   UNK N   1      31.328  14.217   3.097  0.00  0.00     0.030 A 
ENDBRANCH  13  27
TORSDOF 3
ENDMDL
