MODEL 1
REMARK VINA RESULT:      -7.6      0.000      0.000
REMARK  3 active torsions:
REMARK  status: ('A' for Active; 'I' for Inactive)
REMARK       I    between atoms: C_4  and  N_18 
REMARK    1  A    between atoms: C_16  and  C_25 
REMARK    2  A    between atoms: N_18  and  C_19 
REMARK    3  A    between atoms: C_25  and  O_26 
ROOT
HETATM    1  C   UNK N   1      27.746  19.789   4.221  0.00  0.00     0.115 A 
HETATM    2  N   UNK N   1      28.268  18.881   5.087  0.00  0.00    -0.201 N 
ATOM      3  HN  UNK N   1      29.269  18.893   5.284  1.00  0.00     0.183 HD
HETATM    4  C   UNK N   1      27.476  17.954   5.698  0.00  0.00     0.683 A 
HETATM    5  N   UNK N   1      26.148  17.934   5.442  0.00  0.00    -0.189 N 
ATOM      6  HN  UNK N   1      25.558  17.239   5.901  1.00  0.00     0.184 HD
HETATM    7  C   UNK N   1      26.382  19.782   3.945  0.00  0.00    -0.012 A 
HETATM    8  C   UNK N   1      25.587  18.821   4.585  0.00  0.00     0.085 A 
HETATM    9  C   UNK N   1      24.275  20.746   2.711  0.00  0.00     0.048 A 
HETATM   10  C   UNK N   1      25.802  20.797   2.977  0.00  0.00     0.047 A 
HETATM   11  C   UNK N   1      23.557  19.667   3.465  0.00  0.00     0.008 A 
HETATM   12  C   UNK N   1      24.159  18.792   4.316  0.00  0.00     0.087 A 
HETATM   13  N   UNK N   1      23.230  17.959   4.823  0.00  0.00    -0.293 N 
HETATM   14  N   UNK N   1      22.046  18.274   4.321  0.00  0.00    -0.292 N 
ATOM     15  HN  UNK N   1      21.161  17.811   4.531  1.00  0.00     0.187 HD
HETATM   16  C   UNK N   1      22.217  19.321   3.483  0.00  0.00     0.130 A 
HETATM   17  C   UNK N   1      23.439  16.877   5.769  0.00  0.00     0.178 C 
HETATM   18  N   UNK N   1      28.011  17.002   6.605  0.00  0.00    -0.192 N 
HETATM   19  H   UNK N   1      27.375  16.373   7.017  0.00  0.00     0.184 HD
ENDROOT
BRANCH  18  20
HETATM   20  C   UNK N   1      29.375  16.872   6.974  0.00  0.00     0.049 A 
HETATM   21  C   UNK N   1      30.260  16.043   6.268  0.00  0.00     0.030 A 
HETATM   22  C   UNK N   1      31.595  15.939   6.661  0.00  0.00     0.002 A 
HETATM   23  C   UNK N   1      32.054  16.662   7.764  0.00  0.00     0.000 A 
HETATM   24  C   UNK N   1      31.179  17.489   8.473  0.00  0.00     0.002 A 
HETATM   25  C   UNK N   1      29.843  17.593   8.078  0.00  0.00     0.030 A 
ENDBRANCH  18  20
BRANCH  16  26
HETATM   26  C   UNK N   1      21.121  19.956   2.738  0.00  0.00     0.195 C 
HETATM   27  O   UNK N   1      20.603  19.383   1.794  0.00  0.00    -0.645 OA
BRANCH  26  28
HETATM   28  O   UNK N   1      20.686  21.178   3.098  0.00  0.00    -0.772 OA
HETATM   29  H   UNK N   1      20.067  21.632   2.560  0.00  0.00     0.167 HD
ENDBRANCH  26  28
ENDBRANCH  16  26
TORSDOF 3
ENDMDL
MODEL 2
REMARK VINA RESULT:      -7.4      5.910      7.153
REMARK  3 active torsions:
REMARK  status: ('A' for Active; 'I' for Inactive)
REMARK       I    between atoms: C_4  and  N_18 
REMARK    1  A    between atoms: C_16  and  C_25 
REMARK    2  A    between atoms: N_18  and  C_19 
REMARK    3  A    between atoms: C_25  and  O_26 
ROOT
HETATM    1  C   UNK N   1      22.261  16.101   6.481  0.00  0.00     0.115 A 
HETATM    2  N   UNK N   1      22.148  14.974   7.232  0.00  0.00    -0.201 N 
ATOM      3  HN  UNK N   1      22.582  14.941   8.155  1.00  0.00     0.183 HD
HETATM    4  C   UNK N   1      21.464  13.887   6.774  0.00  0.00     0.683 A 
HETATM    5  N   UNK N   1      20.886  13.926   5.551  0.00  0.00    -0.189 N 
ATOM      6  HN  UNK N   1      20.375  13.110   5.211  1.00  0.00     0.184 HD
HETATM    7  C   UNK N   1      21.672  16.157   5.221  0.00  0.00    -0.012 A 
HETATM    8  C   UNK N   1      20.975  15.029   4.770  0.00  0.00     0.085 A 
HETATM    9  C   UNK N   1      21.121  17.426   2.990  0.00  0.00     0.048 A 
HETATM   10  C   UNK N   1      21.800  17.417   4.384  0.00  0.00     0.047 A 
HETATM   11  C   UNK N   1      20.412  16.151   2.645  0.00  0.00     0.008 A 
HETATM   12  C   UNK N   1      20.349  15.062   3.459  0.00  0.00     0.087 A 
HETATM   13  N   UNK N   1      19.639  14.094   2.847  0.00  0.00    -0.293 N 
HETATM   14  N   UNK N   1      19.243  14.531   1.661  0.00  0.00    -0.292 N 
ATOM     15  HN  UNK N   1      18.688  14.009   0.983  1.00  0.00     0.187 HD
HETATM   16  C   UNK N   1      19.704  15.793   1.511  0.00  0.00     0.130 A 
HETATM   17  C   UNK N   1      19.328  12.770   3.360  0.00  0.00     0.178 C 
HETATM   18  N   UNK N   1      21.340  12.705   7.551  0.00  0.00    -0.192 N 
HETATM   19  H   UNK N   1      20.821  11.967   7.159  0.00  0.00     0.184 HD
ENDROOT
BRANCH  18  20
HETATM   20  C   UNK N   1      21.893  12.489   8.840  0.00  0.00     0.049 A 
HETATM   21  C   UNK N   1      21.148  12.691  10.011  0.00  0.00     0.030 A 
HETATM   22  C   UNK N   1      21.725  12.471  11.263  0.00  0.00     0.002 A 
HETATM   23  C   UNK N   1      23.054  12.047  11.351  0.00  0.00     0.000 A 
HETATM   24  C   UNK N   1      23.802  11.845  10.189  0.00  0.00     0.002 A 
HETATM   25  C   UNK N   1      23.223  12.066   8.937  0.00  0.00     0.030 A 
ENDBRANCH  18  20
BRANCH  16  26
HETATM   26  C   UNK N   1      19.461  16.612   0.315  0.00  0.00     0.195 C 
HETATM   27  O   UNK N   1      20.387  17.165  -0.255  0.00  0.00    -0.645 OA
BRANCH  26  28
HETATM   28  O   UNK N   1      18.207  16.755  -0.155  0.00  0.00    -0.772 OA
HETATM   29  H   UNK N   1      17.709  17.517   0.065  0.00  0.00     0.167 HD
ENDBRANCH  26  28
ENDBRANCH  16  26
TORSDOF 3
ENDMDL
MODEL 3
REMARK VINA RESULT:      -7.3      5.675      9.237
REMARK  3 active torsions:
REMARK  status: ('A' for Active; 'I' for Inactive)
REMARK       I    between atoms: C_4  and  N_18 
REMARK    1  A    between atoms: C_16  and  C_25 
REMARK    2  A    between atoms: N_18  and  C_19 
REMARK    3  A    between atoms: C_25  and  O_26 
ROOT
HETATM    1  C   UNK N   1      20.158  16.191   7.159  0.00  0.00     0.115 A 
HETATM    2  N   UNK N   1      20.680  16.747   6.034  0.00  0.00    -0.201 N 
ATOM      3  HN  UNK N   1      20.109  17.386   5.479  1.00  0.00     0.183 HD
HETATM    4  C   UNK N   1      21.953  16.466   5.633  0.00  0.00     0.683 A 
HETATM    5  N   UNK N   1      22.714  15.621   6.366  0.00  0.00    -0.189 N 
ATOM      6  HN  UNK N   1      23.666  15.412   6.063  1.00  0.00     0.184 HD
HETATM    7  C   UNK N   1      20.928  15.320   7.924  0.00  0.00    -0.012 A 
HETATM    8  C   UNK N   1      22.233  15.045   7.494  0.00  0.00     0.085 A 
HETATM    9  C   UNK N   1      21.246  13.740   9.995  0.00  0.00     0.048 A 
HETATM   10  C   UNK N   1      20.343  14.701   9.180  0.00  0.00     0.047 A 
HETATM   11  C   UNK N   1      22.614  13.543   9.415  0.00  0.00     0.008 A 
HETATM   12  C   UNK N   1      23.059  14.139   8.275  0.00  0.00     0.087 A 
HETATM   13  N   UNK N   1      24.326  13.748   8.038  0.00  0.00    -0.293 N 
HETATM   14  N   UNK N   1      24.709  12.918   8.995  0.00  0.00    -0.292 N 
ATOM     15  HN  UNK N   1      25.622  12.468   9.070  1.00  0.00     0.187 HD
HETATM   16  C   UNK N   1      23.677  12.774   9.855  0.00  0.00     0.130 A 
HETATM   17  C   UNK N   1      25.178  14.145   6.929  0.00  0.00     0.178 C 
HETATM   18  N   UNK N   1      22.507  17.042   4.459  0.00  0.00    -0.192 N 
HETATM   19  H   UNK N   1      23.436  16.801   4.242  0.00  0.00     0.184 HD
ENDROOT
BRANCH  18  20
HETATM   20  C   UNK N   1      21.848  17.931   3.572  0.00  0.00     0.049 A 
HETATM   21  C   UNK N   1      20.855  17.492   2.683  0.00  0.00     0.030 A 
HETATM   22  C   UNK N   1      20.228  18.395   1.822  0.00  0.00     0.002 A 
HETATM   23  C   UNK N   1      20.592  19.744   1.845  0.00  0.00     0.000 A 
HETATM   24  C   UNK N   1      21.580  20.187   2.727  0.00  0.00     0.002 A 
HETATM   25  C   UNK N   1      22.206  19.282   3.588  0.00  0.00     0.030 A 
ENDBRANCH  18  20
BRANCH  16  26
HETATM   26  C   UNK N   1      23.728  11.926  11.054  0.00  0.00     0.195 C 
HETATM   27  O   UNK N   1      24.673  11.998  11.822  0.00  0.00    -0.645 OA
BRANCH  26  28
HETATM   28  O   UNK N   1      22.728  11.061  11.307  0.00  0.00    -0.772 OA
HETATM   29  H   UNK N   1      22.059  11.286  11.924  0.00  0.00     0.167 HD
ENDBRANCH  26  28
ENDBRANCH  16  26
TORSDOF 3
ENDMDL
MODEL 4
REMARK VINA RESULT:      -7.2      4.678      8.556
REMARK  3 active torsions:
REMARK  status: ('A' for Active; 'I' for Inactive)
REMARK       I    between atoms: C_4  and  N_18 
REMARK    1  A    between atoms: C_16  and  C_25 
REMARK    2  A    between atoms: N_18  and  C_19 
REMARK    3  A    between atoms: C_25  and  O_26 
ROOT
HETATM    1  C   UNK N   1      28.717  17.613   3.941  0.00  0.00     0.115 A 
HETATM    2  N   UNK N   1      27.486  18.127   4.197  0.00  0.00    -0.201 N 
ATOM      3  HN  UNK N   1      26.837  18.284   3.426  1.00  0.00     0.183 HD
HETATM    4  C   UNK N   1      27.102  18.438   5.469  0.00  0.00     0.683 A 
HETATM    5  N   UNK N   1      27.959  18.232   6.496  0.00  0.00    -0.189 N 
ATOM      6  HN  UNK N   1      27.669  18.466   7.446  1.00  0.00     0.184 HD
HETATM    7  C   UNK N   1      29.610  17.395   4.986  0.00  0.00    -0.012 A 
HETATM    8  C   UNK N   1      29.196  17.722   6.284  0.00  0.00     0.085 A 
HETATM    9  C   UNK N   1      31.937  16.594   5.899  0.00  0.00     0.048 A 
HETATM   10  C   UNK N   1      30.985  16.820   4.696  0.00  0.00     0.047 A 
HETATM   11  C   UNK N   1      31.357  16.989   7.223  0.00  0.00     0.008 A 
HETATM   12  C   UNK N   1      30.108  17.503   7.394  0.00  0.00     0.087 A 
HETATM   13  N   UNK N   1      29.906  17.746   8.703  0.00  0.00    -0.293 N 
HETATM   14  N   UNK N   1      30.990  17.402   9.380  0.00  0.00    -0.292 N 
ATOM     15  HN  UNK N   1      31.117  17.477  10.390  1.00  0.00     0.187 HD
HETATM   16  C   UNK N   1      31.899  16.933   8.496  0.00  0.00     0.130 A 
HETATM   17  C   UNK N   1      28.711  18.294   9.323  0.00  0.00     0.178 C 
HETATM   18  N   UNK N   1      25.819  18.976   5.747  0.00  0.00    -0.192 N 
HETATM   19  H   UNK N   1      25.610  19.163   6.691  0.00  0.00     0.184 HD
ENDROOT
BRANCH  18  20
HETATM   20  C   UNK N   1      24.809  19.268   4.794  0.00  0.00     0.049 A 
HETATM   21  C   UNK N   1      24.939  20.317   3.872  0.00  0.00     0.030 A 
HETATM   22  C   UNK N   1      23.924  20.577   2.949  0.00  0.00     0.002 A 
HETATM   23  C   UNK N   1      22.771  19.788   2.944  0.00  0.00     0.000 A 
HETATM   24  C   UNK N   1      22.634  18.742   3.860  0.00  0.00     0.002 A 
HETATM   25  C   UNK N   1      23.651  18.484   4.783  0.00  0.00     0.030 A 
ENDBRANCH  18  20
BRANCH  16  26
HETATM   26  C   UNK N   1      33.233  16.450   8.878  0.00  0.00     0.195 C 
HETATM   27  O   UNK N   1      33.582  15.314   8.600  0.00  0.00    -0.645 OA
BRANCH  26  28
HETATM   28  O   UNK N   1      34.076  17.264   9.540  0.00  0.00    -0.772 OA
HETATM   29  H   UNK N   1      33.902  17.494  10.431  0.00  0.00     0.167 HD
ENDBRANCH  26  28
ENDBRANCH  16  26
TORSDOF 3
ENDMDL
MODEL 5
REMARK VINA RESULT:      -7.2      4.711      8.656
REMARK  3 active torsions:
REMARK  status: ('A' for Active; 'I' for Inactive)
REMARK       I    between atoms: C_4  and  N_18 
REMARK    1  A    between atoms: C_16  and  C_25 
REMARK    2  A    between atoms: N_18  and  C_19 
REMARK    3  A    between atoms: C_25  and  O_26 
ROOT
HETATM    1  C   UNK N   1      27.724  19.425   7.427  0.00  0.00     0.115 A 
HETATM    2  N   UNK N   1      26.991  19.230   6.300  0.00  0.00    -0.201 N 
ATOM      3  HN  UNK N   1      26.211  19.854   6.094  1.00  0.00     0.183 HD
HETATM    4  C   UNK N   1      27.281  18.214   5.437  0.00  0.00     0.683 A 
HETATM    5  N   UNK N   1      28.316  17.383   5.704  0.00  0.00    -0.189 N 
ATOM      6  HN  UNK N   1      28.530  16.624   5.057  1.00  0.00     0.184 HD
HETATM    7  C   UNK N   1      28.792  18.580   7.717  0.00  0.00    -0.012 A 
HETATM    8  C   UNK N   1      29.072  17.543   6.817  0.00  0.00     0.085 A 
HETATM    9  C   UNK N   1      30.788  17.832   9.247  0.00  0.00     0.048 A 
HETATM   10  C   UNK N   1      29.609  18.801   8.977  0.00  0.00     0.047 A 
HETATM   11  C   UNK N   1      30.967  16.775   8.199  0.00  0.00     0.008 A 
HETATM   12  C   UNK N   1      30.182  16.647   7.095  0.00  0.00     0.087 A 
HETATM   13  N   UNK N   1      30.614  15.600   6.365  0.00  0.00    -0.293 N 
HETATM   14  N   UNK N   1      31.656  15.051   6.970  0.00  0.00    -0.292 N 
ATOM     15  HN  UNK N   1      32.185  14.243   6.641  1.00  0.00     0.187 HD
HETATM   16  C   UNK N   1      31.896  15.754   8.100  0.00  0.00     0.130 A 
HETATM   17  C   UNK N   1      30.063  15.112   5.112  0.00  0.00     0.178 C 
HETATM   18  N   UNK N   1      26.522  18.001   4.257  0.00  0.00    -0.192 N 
HETATM   19  H   UNK N   1      26.800  17.256   3.677  0.00  0.00     0.184 HD
ENDROOT
BRANCH  18  20
HETATM   20  C   UNK N   1      25.403  18.763   3.834  0.00  0.00     0.049 A 
HETATM   21  C   UNK N   1      25.546  19.951   3.101  0.00  0.00     0.030 A 
HETATM   22  C   UNK N   1      24.422  20.676   2.703  0.00  0.00     0.002 A 
HETATM   23  C   UNK N   1      23.145  20.217   3.036  0.00  0.00     0.000 A 
HETATM   24  C   UNK N   1      22.994  19.035   3.766  0.00  0.00     0.002 A 
HETATM   25  C   UNK N   1      24.121  18.311   4.163  0.00  0.00     0.030 A 
ENDBRANCH  18  20
BRANCH  16  26
HETATM   26  C   UNK N   1      32.984  15.442   9.038  0.00  0.00     0.195 C 
HETATM   27  O   UNK N   1      34.147  15.514   8.679  0.00  0.00    -0.645 OA
BRANCH  26  28
HETATM   28  O   UNK N   1      32.695  15.073  10.300  0.00  0.00    -0.772 OA
HETATM   29  H   UNK N   1      31.893  15.349  10.697  0.00  0.00     0.167 HD
ENDBRANCH  26  28
ENDBRANCH  16  26
TORSDOF 3
ENDMDL
MODEL 6
REMARK VINA RESULT:      -7.1      5.963      9.202
REMARK  3 active torsions:
REMARK  status: ('A' for Active; 'I' for Inactive)
REMARK       I    between atoms: C_4  and  N_18 
REMARK    1  A    between atoms: C_16  and  C_25 
REMARK    2  A    between atoms: N_18  and  C_19 
REMARK    3  A    between atoms: C_25  and  O_26 
ROOT
HETATM    1  C   UNK N   1      28.281  16.552   6.459  0.00  0.00     0.115 A 
HETATM    2  N   UNK N   1      28.049  15.956   5.259  0.00  0.00    -0.201 N 
ATOM      3  HN  UNK N   1      27.092  15.740   4.983  1.00  0.00     0.183 HD
HETATM    4  C   UNK N   1      29.076  15.642   4.418  0.00  0.00     0.683 A 
HETATM    5  N   UNK N   1      30.349  15.928   4.780  0.00  0.00    -0.189 N 
ATOM      6  HN  UNK N   1      31.115  15.691   4.148  1.00  0.00     0.184 HD
HETATM    7  C   UNK N   1      29.584  16.852   6.846  0.00  0.00    -0.012 A 
HETATM    8  C   UNK N   1      30.623  16.521   5.966  0.00  0.00     0.085 A 
HETATM    9  C   UNK N   1      31.309  17.833   8.563  0.00  0.00     0.048 A 
HETATM   10  C   UNK N   1      29.838  17.518   8.186  0.00  0.00     0.047 A 
HETATM   11  C   UNK N   1      32.310  17.423   7.525  0.00  0.00     0.008 A 
HETATM   12  C   UNK N   1      31.993  16.825   6.345  0.00  0.00     0.087 A 
HETATM   13  N   UNK N   1      33.124  16.592   5.650  0.00  0.00    -0.293 N 
HETATM   14  N   UNK N   1      34.160  17.025   6.352  0.00  0.00    -0.292 N 
ATOM     15  HN  UNK N   1      35.139  16.978   6.069  1.00  0.00     0.187 HD
HETATM   16  C   UNK N   1      33.689  17.541   7.510  0.00  0.00     0.130 A 
HETATM   17  C   UNK N   1      33.242  15.973   4.341  0.00  0.00     0.178 C 
HETATM   18  N   UNK N   1      28.846  15.020   3.164  0.00  0.00    -0.192 N 
HETATM   19  H   UNK N   1      29.636  14.836   2.606  0.00  0.00     0.184 HD
ENDROOT
BRANCH  18  20
HETATM   20  C   UNK N   1      27.584  14.639   2.638  0.00  0.00     0.049 A 
HETATM   21  C   UNK N   1      26.676  15.582   2.132  0.00  0.00     0.030 A 
HETATM   22  C   UNK N   1      25.442  15.172   1.624  0.00  0.00     0.002 A 
HETATM   23  C   UNK N   1      25.109  13.815   1.619  0.00  0.00     0.000 A 
HETATM   24  C   UNK N   1      26.008  12.871   2.121  0.00  0.00     0.002 A 
HETATM   25  C   UNK N   1      27.242  13.283   2.629  0.00  0.00     0.030 A 
ENDBRANCH  18  20
BRANCH  16  26
HETATM   26  C   UNK N   1      34.547  18.125   8.549  0.00  0.00     0.195 C 
HETATM   27  O   UNK N   1      35.220  19.114   8.312  0.00  0.00    -0.645 OA
BRANCH  26  28
HETATM   28  O   UNK N   1      34.594  17.564   9.772  0.00  0.00    -0.772 OA
HETATM   29  H   UNK N   1      35.087  17.972  10.457  0.00  0.00     0.167 HD
ENDBRANCH  26  28
ENDBRANCH  16  26
TORSDOF 3
ENDMDL
MODEL 7
REMARK VINA RESULT:      -7.0      5.020      8.654
REMARK  3 active torsions:
REMARK  status: ('A' for Active; 'I' for Inactive)
REMARK       I    between atoms: C_4  and  N_18 
REMARK    1  A    between atoms: C_16  and  C_25 
REMARK    2  A    between atoms: N_18  and  C_19 
REMARK    3  A    between atoms: C_25  and  O_26 
ROOT
HETATM    1  C   UNK N   1      29.249  16.953   3.890  0.00  0.00     0.115 A 
HETATM    2  N   UNK N   1      27.954  16.847   4.291  0.00  0.00    -0.201 N 
ATOM      3  HN  UNK N   1      27.221  16.719   3.593  1.00  0.00     0.183 HD
HETATM    4  C   UNK N   1      27.618  16.909   5.611  0.00  0.00     0.683 A 
HETATM    5  N   UNK N   1      28.586  17.077   6.541  0.00  0.00    -0.189 N 
ATOM      6  HN  UNK N   1      28.332  17.123   7.528  1.00  0.00     0.184 HD
HETATM    7  C   UNK N   1      30.257  17.126   4.834  0.00  0.00    -0.012 A 
HETATM    8  C   UNK N   1      29.888  17.187   6.184  0.00  0.00     0.085 A 
HETATM    9  C   UNK N   1      32.783  17.432   5.477  0.00  0.00     0.048 A 
HETATM   10  C   UNK N   1      31.701  17.244   4.382  0.00  0.00     0.047 A 
HETATM   11  C   UNK N   1      32.240  17.477   6.874  0.00  0.00     0.008 A 
HETATM   12  C   UNK N   1      30.922  17.366   7.191  0.00  0.00     0.087 A 
HETATM   13  N   UNK N   1      30.780  17.448   8.528  0.00  0.00    -0.293 N 
HETATM   14  N   UNK N   1      31.973  17.608   9.081  0.00  0.00    -0.292 N 
ATOM     15  HN  UNK N   1      32.166  17.698  10.079  1.00  0.00     0.187 HD
HETATM   16  C   UNK N   1      32.890  17.629   8.087  0.00  0.00     0.130 A 
HETATM   17  C   UNK N   1      29.545  17.376   9.290  0.00  0.00     0.178 C 
HETATM   18  N   UNK N   1      26.270  16.799   6.040  0.00  0.00    -0.192 N 
HETATM   19  H   UNK N   1      26.107  16.840   7.010  0.00  0.00     0.184 HD
ENDROOT
BRANCH  18  20
HETATM   20  C   UNK N   1      25.136  16.636   5.204  0.00  0.00     0.049 A 
HETATM   21  C   UNK N   1      24.718  15.373   4.758  0.00  0.00     0.030 A 
HETATM   22  C   UNK N   1      23.598  15.249   3.933  0.00  0.00     0.002 A 
HETATM   23  C   UNK N   1      22.889  16.390   3.549  0.00  0.00     0.000 A 
HETATM   24  C   UNK N   1      23.299  17.651   3.988  0.00  0.00     0.002 A 
HETATM   25  C   UNK N   1      24.420  17.772   4.813  0.00  0.00     0.030 A 
ENDBRANCH  18  20
BRANCH  16  26
HETATM   26  C   UNK N   1      34.333  17.788   8.314  0.00  0.00     0.195 C 
HETATM   27  O   UNK N   1      35.035  16.814   8.528  0.00  0.00    -0.645 OA
BRANCH  26  28
HETATM   28  O   UNK N   1      34.884  19.015   8.287  0.00  0.00    -0.772 OA
HETATM   29  H   UNK N   1      35.484  19.245   7.605  0.00  0.00     0.167 HD
ENDBRANCH  26  28
ENDBRANCH  16  26
TORSDOF 3
ENDMDL
MODEL 8
REMARK VINA RESULT:      -6.9      3.785      6.317
REMARK  3 active torsions:
REMARK  status: ('A' for Active; 'I' for Inactive)
REMARK       I    between atoms: C_4  and  N_18 
REMARK    1  A    between atoms: C_16  and  C_25 
REMARK    2  A    between atoms: N_18  and  C_19 
REMARK    3  A    between atoms: C_25  and  O_26 
ROOT
HETATM    1  C   UNK N   1      32.481  15.973   6.149  0.00  0.00     0.115 A 
HETATM    2  N   UNK N   1      33.059  15.677   7.343  0.00  0.00    -0.201 N 
ATOM      3  HN  UNK N   1      33.925  15.138   7.361  1.00  0.00     0.183 HD
HETATM    4  C   UNK N   1      32.501  16.088   8.518  0.00  0.00     0.683 A 
HETATM    5  N   UNK N   1      31.353  16.804   8.499  0.00  0.00    -0.189 N 
ATOM      6  HN  UNK N   1      30.938  17.111   9.380  1.00  0.00     0.184 HD
HETATM    7  C   UNK N   1      31.300  16.709   6.113  0.00  0.00    -0.012 A 
HETATM    8  C   UNK N   1      30.744  17.121   7.331  0.00  0.00     0.085 A 
HETATM    9  C   UNK N   1      29.345  17.863   4.797  0.00  0.00     0.048 A 
HETATM   10  C   UNK N   1      30.657  17.038   4.778  0.00  0.00     0.047 A 
HETATM   11  C   UNK N   1      28.872  18.233   6.170  0.00  0.00     0.008 A 
HETATM   12  C   UNK N   1      29.512  17.892   7.322  0.00  0.00     0.087 A 
HETATM   13  N   UNK N   1      28.823  18.380   8.371  0.00  0.00    -0.293 N 
HETATM   14  N   UNK N   1      27.757  19.027   7.927  0.00  0.00    -0.292 N 
ATOM     15  HN  UNK N   1      27.057  19.499   8.500  1.00  0.00     0.187 HD
HETATM   16  C   UNK N   1      27.762  18.953   6.577  0.00  0.00     0.130 A 
HETATM   17  C   UNK N   1      29.154  18.249   9.780  0.00  0.00     0.178 C 
HETATM   18  N   UNK N   1      33.097  15.785   9.770  0.00  0.00    -0.192 N 
HETATM   19  H   UNK N   1      32.643  16.127  10.573  0.00  0.00     0.184 HD
ENDROOT
BRANCH  18  20
HETATM   20  C   UNK N   1      34.285  15.036   9.972  0.00  0.00     0.049 A 
HETATM   21  C   UNK N   1      34.277  13.634  10.036  0.00  0.00     0.030 A 
HETATM   22  C   UNK N   1      35.465  12.929  10.237  0.00  0.00     0.002 A 
HETATM   23  C   UNK N   1      36.670  13.623  10.377  0.00  0.00     0.000 A 
HETATM   24  C   UNK N   1      36.685  15.019  10.315  0.00  0.00     0.002 A 
HETATM   25  C   UNK N   1      35.495  15.722  10.113  0.00  0.00     0.030 A 
ENDBRANCH  18  20
BRANCH  16  26
HETATM   26  C   UNK N   1      26.731  19.561   5.724  0.00  0.00     0.195 C 
HETATM   27  O   UNK N   1      26.889  20.679   5.264  0.00  0.00    -0.645 OA
BRANCH  26  28
HETATM   28  O   UNK N   1      25.602  18.880   5.450  0.00  0.00    -0.772 OA
HETATM   29  H   UNK N   1      25.395  18.653   4.565  0.00  0.00     0.167 HD
ENDBRANCH  26  28
ENDBRANCH  16  26
TORSDOF 3
ENDMDL
MODEL 9
REMARK VINA RESULT:      -6.8      5.769      9.045
REMARK  3 active torsions:
REMARK  status: ('A' for Active; 'I' for Inactive)
REMARK       I    between atoms: C_4  and  N_18 
REMARK    1  A    between atoms: C_16  and  C_25 
REMARK    2  A    between atoms: N_18  and  C_19 
REMARK    3  A    between atoms: C_25  and  O_26 
ROOT
HETATM    1  C   UNK N   1      24.032  15.614   5.217  0.00  0.00     0.115 A 
HETATM    2  N   UNK N   1      23.011  16.405   4.795  0.00  0.00    -0.201 N 
ATOM      3  HN  UNK N   1      23.104  16.919   3.918  1.00  0.00     0.183 HD
HETATM    4  C   UNK N   1      21.864  16.525   5.523  0.00  0.00     0.683 A 
HETATM    5  N   UNK N   1      21.735  15.845   6.686  0.00  0.00    -0.189 N 
ATOM      6  HN  UNK N   1      20.876  15.937   7.229  1.00  0.00     0.184 HD
HETATM    7  C   UNK N   1      23.916  14.908   6.411  0.00  0.00    -0.012 A 
HETATM    8  C   UNK N   1      22.728  15.046   7.143  0.00  0.00     0.085 A 
HETATM    9  C   UNK N   1      24.872  13.259   8.215  0.00  0.00     0.048 A 
HETATM   10  C   UNK N   1      25.057  14.025   6.880  0.00  0.00     0.047 A 
HETATM   11  C   UNK N   1      23.553  13.504   8.884  0.00  0.00     0.008 A 
HETATM   12  C   UNK N   1      22.580  14.319   8.393  0.00  0.00     0.087 A 
HETATM   13  N   UNK N   1      21.530  14.313   9.237  0.00  0.00    -0.293 N 
HETATM   14  N   UNK N   1      21.801  13.514  10.259  0.00  0.00    -0.292 N 
ATOM     15  HN  UNK N   1      21.185  13.319  11.048  1.00  0.00     0.187 HD
HETATM   16  C   UNK N   1      23.038  13.003  10.068  0.00  0.00     0.130 A 
HETATM   17  C   UNK N   1      20.282  15.042   9.096  0.00  0.00     0.178 C 
HETATM   18  N   UNK N   1      20.792  17.349   5.091  0.00  0.00    -0.192 N 
HETATM   19  H   UNK N   1      19.992  17.374   5.663  0.00  0.00     0.184 HD
ENDROOT
BRANCH  18  20
HETATM   20  C   UNK N   1      20.765  18.138   3.912  0.00  0.00     0.049 A 
HETATM   21  C   UNK N   1      21.165  19.482   3.909  0.00  0.00     0.030 A 
HETATM   22  C   UNK N   1      21.124  20.229   2.730  0.00  0.00     0.002 A 
HETATM   23  C   UNK N   1      20.682  19.635   1.546  0.00  0.00     0.000 A 
HETATM   24  C   UNK N   1      20.281  18.297   1.541  0.00  0.00     0.002 A 
HETATM   25  C   UNK N   1      20.323  17.551   2.722  0.00  0.00     0.030 A 
ENDBRANCH  18  20
BRANCH  16  26
HETATM   26  C   UNK N   1      23.684  12.067  10.998  0.00  0.00     0.195 C 
HETATM   27  O   UNK N   1      23.149  11.007  11.279  0.00  0.00    -0.645 OA
BRANCH  26  28
HETATM   28  O   UNK N   1      24.873  12.380  11.545  0.00  0.00    -0.772 OA
HETATM   29  H   UNK N   1      25.397  11.712  11.941  0.00  0.00     0.167 HD
ENDBRANCH  26  28
ENDBRANCH  16  26
TORSDOF 3
ENDMDL
