REMARK  3 active torsions:
REMARK  status: ('A' for Active; 'I' for Inactive)
REMARK       I    between atoms: C_4  and  N_18 
REMARK    1  A    between atoms: C_16  and  C_25 
REMARK    2  A    between atoms: N_18  and  C_19 
REMARK    3  A    between atoms: C_25  and  O_26 
ROOT
HETATM    1  C   UNK N   1       1.049   1.624   0.012  0.00  0.00     0.115 A 
HETATM    2  N   UNK N   1       1.735   0.451   0.015  0.00  0.00    -0.201 N 
ATOM      3  HN  UNK N   1       2.755   0.466   0.020  1.00  0.00     0.183 HD
HETATM    4  C   UNK N   1       1.083  -0.747   0.011  0.00  0.00     0.683 A 
HETATM    5  N   UNK N   1      -0.270  -0.773   0.005  0.00  0.00    -0.189 N 
ATOM      6  HN  UNK N   1      -0.755  -1.671   0.002  1.00  0.00     0.184 HD
HETATM    7  C   UNK N   1      -0.343   1.615   0.006  0.00  0.00    -0.012 A 
HETATM    8  C   UNK N   1      -0.992   0.373   0.002  0.00  0.00     0.085 A 
HETATM    9  C   UNK N   1      -2.655   2.857  -0.000  0.00  0.00     0.048 A 
HETATM   10  C   UNK N   1      -1.106   2.927   0.003  0.00  0.00     0.047 A 
HETATM   11  C   UNK N   1      -3.206   1.463  -0.003  0.00  0.00     0.008 A 
HETATM   12  C   UNK N   1      -2.445   0.335  -0.003  0.00  0.00     0.087 A 
HETATM   13  N   UNK N   1      -3.253  -0.743  -0.006  0.00  0.00    -0.293 N 
HETATM   14  N   UNK N   1      -4.514  -0.339  -0.007  0.00  0.00    -0.292 N 
ATOM     15  HN  UNK N   1      -5.338  -0.941  -0.008  1.00  0.00     0.187 HD
HETATM   16  C   UNK N   1      -4.515   1.013  -0.005  0.00  0.00     0.130 A 
HETATM   17  C   UNK N   1      -2.857  -2.141  -0.006  0.00  0.00     0.178 C 
HETATM   18  N   UNK N   1       1.790  -1.978   0.014  0.00  0.00    -0.192 N 
HETATM   19  H   UNK N   1       1.250  -2.801   0.024  0.00  0.00     0.184 HD
ENDROOT
BRANCH  18  20
HETATM   20  C   UNK N   1       3.200  -2.133   0.005  0.00  0.00     0.049 A 
HETATM   21  C   UNK N   1       4.068  -1.031  -0.023  0.00  0.00     0.030 A 
HETATM   22  C   UNK N   1       5.451  -1.221  -0.033  0.00  0.00     0.002 A 
HETATM   23  C   UNK N   1       5.975  -2.516  -0.016  0.00  0.00     0.000 A 
HETATM   24  C   UNK N   1       5.117  -3.618   0.011  0.00  0.00     0.002 A 
HETATM   25  C   UNK N   1       3.733  -3.426   0.021  0.00  0.00     0.030 A 
ENDBRANCH  18  20
BRANCH  16  26
HETATM   26  C   UNK N   1      -5.739   1.826  -0.002  0.00  0.00     0.195 C 
HETATM   27  O   UNK N   1      -5.672   3.044   0.000  0.00  0.00    -0.645 OA
BRANCH  26  28
HETATM   28  O   UNK N   1      -6.943   1.224  -0.000  0.00  0.00    -0.772 OA
HETATM   29  H   UNK N   1      -7.725   1.740   0.001  0.00  0.00     0.167 HD
ENDBRANCH  26  28
ENDBRANCH  16  26
TORSDOF 3
