MODEL 1
REMARK VINA RESULT:      -7.0      0.000      0.000
REMARK  5 active torsions:
REMARK  status: ('A' for Active; 'I' for Inactive)
REMARK    1  A    between atoms: C_4  and  C_7 
REMARK    2  A    between atoms: C_5  and  C_8 
REMARK    3  A    between atoms: C_12  and  O_22 
REMARK    4  A    between atoms: C_15  and  O_21 
REMARK    5  A    between atoms: C_17  and  O_20 
ROOT
HETATM    1  N   UNK N   1      28.153  15.357   2.667  0.00  0.00    -0.304 N 
HETATM    2  N   UNK N   1      29.413  15.485   3.058  0.00  0.00    -0.299 N 
ATOM      3  HN  UNK N   1      30.176  14.859   2.802  1.00  0.00     0.187 HD
HETATM    4  C   UNK N   1      29.529  16.574   3.847  0.00  0.00     0.074 A 
HETATM    5  C   UNK N   1      28.260  17.180   3.951  0.00  0.00     0.027 A 
HETATM    6  C   UNK N   1      27.432  16.356   3.200  0.00  0.00     0.035 A 
HETATM    7  C   UNK N   1      25.973  16.523   2.945  0.00  0.00     0.070 C 
HETATM    8  H   UNK N   1      27.803  14.646   2.084  0.00  0.00     0.186 HD
ENDROOT
BRANCH   4   9
HETATM    9  C   UNK N   1      30.827  16.920   4.521  0.00  0.00     0.026 A 
HETATM   10  C   UNK N   1      31.976  17.289   3.774  0.00  0.00     0.081 A 
HETATM   11  C   UNK N   1      33.178  17.583   4.431  0.00  0.00     0.074 A 
HETATM   12  C   UNK N   1      33.261  17.509   5.822  0.00  0.00     0.068 A 
HETATM   13  C   UNK N   1      32.148  17.131   6.562  0.00  0.00     0.037 A 
HETATM   14  C   UNK N   1      30.953  16.835   5.912  0.00  0.00     0.019 A 
BRANCH  10  15
HETATM   15  O   UNK N   1      31.939  17.367   2.433  0.00  0.00    -0.360 OA
HETATM   16  H   UNK N   1      31.771  18.186   2.011  0.00  0.00     0.217 HD
ENDBRANCH  10  15
BRANCH  12  17
HETATM   17  O   UNK N   1      34.414  17.798   6.447  0.00  0.00    -0.361 OA
HETATM   18  H   UNK N   1      35.073  17.140   6.542  0.00  0.00     0.217 HD
ENDBRANCH  12  17
ENDBRANCH   4   9
BRANCH   5  19
HETATM   19  C   UNK N   1      27.822  18.412   4.674  0.00  0.00    -0.021 A 
HETATM   20  C   UNK N   1      27.832  18.472   6.071  0.00  0.00     0.015 A 
HETATM   21  C   UNK N   1      27.386  19.602   6.750  0.00  0.00     0.037 A 
HETATM   22  C   UNK N   1      26.920  20.714   6.036  0.00  0.00     0.068 A 
HETATM   23  C   UNK N   1      26.947  20.685   4.637  0.00  0.00     0.037 A 
HETATM   24  C   UNK N   1      27.405  19.548   3.961  0.00  0.00     0.015 A 
BRANCH  22  25
HETATM   25  O   UNK N   1      26.440  21.809   6.670  0.00  0.00    -0.356 OA
HETATM   26  C   UNK N   1      25.829  21.754   7.903  0.00  0.00     0.210 C 
ENDBRANCH  22  25
ENDBRANCH   5  19
TORSDOF 5
ENDMDL
MODEL 2
REMARK VINA RESULT:      -7.0      2.502      6.425
REMARK  5 active torsions:
REMARK  status: ('A' for Active; 'I' for Inactive)
REMARK    1  A    between atoms: C_4  and  C_7 
REMARK    2  A    between atoms: C_5  and  C_8 
REMARK    3  A    between atoms: C_12  and  O_22 
REMARK    4  A    between atoms: C_15  and  O_21 
REMARK    5  A    between atoms: C_17  and  O_20 
ROOT
HETATM    1  N   UNK N   1      31.622  15.459   3.576  0.00  0.00    -0.304 N 
HETATM    2  N   UNK N   1      30.540  16.060   4.049  0.00  0.00    -0.299 N 
ATOM      3  HN  UNK N   1      29.640  16.115   3.572  1.00  0.00     0.187 HD
HETATM    4  C   UNK N   1      30.813  16.587   5.261  0.00  0.00     0.074 A 
HETATM    5  C   UNK N   1      32.154  16.287   5.580  0.00  0.00     0.027 A 
HETATM    6  C   UNK N   1      32.614  15.591   4.470  0.00  0.00     0.035 A 
HETATM    7  C   UNK N   1      33.971  15.010   4.261  0.00  0.00     0.070 C 
HETATM    8  H   UNK N   1      31.688  14.993   2.711  0.00  0.00     0.186 HD
ENDROOT
BRANCH   4   9
HETATM    9  C   UNK N   1      29.802  17.415   6.003  0.00  0.00     0.026 A 
HETATM   10  C   UNK N   1      28.876  18.244   5.319  0.00  0.00     0.081 A 
HETATM   11  C   UNK N   1      27.961  19.022   6.040  0.00  0.00     0.074 A 
HETATM   12  C   UNK N   1      27.956  18.997   7.435  0.00  0.00     0.068 A 
HETATM   13  C   UNK N   1      28.870  18.204   8.116  0.00  0.00     0.037 A 
HETATM   14  C   UNK N   1      29.783  17.432   7.402  0.00  0.00     0.019 A 
BRANCH  10  15
HETATM   15  O   UNK N   1      28.851  18.300   3.976  0.00  0.00    -0.360 OA
HETATM   16  H   UNK N   1      29.373  17.712   3.468  0.00  0.00     0.217 HD
ENDBRANCH  10  15
BRANCH  12  17
HETATM   17  O   UNK N   1      27.073  19.740   8.122  0.00  0.00    -0.361 OA
HETATM   18  H   UNK N   1      26.215  19.408   8.295  0.00  0.00     0.217 HD
ENDBRANCH  12  17
ENDBRANCH   4   9
BRANCH   5  19
HETATM   19  C   UNK N   1      32.963  16.605   6.794  0.00  0.00    -0.021 A 
HETATM   20  C   UNK N   1      33.677  17.803   6.894  0.00  0.00     0.015 A 
HETATM   21  C   UNK N   1      34.467  18.086   8.004  0.00  0.00     0.037 A 
HETATM   22  C   UNK N   1      34.554  17.165   9.057  0.00  0.00     0.068 A 
HETATM   23  C   UNK N   1      33.810  15.982   8.991  0.00  0.00     0.037 A 
HETATM   24  C   UNK N   1      33.012  15.709   7.874  0.00  0.00     0.015 A 
BRANCH  22  25
HETATM   25  O   UNK N   1      35.347  17.394  10.130  0.00  0.00    -0.356 OA
HETATM   26  C   UNK N   1      35.757  16.395  10.985  0.00  0.00     0.210 C 
ENDBRANCH  22  25
ENDBRANCH   5  19
TORSDOF 5
ENDMDL
MODEL 3
REMARK VINA RESULT:      -6.8      2.337      3.086
REMARK  5 active torsions:
REMARK  status: ('A' for Active; 'I' for Inactive)
REMARK    1  A    between atoms: C_4  and  C_7 
REMARK    2  A    between atoms: C_5  and  C_8 
REMARK    3  A    between atoms: C_12  and  O_22 
REMARK    4  A    between atoms: C_15  and  O_21 
REMARK    5  A    between atoms: C_17  and  O_20 
ROOT
HETATM    1  N   UNK N   1      30.028  13.927   5.519  0.00  0.00    -0.304 N 
HETATM    2  N   UNK N   1      31.162  14.440   5.974  0.00  0.00    -0.299 N 
ATOM      3  HN  UNK N   1      32.023  13.917   6.134  1.00  0.00     0.187 HD
HETATM    4  C   UNK N   1      31.001  15.762   6.193  0.00  0.00     0.074 A 
HETATM    5  C   UNK N   1      29.680  16.109   5.840  0.00  0.00     0.027 A 
HETATM    6  C   UNK N   1      29.113  14.906   5.440  0.00  0.00     0.035 A 
HETATM    7  C   UNK N   1      27.727  14.676   4.943  0.00  0.00     0.070 C 
HETATM    8  H   UNK N   1      29.880  12.984   5.279  0.00  0.00     0.186 HD
ENDROOT
BRANCH   4   9
HETATM    9  C   UNK N   1      32.092  16.595   6.805  0.00  0.00     0.026 A 
HETATM   10  C   UNK N   1      32.080  16.940   8.181  0.00  0.00     0.081 A 
HETATM   11  C   UNK N   1      33.100  17.737   8.715  0.00  0.00     0.074 A 
HETATM   12  C   UNK N   1      34.132  18.207   7.901  0.00  0.00     0.068 A 
HETATM   13  C   UNK N   1      34.144  17.890   6.549  0.00  0.00     0.037 A 
HETATM   14  C   UNK N   1      33.130  17.100   6.014  0.00  0.00     0.019 A 
BRANCH  10  15
HETATM   15  O   UNK N   1      31.102  16.513   8.997  0.00  0.00    -0.360 OA
HETATM   16  H   UNK N   1      30.671  17.112   9.574  0.00  0.00     0.217 HD
ENDBRANCH  10  15
BRANCH  12  17
HETATM   17  O   UNK N   1      35.111  18.966   8.420  0.00  0.00    -0.361 OA
HETATM   18  H   UNK N   1      34.914  19.595   9.085  0.00  0.00     0.217 HD
ENDBRANCH  12  17
ENDBRANCH   4   9
BRANCH   5  19
HETATM   19  C   UNK N   1      28.979  17.427   5.862  0.00  0.00    -0.021 A 
HETATM   20  C   UNK N   1      28.775  18.157   4.687  0.00  0.00     0.015 A 
HETATM   21  C   UNK N   1      28.160  19.405   4.707  0.00  0.00     0.037 A 
HETATM   22  C   UNK N   1      27.723  19.954   5.920  0.00  0.00     0.068 A 
HETATM   23  C   UNK N   1      27.880  19.215   7.098  0.00  0.00     0.037 A 
HETATM   24  C   UNK N   1      28.493  17.957   7.068  0.00  0.00     0.015 A 
BRANCH  22  25
HETATM   25  O   UNK N   1      27.161  21.184   5.976  0.00  0.00    -0.356 OA
HETATM   26  C   UNK N   1      26.321  21.579   6.994  0.00  0.00     0.210 C 
ENDBRANCH  22  25
ENDBRANCH   5  19
TORSDOF 5
ENDMDL
MODEL 4
REMARK VINA RESULT:      -6.8     10.617     12.820
REMARK  5 active torsions:
REMARK  status: ('A' for Active; 'I' for Inactive)
REMARK    1  A    between atoms: C_4  and  C_7 
REMARK    2  A    between atoms: C_5  and  C_8 
REMARK    3  A    between atoms: C_12  and  O_22 
REMARK    4  A    between atoms: C_15  and  O_21 
REMARK    5  A    between atoms: C_17  and  O_20 
ROOT
HETATM    1  N   UNK N   1      25.245  25.368  -6.009  0.00  0.00    -0.304 N 
HETATM    2  N   UNK N   1      25.617  26.513  -5.453  0.00  0.00    -0.299 N 
ATOM      3  HN  UNK N   1      25.149  27.410  -5.582  1.00  0.00     0.187 HD
HETATM    4  C   UNK N   1      26.710  26.305  -4.689  0.00  0.00     0.074 A 
HETATM    5  C   UNK N   1      27.043  24.937  -4.757  0.00  0.00     0.027 A 
HETATM    6  C   UNK N   1      26.093  24.404  -5.619  0.00  0.00     0.035 A 
HETATM    7  C   UNK N   1      25.951  22.983  -6.047  0.00  0.00     0.070 C 
HETATM    8  H   UNK N   1      24.476  25.245  -6.610  0.00  0.00     0.186 HD
ENDROOT
BRANCH   4   9
HETATM    9  C   UNK N   1      27.417  27.443  -4.007  0.00  0.00     0.026 A 
HETATM   10  C   UNK N   1      26.704  28.440  -3.293  0.00  0.00     0.081 A 
HETATM   11  C   UNK N   1      27.391  29.501  -2.689  0.00  0.00     0.074 A 
HETATM   12  C   UNK N   1      28.780  29.593  -2.789  0.00  0.00     0.068 A 
HETATM   13  C   UNK N   1      29.487  28.633  -3.501  0.00  0.00     0.037 A 
HETATM   14  C   UNK N   1      28.806  27.579  -4.106  0.00  0.00     0.019 A 
BRANCH  10  15
HETATM   15  O   UNK N   1      25.366  28.391  -3.178  0.00  0.00    -0.360 OA
HETATM   16  H   UNK N   1      24.835  29.080  -3.525  0.00  0.00     0.217 HD
ENDBRANCH  10  15
BRANCH  12  17
HETATM   17  O   UNK N   1      29.435  30.608  -2.202  0.00  0.00    -0.361 OA
HETATM   18  H   UNK N   1      30.125  30.431  -1.594  0.00  0.00     0.217 HD
ENDBRANCH  12  17
ENDBRANCH   4   9
BRANCH   5  19
HETATM   19  C   UNK N   1      28.136  24.164  -4.096  0.00  0.00    -0.021 A 
HETATM   20  C   UNK N   1      28.004  23.704  -2.782  0.00  0.00     0.015 A 
HETATM   21  C   UNK N   1      29.037  23.021  -2.146  0.00  0.00     0.037 A 
HETATM   22  C   UNK N   1      30.238  22.774  -2.824  0.00  0.00     0.068 A 
HETATM   23  C   UNK N   1      30.368  23.188  -4.154  0.00  0.00     0.037 A 
HETATM   24  C   UNK N   1      29.321  23.868  -4.789  0.00  0.00     0.015 A 
BRANCH  22  25
HETATM   25  O   UNK N   1      31.274  22.150  -2.218  0.00  0.00    -0.356 OA
HETATM   26  C   UNK N   1      32.303  21.554  -2.915  0.00  0.00     0.210 C 
ENDBRANCH  22  25
ENDBRANCH   5  19
TORSDOF 5
ENDMDL
MODEL 5
REMARK VINA RESULT:      -6.7      3.936      6.380
REMARK  5 active torsions:
REMARK  status: ('A' for Active; 'I' for Inactive)
REMARK    1  A    between atoms: C_4  and  C_7 
REMARK    2  A    between atoms: C_5  and  C_8 
REMARK    3  A    between atoms: C_12  and  O_22 
REMARK    4  A    between atoms: C_15  and  O_21 
REMARK    5  A    between atoms: C_17  and  O_20 
ROOT
HETATM    1  N   UNK N   1      28.871  17.780   6.992  0.00  0.00    -0.304 N 
HETATM    2  N   UNK N   1      29.352  17.278   5.863  0.00  0.00    -0.299 N 
ATOM      3  HN  UNK N   1      28.827  17.171   4.995  1.00  0.00     0.187 HD
HETATM    4  C   UNK N   1      30.644  16.932   6.041  0.00  0.00     0.074 A 
HETATM    5  C   UNK N   1      31.007  17.249   7.367  0.00  0.00     0.027 A 
HETATM    6  C   UNK N   1      29.841  17.763   7.919  0.00  0.00     0.035 A 
HETATM    7  C   UNK N   1      29.643  18.278   9.304  0.00  0.00     0.070 C 
HETATM    8  H   UNK N   1      27.954  18.111   7.129  0.00  0.00     0.186 HD
ENDROOT
BRANCH   4   9
HETATM    9  C   UNK N   1      31.428  16.244   4.959  0.00  0.00     0.026 A 
HETATM   10  C   UNK N   1      31.509  14.829   4.886  0.00  0.00     0.081 A 
HETATM   11  C   UNK N   1      32.267  14.219   3.878  0.00  0.00     0.074 A 
HETATM   12  C   UNK N   1      32.956  14.992   2.944  0.00  0.00     0.068 A 
HETATM   13  C   UNK N   1      32.900  16.378   3.017  0.00  0.00     0.037 A 
HETATM   14  C   UNK N   1      32.149  16.988   4.019  0.00  0.00     0.019 A 
BRANCH  10  15
HETATM   15  O   UNK N   1      30.864  14.049   5.770  0.00  0.00    -0.360 OA
HETATM   16  H   UNK N   1      29.945  14.156   5.914  0.00  0.00     0.217 HD
ENDBRANCH  10  15
BRANCH  12  17
HETATM   17  O   UNK N   1      33.677  14.402   1.976  0.00  0.00    -0.361 OA
HETATM   18  H   UNK N   1      34.177  13.634   2.167  0.00  0.00     0.217 HD
ENDBRANCH  12  17
ENDBRANCH   4   9
BRANCH   5  19
HETATM   19  C   UNK N   1      32.308  17.098   8.086  0.00  0.00    -0.021 A 
HETATM   20  C   UNK N   1      32.579  15.967   8.861  0.00  0.00     0.015 A 
HETATM   21  C   UNK N   1      33.772  15.841   9.567  0.00  0.00     0.037 A 
HETATM   22  C   UNK N   1      34.735  16.857   9.504  0.00  0.00     0.068 A 
HETATM   23  C   UNK N   1      34.497  17.974   8.697  0.00  0.00     0.037 A 
HETATM   24  C   UNK N   1      33.298  18.089   7.984  0.00  0.00     0.015 A 
BRANCH  22  25
HETATM   25  O   UNK N   1      35.886  16.782  10.213  0.00  0.00    -0.356 OA
HETATM   26  C   UNK N   1      36.266  15.655  10.908  0.00  0.00     0.210 C 
ENDBRANCH  22  25
ENDBRANCH   5  19
TORSDOF 5
ENDMDL
MODEL 6
REMARK VINA RESULT:      -6.6     10.496     11.931
REMARK  5 active torsions:
REMARK  status: ('A' for Active; 'I' for Inactive)
REMARK    1  A    between atoms: C_4  and  C_7 
REMARK    2  A    between atoms: C_5  and  C_8 
REMARK    3  A    between atoms: C_12  and  O_22 
REMARK    4  A    between atoms: C_15  and  O_21 
REMARK    5  A    between atoms: C_17  and  O_20 
ROOT
HETATM    1  N   UNK N   1      25.506  24.554  -6.102  0.00  0.00    -0.304 N 
HETATM    2  N   UNK N   1      26.469  23.760  -5.656  0.00  0.00    -0.299 N 
ATOM      3  HN  UNK N   1      26.559  22.766  -5.868  1.00  0.00     0.187 HD
HETATM    4  C   UNK N   1      27.313  24.472  -4.880  0.00  0.00     0.074 A 
HETATM    5  C   UNK N   1      26.859  25.807  -4.843  0.00  0.00     0.027 A 
HETATM    6  C   UNK N   1      25.706  25.789  -5.618  0.00  0.00     0.035 A 
HETATM    7  C   UNK N   1      24.812  26.938  -5.941  0.00  0.00     0.070 C 
HETATM    8  H   UNK N   1      24.764  24.282  -6.689  0.00  0.00     0.186 HD
ENDROOT
BRANCH   4   9
HETATM    9  C   UNK N   1      28.454  23.815  -4.154  0.00  0.00     0.026 A 
HETATM   10  C   UNK N   1      28.375  23.508  -2.771  0.00  0.00     0.081 A 
HETATM   11  C   UNK N   1      29.465  22.917  -2.118  0.00  0.00     0.074 A 
HETATM   12  C   UNK N   1      30.639  22.632  -2.816  0.00  0.00     0.068 A 
HETATM   13  C   UNK N   1      30.734  22.945  -4.166  0.00  0.00     0.037 A 
HETATM   14  C   UNK N   1      29.653  23.535  -4.817  0.00  0.00     0.019 A 
BRANCH  10  15
HETATM   15  O   UNK N   1      27.265  23.772  -2.061  0.00  0.00    -0.360 OA
HETATM   16  H   UNK N   1      26.516  24.151  -2.477  0.00  0.00     0.217 HD
ENDBRANCH  10  15
BRANCH  12  17
HETATM   17  O   UNK N   1      31.678  22.060  -2.188  0.00  0.00    -0.361 OA
HETATM   18  H   UNK N   1      31.652  21.932  -1.260  0.00  0.00     0.217 HD
ENDBRANCH  12  17
ENDBRANCH   4   9
BRANCH   5  19
HETATM   19  C   UNK N   1      27.420  27.010  -4.160  0.00  0.00    -0.021 A 
HETATM   20  C   UNK N   1      28.719  27.453  -4.427  0.00  0.00     0.015 A 
HETATM   21  C   UNK N   1      29.262  28.548  -3.762  0.00  0.00     0.037 A 
HETATM   22  C   UNK N   1      28.503  29.238  -2.807  0.00  0.00     0.068 A 
HETATM   23  C   UNK N   1      27.186  28.834  -2.562  0.00  0.00     0.037 A 
HETATM   24  C   UNK N   1      26.644  27.736  -3.241  0.00  0.00     0.015 A 
BRANCH  22  25
HETATM   25  O   UNK N   1      29.019  30.280  -2.114  0.00  0.00    -0.356 OA
HETATM   26  C   UNK N   1      29.093  30.302  -0.739  0.00  0.00     0.210 C 
ENDBRANCH  22  25
ENDBRANCH   5  19
TORSDOF 5
ENDMDL
MODEL 7
REMARK VINA RESULT:      -6.5     11.447     12.860
REMARK  5 active torsions:
REMARK  status: ('A' for Active; 'I' for Inactive)
REMARK    1  A    between atoms: C_4  and  C_7 
REMARK    2  A    between atoms: C_5  and  C_8 
REMARK    3  A    between atoms: C_12  and  O_22 
REMARK    4  A    between atoms: C_15  and  O_21 
REMARK    5  A    between atoms: C_17  and  O_20 
ROOT
HETATM    1  N   UNK N   1      26.756  24.015  -8.122  0.00  0.00    -0.304 N 
HETATM    2  N   UNK N   1      27.490  23.482  -7.156  0.00  0.00    -0.299 N 
ATOM      3  HN  UNK N   1      27.899  22.548  -7.174  1.00  0.00     0.187 HD
HETATM    4  C   UNK N   1      27.613  24.369  -6.146  0.00  0.00     0.074 A 
HETATM    5  C   UNK N   1      26.921  25.544  -6.504  0.00  0.00     0.027 A 
HETATM    6  C   UNK N   1      26.388  25.251  -7.752  0.00  0.00     0.035 A 
HETATM    7  C   UNK N   1      25.566  26.142  -8.621  0.00  0.00     0.070 C 
HETATM    8  H   UNK N   1      26.518  23.576  -8.971  0.00  0.00     0.186 HD
ENDROOT
BRANCH   4   9
HETATM    9  C   UNK N   1      28.315  24.008  -4.866  0.00  0.00     0.026 A 
HETATM   10  C   UNK N   1      27.604  23.851  -3.649  0.00  0.00     0.081 A 
HETATM   11  C   UNK N   1      28.290  23.536  -2.469  0.00  0.00     0.074 A 
HETATM   12  C   UNK N   1      29.677  23.384  -2.475  0.00  0.00     0.068 A 
HETATM   13  C   UNK N   1      30.385  23.553  -3.658  0.00  0.00     0.037 A 
HETATM   14  C   UNK N   1      29.706  23.868  -4.832  0.00  0.00     0.019 A 
BRANCH  10  15
HETATM   15  O   UNK N   1      26.269  23.995  -3.599  0.00  0.00    -0.360 OA
HETATM   16  H   UNK N   1      25.817  23.943  -2.780  0.00  0.00     0.217 HD
ENDBRANCH  10  15
BRANCH  12  17
HETATM   17  O   UNK N   1      30.329  23.076  -1.342  0.00  0.00    -0.361 OA
HETATM   18  H   UNK N   1      30.957  23.673  -0.987  0.00  0.00     0.217 HD
ENDBRANCH  12  17
ENDBRANCH   4   9
BRANCH   5  19
HETATM   19  C   UNK N   1      26.751  26.837  -5.776  0.00  0.00    -0.021 A 
HETATM   20  C   UNK N   1      27.603  27.919  -6.015  0.00  0.00     0.015 A 
HETATM   21  C   UNK N   1      27.476  29.111  -5.309  0.00  0.00     0.037 A 
HETATM   22  C   UNK N   1      26.474  29.251  -4.339  0.00  0.00     0.068 A 
HETATM   23  C   UNK N   1      25.586  28.192  -4.121  0.00  0.00     0.037 A 
HETATM   24  C   UNK N   1      25.716  26.999  -4.841  0.00  0.00     0.015 A 
BRANCH  22  25
HETATM   25  O   UNK N   1      26.354  30.382  -3.607  0.00  0.00    -0.356 OA
HETATM   26  C   UNK N   1      27.359  30.861  -2.796  0.00  0.00     0.210 C 
ENDBRANCH  22  25
ENDBRANCH   5  19
TORSDOF 5
ENDMDL
MODEL 8
REMARK VINA RESULT:      -6.5      1.425      5.723
REMARK  5 active torsions:
REMARK  status: ('A' for Active; 'I' for Inactive)
REMARK    1  A    between atoms: C_4  and  C_7 
REMARK    2  A    between atoms: C_5  and  C_8 
REMARK    3  A    between atoms: C_12  and  O_22 
REMARK    4  A    between atoms: C_15  and  O_21 
REMARK    5  A    between atoms: C_17  and  O_20 
ROOT
HETATM    1  N   UNK N   1      28.208  15.377   2.935  0.00  0.00    -0.304 N 
HETATM    2  N   UNK N   1      27.533  16.398   3.444  0.00  0.00    -0.299 N 
ATOM      3  HN  UNK N   1      26.543  16.588   3.286  1.00  0.00     0.187 HD
HETATM    4  C   UNK N   1      28.359  17.147   4.204  0.00  0.00     0.074 A 
HETATM    5  C   UNK N   1      29.638  16.552   4.183  0.00  0.00     0.027 A 
HETATM    6  C   UNK N   1      29.481  15.451   3.352  0.00  0.00     0.035 A 
HETATM    7  C   UNK N   1      30.512  14.441   2.979  0.00  0.00     0.070 C 
HETATM    8  H   UNK N   1      27.837  14.680   2.346  0.00  0.00     0.186 HD
ENDROOT
BRANCH   4   9
HETATM    9  C   UNK N   1      27.897  18.430   4.835  0.00  0.00     0.026 A 
HETATM   10  C   UNK N   1      27.669  18.531   6.232  0.00  0.00     0.081 A 
HETATM   11  C   UNK N   1      27.215  19.735   6.786  0.00  0.00     0.074 A 
HETATM   12  C   UNK N   1      26.975  20.843   5.972  0.00  0.00     0.068 A 
HETATM   13  C   UNK N   1      27.178  20.751   4.601  0.00  0.00     0.037 A 
HETATM   14  C   UNK N   1      27.626  19.554   4.047  0.00  0.00     0.019 A 
BRANCH  10  15
HETATM   15  O   UNK N   1      27.882  17.486   7.049  0.00  0.00    -0.360 OA
HETATM   16  H   UNK N   1      27.170  17.096   7.516  0.00  0.00     0.217 HD
ENDBRANCH  10  15
BRANCH  12  17
HETATM   17  O   UNK N   1      26.547  21.997   6.509  0.00  0.00    -0.361 OA
HETATM   18  H   UNK N   1      27.159  22.587   6.901  0.00  0.00     0.217 HD
ENDBRANCH  12  17
ENDBRANCH   4   9
BRANCH   5  19
HETATM   19  C   UNK N   1      30.909  16.945   4.862  0.00  0.00    -0.021 A 
HETATM   20  C   UNK N   1      31.990  17.450   4.135  0.00  0.00     0.015 A 
HETATM   21  C   UNK N   1      33.192  17.778   4.756  0.00  0.00     0.037 A 
HETATM   22  C   UNK N   1      33.335  17.613   6.140  0.00  0.00     0.068 A 
HETATM   23  C   UNK N   1      32.246  17.151   6.888  0.00  0.00     0.037 A 
HETATM   24  C   UNK N   1      31.039  16.830   6.256  0.00  0.00     0.015 A 
BRANCH  22  25
HETATM   25  O   UNK N   1      34.504  17.883   6.766  0.00  0.00    -0.356 OA
HETATM   26  C   UNK N   1      34.591  18.133   8.118  0.00  0.00     0.210 C 
ENDBRANCH  22  25
ENDBRANCH   5  19
TORSDOF 5
ENDMDL
MODEL 9
REMARK VINA RESULT:      -6.4      5.603      7.976
REMARK  5 active torsions:
REMARK  status: ('A' for Active; 'I' for Inactive)
REMARK    1  A    between atoms: C_4  and  C_7 
REMARK    2  A    between atoms: C_5  and  C_8 
REMARK    3  A    between atoms: C_12  and  O_22 
REMARK    4  A    between atoms: C_15  and  O_21 
REMARK    5  A    between atoms: C_17  and  O_20 
ROOT
HETATM    1  N   UNK N   1      36.477  13.909   6.859  0.00  0.00    -0.304 N 
HETATM    2  N   UNK N   1      36.645  13.654   8.149  0.00  0.00    -0.299 N 
ATOM      3  HN  UNK N   1      37.363  13.044   8.540  1.00  0.00     0.187 HD
HETATM    4  C   UNK N   1      35.720  14.329   8.863  0.00  0.00     0.074 A 
HETATM    5  C   UNK N   1      34.923  15.069   7.966  0.00  0.00     0.027 A 
HETATM    6  C   UNK N   1      35.439  14.748   6.717  0.00  0.00     0.035 A 
HETATM    7  C   UNK N   1      34.988  15.258   5.391  0.00  0.00     0.070 C 
HETATM    8  H   UNK N   1      37.022  13.544   6.125  0.00  0.00     0.186 HD
ENDROOT
BRANCH   4   9
HETATM    9  C   UNK N   1      35.603  14.159  10.353  0.00  0.00     0.026 A 
HETATM   10  C   UNK N   1      36.148  15.109  11.254  0.00  0.00     0.081 A 
HETATM   11  C   UNK N   1      36.042  14.910  12.636  0.00  0.00     0.074 A 
HETATM   12  C   UNK N   1      35.408  13.774  13.141  0.00  0.00     0.068 A 
HETATM   13  C   UNK N   1      34.886  12.827  12.268  0.00  0.00     0.037 A 
HETATM   14  C   UNK N   1      34.993  13.021  10.893  0.00  0.00     0.019 A 
BRANCH  10  15
HETATM   15  O   UNK N   1      36.771  16.213  10.808  0.00  0.00    -0.360 OA
HETATM   16  H   UNK N   1      36.694  16.471   9.911  0.00  0.00     0.217 HD
ENDBRANCH  10  15
BRANCH  12  17
HETATM   17  O   UNK N   1      35.303  13.590  14.467  0.00  0.00    -0.361 OA
HETATM   18  H   UNK N   1      35.470  12.747  14.838  0.00  0.00     0.217 HD
ENDBRANCH  12  17
ENDBRANCH   4   9
BRANCH   5  19
HETATM   19  C   UNK N   1      33.780  15.997   8.214  0.00  0.00    -0.021 A 
HETATM   20  C   UNK N   1      32.505  15.510   8.514  0.00  0.00     0.015 A 
HETATM   21  C   UNK N   1      31.426  16.369   8.703  0.00  0.00     0.037 A 
HETATM   22  C   UNK N   1      31.606  17.755   8.603  0.00  0.00     0.068 A 
HETATM   23  C   UNK N   1      32.886  18.259   8.347  0.00  0.00     0.037 A 
HETATM   24  C   UNK N   1      33.967  17.388   8.165  0.00  0.00     0.015 A 
BRANCH  22  25
HETATM   25  O   UNK N   1      30.568  18.613   8.739  0.00  0.00    -0.356 OA
HETATM   26  C   UNK N   1      29.604  18.474   9.714  0.00  0.00     0.210 C 
ENDBRANCH  22  25
ENDBRANCH   5  19
TORSDOF 5
ENDMDL
