MODEL 1
REMARK VINA RESULT:      -3.9      0.000      0.000
REMARK  8 active torsions:
REMARK  status: ('A' for Active; 'I' for Inactive)
REMARK    1  A    between atoms: C_2  and  O_3 
REMARK    2  A    between atoms: O_3  and  C_4 
REMARK    3  A    between atoms: C_4  and  C_5 
REMARK    4  A    between atoms: C_5  and  O_6 
REMARK    5  A    between atoms: O_6  and  C_7 
REMARK    6  A    between atoms: C_7  and  C_8 
REMARK    7  A    between atoms: C_8  and  O_9 
REMARK    8  A    between atoms: O_9  and  C_10 
ROOT
HETATM    1  O   UNK N   1      34.476  14.555  11.883  0.00  0.00    -0.387 OA
ENDROOT
BRANCH   1   2
HETATM    2  C   UNK N   1      34.484  15.422  10.792  0.00  0.00     0.193 C 
BRANCH   2   3
HETATM    3  C   UNK N   1      35.685  16.332  10.950  0.00  0.00     0.193 C 
BRANCH   3   4
HETATM    4  O   UNK N   1      35.533  17.501  10.210  0.00  0.00    -0.389 OA
BRANCH   4   5
HETATM    5  C   UNK N   1      34.636  17.136   9.205  0.00  0.00     0.163 C 
HETATM    6  C   UNK N   1      34.525  18.247   8.182  0.00  0.00     0.033 C 
ENDBRANCH   4   5
ENDBRANCH   3   4
ENDBRANCH   2   3
ENDBRANCH   1   2
BRANCH   1   7
HETATM    7  C   UNK N   1      35.759  14.577  12.426  0.00  0.00     0.193 C 
BRANCH   7   8
HETATM    8  C   UNK N   1      35.722  13.757  13.700  0.00  0.00     0.193 C 
BRANCH   8   9
HETATM    9  O   UNK N   1      34.549  13.011  13.785  0.00  0.00    -0.389 OA
BRANCH   9  10
HETATM   10  C   UNK N   1      35.005  11.714  14.025  0.00  0.00     0.163 C 
HETATM   11  C   UNK N   1      33.835  10.754  14.068  0.00  0.00     0.033 C 
ENDBRANCH   9  10
ENDBRANCH   8   9
ENDBRANCH   7   8
ENDBRANCH   1   7
TORSDOF 8
ENDMDL
MODEL 2
REMARK VINA RESULT:      -3.9      0.485      6.043
REMARK  8 active torsions:
REMARK  status: ('A' for Active; 'I' for Inactive)
REMARK    1  A    between atoms: C_2  and  O_3 
REMARK    2  A    between atoms: O_3  and  C_4 
REMARK    3  A    between atoms: C_4  and  C_5 
REMARK    4  A    between atoms: C_5  and  O_6 
REMARK    5  A    between atoms: O_6  and  C_7 
REMARK    6  A    between atoms: C_7  and  C_8 
REMARK    7  A    between atoms: C_8  and  O_9 
REMARK    8  A    between atoms: O_9  and  C_10 
ROOT
HETATM    1  O   UNK N   1      34.200  14.595  11.768  0.00  0.00    -0.387 OA
ENDROOT
BRANCH   1   2
HETATM    2  C   UNK N   1      35.244  13.677  11.856  0.00  0.00     0.193 C 
BRANCH   2   3
HETATM    3  C   UNK N   1      35.566  13.502  13.326  0.00  0.00     0.193 C 
BRANCH   3   4
HETATM    4  O   UNK N   1      34.489  12.955  14.017  0.00  0.00    -0.389 OA
BRANCH   4   5
HETATM    5  C   UNK N   1      34.587  11.590  13.744  0.00  0.00     0.163 C 
HETATM    6  C   UNK N   1      33.639  10.814  14.633  0.00  0.00     0.033 C 
ENDBRANCH   4   5
ENDBRANCH   3   4
ENDBRANCH   2   3
ENDBRANCH   1   2
BRANCH   1   7
HETATM    7  C   UNK N   1      34.467  15.408  10.669  0.00  0.00     0.193 C 
BRANCH   7   8
HETATM    8  C   UNK N   1      35.404  16.504  11.138  0.00  0.00     0.193 C 
BRANCH   8   9
HETATM    9  O   UNK N   1      35.540  17.498  10.173  0.00  0.00    -0.389 OA
BRANCH   9  10
HETATM   10  C   UNK N   1      34.593  17.149   9.210  0.00  0.00     0.163 C 
HETATM   11  C   UNK N   1      34.425  18.279   8.216  0.00  0.00     0.033 C 
ENDBRANCH   9  10
ENDBRANCH   8   9
ENDBRANCH   7   8
ENDBRANCH   1   7
TORSDOF 8
ENDMDL
MODEL 3
REMARK VINA RESULT:      -3.8      1.696      6.142
REMARK  8 active torsions:
REMARK  status: ('A' for Active; 'I' for Inactive)
REMARK    1  A    between atoms: C_2  and  O_3 
REMARK    2  A    between atoms: O_3  and  C_4 
REMARK    3  A    between atoms: C_4  and  C_5 
REMARK    4  A    between atoms: C_5  and  O_6 
REMARK    5  A    between atoms: O_6  and  C_7 
REMARK    6  A    between atoms: C_7  and  C_8 
REMARK    7  A    between atoms: C_8  and  O_9 
REMARK    8  A    between atoms: O_9  and  C_10 
ROOT
HETATM    1  O   UNK N   1      35.460  17.560  10.163  0.00  0.00    -0.387 OA
ENDROOT
BRANCH   1   2
HETATM    2  C   UNK N   1      35.543  16.446  10.997  0.00  0.00     0.193 C 
BRANCH   2   3
HETATM    3  C   UNK N   1      34.485  15.463  10.540  0.00  0.00     0.193 C 
BRANCH   3   4
HETATM    4  O   UNK N   1      34.109  14.610  11.573  0.00  0.00    -0.389 OA
BRANCH   4   5
HETATM    5  C   UNK N   1      35.203  13.754  11.703  0.00  0.00     0.163 C 
HETATM    6  C   UNK N   1      35.356  13.322  13.146  0.00  0.00     0.033 C 
ENDBRANCH   4   5
ENDBRANCH   3   4
ENDBRANCH   2   3
ENDBRANCH   1   2
BRANCH   1   7
HETATM    7  C   UNK N   1      34.590  17.226   9.128  0.00  0.00     0.193 C 
BRANCH   7   8
HETATM    8  C   UNK N   1      34.575  18.391   8.160  0.00  0.00     0.193 C 
BRANCH   8   9
HETATM    9  O   UNK N   1      34.446  17.954   6.845  0.00  0.00    -0.389 OA
BRANCH   9  10
HETATM   10  C   UNK N   1      34.308  16.571   6.974  0.00  0.00     0.163 C 
HETATM   11  C   UNK N   1      34.337  15.918   5.608  0.00  0.00     0.033 C 
ENDBRANCH   9  10
ENDBRANCH   8   9
ENDBRANCH   7   8
ENDBRANCH   1   7
TORSDOF 8
ENDMDL
MODEL 4
REMARK VINA RESULT:      -3.7      3.156      4.008
REMARK  8 active torsions:
REMARK  status: ('A' for Active; 'I' for Inactive)
REMARK    1  A    between atoms: C_2  and  O_3 
REMARK    2  A    between atoms: O_3  and  C_4 
REMARK    3  A    between atoms: C_4  and  C_5 
REMARK    4  A    between atoms: C_5  and  O_6 
REMARK    5  A    between atoms: O_6  and  C_7 
REMARK    6  A    between atoms: C_7  and  C_8 
REMARK    7  A    between atoms: C_8  and  O_9 
REMARK    8  A    between atoms: O_9  and  C_10 
ROOT
HETATM    1  O   UNK N   1      35.302  17.524   9.830  0.00  0.00    -0.387 OA
ENDROOT
BRANCH   1   2
HETATM    2  C   UNK N   1      34.242  17.092   9.036  0.00  0.00     0.193 C 
BRANCH   2   3
HETATM    3  C   UNK N   1      33.895  18.227   8.094  0.00  0.00     0.193 C 
BRANCH   3   4
HETATM    4  O   UNK N   1      34.556  18.092   6.876  0.00  0.00    -0.389 OA
BRANCH   4   5
HETATM    5  C   UNK N   1      33.905  17.018   6.269  0.00  0.00     0.163 C 
HETATM    6  C   UNK N   1      33.172  17.488   5.031  0.00  0.00     0.033 C 
ENDBRANCH   4   5
ENDBRANCH   3   4
ENDBRANCH   2   3
ENDBRANCH   1   2
BRANCH   1   7
HETATM    7  C   UNK N   1      35.421  16.612  10.877  0.00  0.00     0.193 C 
BRANCH   7   8
HETATM    8  C   UNK N   1      35.896  15.302  10.279  0.00  0.00     0.193 C 
BRANCH   8   9
HETATM    9  O   UNK N   1      37.283  15.272  10.170  0.00  0.00    -0.389 OA
BRANCH   9  10
HETATM   10  C   UNK N   1      37.545  13.980   9.713  0.00  0.00     0.163 C 
HETATM   11  C   UNK N   1      37.843  13.067  10.883  0.00  0.00     0.033 C 
ENDBRANCH   9  10
ENDBRANCH   8   9
ENDBRANCH   7   8
ENDBRANCH   1   7
TORSDOF 8
ENDMDL
MODEL 5
REMARK VINA RESULT:      -3.7      1.883      3.376
REMARK  8 active torsions:
REMARK  status: ('A' for Active; 'I' for Inactive)
REMARK    1  A    between atoms: C_2  and  O_3 
REMARK    2  A    between atoms: O_3  and  C_4 
REMARK    3  A    between atoms: C_4  and  C_5 
REMARK    4  A    between atoms: C_5  and  O_6 
REMARK    5  A    between atoms: O_6  and  C_7 
REMARK    6  A    between atoms: C_7  and  C_8 
REMARK    7  A    between atoms: C_8  and  O_9 
REMARK    8  A    between atoms: O_9  and  C_10 
ROOT
HETATM    1  O   UNK N   1      34.640  17.186  10.038  0.00  0.00    -0.387 OA
ENDROOT
BRANCH   1   2
HETATM    2  C   UNK N   1      34.728  16.911   8.675  0.00  0.00     0.193 C 
BRANCH   2   3
HETATM    3  C   UNK N   1      33.957  17.994   7.947  0.00  0.00     0.193 C 
BRANCH   3   4
HETATM    4  O   UNK N   1      34.376  18.110   6.625  0.00  0.00    -0.389 OA
BRANCH   4   5
HETATM    5  C   UNK N   1      33.779  17.016   5.997  0.00  0.00     0.163 C 
HETATM    6  C   UNK N   1      33.081  17.463   4.731  0.00  0.00     0.033 C 
ENDBRANCH   4   5
ENDBRANCH   3   4
ENDBRANCH   2   3
ENDBRANCH   1   2
BRANCH   1   7
HETATM    7  C   UNK N   1      35.317  16.165  10.701  0.00  0.00     0.193 C 
BRANCH   7   8
HETATM    8  C   UNK N   1      34.316  15.056  10.958  0.00  0.00     0.193 C 
BRANCH   8   9
HETATM    9  O   UNK N   1      34.645  14.335  12.102  0.00  0.00    -0.389 OA
BRANCH   9  10
HETATM   10  C   UNK N   1      35.927  14.790  12.417  0.00  0.00     0.163 C 
HETATM   11  C   UNK N   1      36.323  14.308  13.796  0.00  0.00     0.033 C 
ENDBRANCH   9  10
ENDBRANCH   8   9
ENDBRANCH   7   8
ENDBRANCH   1   7
TORSDOF 8
ENDMDL
MODEL 6
REMARK VINA RESULT:      -3.5     16.522     19.774
REMARK  8 active torsions:
REMARK  status: ('A' for Active; 'I' for Inactive)
REMARK    1  A    between atoms: C_2  and  O_3 
REMARK    2  A    between atoms: O_3  and  C_4 
REMARK    3  A    between atoms: C_4  and  C_5 
REMARK    4  A    between atoms: C_5  and  O_6 
REMARK    5  A    between atoms: O_6  and  C_7 
REMARK    6  A    between atoms: C_7  and  C_8 
REMARK    7  A    between atoms: C_8  and  O_9 
REMARK    8  A    between atoms: O_9  and  C_10 
ROOT
HETATM    1  O   UNK N   1      28.468  24.645  -3.546  0.00  0.00    -0.387 OA
ENDROOT
BRANCH   1   2
HETATM    2  C   UNK N   1      29.145  23.428  -3.486  0.00  0.00     0.193 C 
BRANCH   2   3
HETATM    3  C   UNK N   1      29.394  23.124  -2.023  0.00  0.00     0.193 C 
BRANCH   3   4
HETATM    4  O   UNK N   1      30.722  22.775  -1.799  0.00  0.00    -0.389 OA
BRANCH   4   5
HETATM    5  C   UNK N   1      31.063  22.041  -2.936  0.00  0.00     0.163 C 
HETATM    6  C   UNK N   1      32.489  21.546  -2.826  0.00  0.00     0.033 C 
ENDBRANCH   4   5
ENDBRANCH   3   4
ENDBRANCH   2   3
ENDBRANCH   1   2
BRANCH   1   7
HETATM    7  C   UNK N   1      27.109  24.357  -3.434  0.00  0.00     0.193 C 
BRANCH   7   8
HETATM    8  C   UNK N   1      26.351  25.575  -3.922  0.00  0.00     0.193 C 
BRANCH   8   9
HETATM    9  O   UNK N   1      26.632  26.691  -3.140  0.00  0.00    -0.389 OA
BRANCH   9  10
HETATM   10  C   UNK N   1      25.724  27.647  -3.596  0.00  0.00     0.163 C 
HETATM   11  C   UNK N   1      25.335  27.350  -5.029  0.00  0.00     0.033 C 
ENDBRANCH   9  10
ENDBRANCH   8   9
ENDBRANCH   7   8
ENDBRANCH   1   7
TORSDOF 8
ENDMDL
MODEL 7
REMARK VINA RESULT:      -3.5     13.948     16.416
REMARK  8 active torsions:
REMARK  status: ('A' for Active; 'I' for Inactive)
REMARK    1  A    between atoms: C_2  and  O_3 
REMARK    2  A    between atoms: O_3  and  C_4 
REMARK    3  A    between atoms: C_4  and  C_5 
REMARK    4  A    between atoms: C_5  and  O_6 
REMARK    5  A    between atoms: O_6  and  C_7 
REMARK    6  A    between atoms: C_7  and  C_8 
REMARK    7  A    between atoms: C_8  and  O_9 
REMARK    8  A    between atoms: O_9  and  C_10 
ROOT
HETATM    1  O   UNK N   1      22.170  21.337   2.638  0.00  0.00    -0.387 OA
ENDROOT
BRANCH   1   2
HETATM    2  C   UNK N   1      22.921  20.222   3.005  0.00  0.00     0.193 C 
BRANCH   2   3
HETATM    3  C   UNK N   1      24.382  20.614   2.914  0.00  0.00     0.193 C 
BRANCH   3   4
HETATM    4  O   UNK N   1      25.164  19.845   3.771  0.00  0.00    -0.389 OA
BRANCH   4   5
HETATM    5  C   UNK N   1      26.468  20.234   3.458  0.00  0.00     0.163 C 
HETATM    6  C   UNK N   1      27.310  20.279   4.715  0.00  0.00     0.033 C 
ENDBRANCH   4   5
ENDBRANCH   3   4
ENDBRANCH   2   3
ENDBRANCH   1   2
BRANCH   1   7
HETATM    7  C   UNK N   1      20.930  20.867   2.211  0.00  0.00     0.193 C 
BRANCH   7   8
HETATM    8  C   UNK N   1      20.441  19.881   3.253  0.00  0.00     0.193 C 
BRANCH   8   9
HETATM    9  O   UNK N   1      19.376  19.125   2.772  0.00  0.00    -0.389 OA
BRANCH   9  10
HETATM   10  C   UNK N   1      19.874  17.821   2.777  0.00  0.00     0.163 C 
HETATM   11  C   UNK N   1      20.008  17.312   1.358  0.00  0.00     0.033 C 
ENDBRANCH   9  10
ENDBRANCH   8   9
ENDBRANCH   7   8
ENDBRANCH   1   7
TORSDOF 8
ENDMDL
MODEL 8
REMARK VINA RESULT:      -3.4     13.998     15.422
REMARK  8 active torsions:
REMARK  status: ('A' for Active; 'I' for Inactive)
REMARK    1  A    between atoms: C_2  and  O_3 
REMARK    2  A    between atoms: O_3  and  C_4 
REMARK    3  A    between atoms: C_4  and  C_5 
REMARK    4  A    between atoms: C_5  and  O_6 
REMARK    5  A    between atoms: O_6  and  C_7 
REMARK    6  A    between atoms: C_7  and  C_8 
REMARK    7  A    between atoms: C_8  and  O_9 
REMARK    8  A    between atoms: O_9  and  C_10 
ROOT
HETATM    1  O   UNK N   1      20.136  14.038   8.954  0.00  0.00    -0.387 OA
ENDROOT
BRANCH   1   2
HETATM    2  C   UNK N   1      20.362  13.538  10.235  0.00  0.00     0.193 C 
BRANCH   2   3
HETATM    3  C   UNK N   1      21.480  12.520  10.129  0.00  0.00     0.193 C 
BRANCH   3   4
HETATM    4  O   UNK N   1      22.694  13.059  10.543  0.00  0.00    -0.389 OA
BRANCH   4   5
HETATM    5  C   UNK N   1      23.364  11.967  11.097  0.00  0.00     0.163 C 
HETATM    6  C   UNK N   1      23.086  11.887  12.583  0.00  0.00     0.033 C 
ENDBRANCH   4   5
ENDBRANCH   3   4
ENDBRANCH   2   3
ENDBRANCH   1   2
BRANCH   1   7
HETATM    7  C   UNK N   1      20.613  15.347   8.941  0.00  0.00     0.193 C 
BRANCH   7   8
HETATM    8  C   UNK N   1      19.779  16.117   7.936  0.00  0.00     0.193 C 
BRANCH   8   9
HETATM    9  O   UNK N   1      19.848  17.488   8.170  0.00  0.00    -0.389 OA
BRANCH   9  10
HETATM   10  C   UNK N   1      19.015  17.672   9.274  0.00  0.00     0.163 C 
HETATM   11  C   UNK N   1      17.600  17.259   8.930  0.00  0.00     0.033 C 
ENDBRANCH   9  10
ENDBRANCH   8   9
ENDBRANCH   7   8
ENDBRANCH   1   7
TORSDOF 8
ENDMDL
MODEL 9
REMARK VINA RESULT:      -3.3     13.079     15.670
REMARK  8 active torsions:
REMARK  status: ('A' for Active; 'I' for Inactive)
REMARK    1  A    between atoms: C_2  and  O_3 
REMARK    2  A    between atoms: O_3  and  C_4 
REMARK    3  A    between atoms: C_4  and  C_5 
REMARK    4  A    between atoms: C_5  and  O_6 
REMARK    5  A    between atoms: O_6  and  C_7 
REMARK    6  A    between atoms: C_7  and  C_8 
REMARK    7  A    between atoms: C_8  and  O_9 
REMARK    8  A    between atoms: O_9  and  C_10 
ROOT
HETATM    1  O   UNK N   1      23.305  21.082   2.919  0.00  0.00    -0.387 OA
ENDROOT
BRANCH   1   2
HETATM    2  C   UNK N   1      22.010  20.669   2.616  0.00  0.00     0.193 C 
BRANCH   2   3
HETATM    3  C   UNK N   1      21.797  19.328   3.290  0.00  0.00     0.193 C 
BRANCH   3   4
HETATM    4  O   UNK N   1      20.508  19.220   3.802  0.00  0.00    -0.389 OA
BRANCH   4   5
HETATM    5  C   UNK N   1      19.721  19.026   2.666  0.00  0.00     0.163 C 
HETATM    6  C   UNK N   1      19.941  17.633   2.115  0.00  0.00     0.033 C 
ENDBRANCH   4   5
ENDBRANCH   3   4
ENDBRANCH   2   3
ENDBRANCH   1   2
BRANCH   1   7
HETATM    7  C   UNK N   1      24.003  19.952   3.340  0.00  0.00     0.193 C 
BRANCH   7   8
HETATM    8  C   UNK N   1      25.425  20.385   3.632  0.00  0.00     0.193 C 
BRANCH   8   9
HETATM    9  O   UNK N   1      25.722  20.264   4.987  0.00  0.00    -0.389 OA
BRANCH   9  10
HETATM   10  C   UNK N   1      27.048  20.689   5.069  0.00  0.00     0.163 C 
HETATM   11  C   UNK N   1      27.234  21.574   6.284  0.00  0.00     0.033 C 
ENDBRANCH   9  10
ENDBRANCH   8   9
ENDBRANCH   7   8
ENDBRANCH   1   7
TORSDOF 8
ENDMDL
