MODEL 1
REMARK VINA RESULT:      -8.8      0.000      0.000
REMARK  2 active torsions:
REMARK  status: ('A' for Active; 'I' for Inactive)
REMARK    1  A    between atoms: C_11  and  C_12 
REMARK    2  A    between atoms: C_18  and  C_19 
ROOT
HETATM    1  C   UNK N   1      21.200  15.456   6.888  0.00  0.00     0.044 A 
HETATM    2  C   UNK N   1      22.220  16.235   6.387  0.00  0.00     0.044 A 
HETATM    3  N   UNK N   1      19.976  15.494   6.285  0.00  0.00    -0.365 N 
ATOM      4  HN  UNK N   1      19.215  14.921   6.649  1.00  0.00     0.165 HD
HETATM    5  C   UNK N   1      19.760  16.298   5.193  0.00  0.00     0.089 A 
HETATM    6  C   UNK N   1      20.800  17.101   4.673  0.00  0.00     0.030 A 
HETATM    7  C   UNK N   1      22.053  17.057   5.295  0.00  0.00    -0.006 A 
ENDROOT
BRANCH   7   8
HETATM    8  C   UNK N   1      23.246  17.820   4.892  0.00  0.00     0.043 A 
HETATM    9  C   UNK N   1      23.181  18.812   3.920  0.00  0.00     0.049 A 
HETATM   10  C   UNK N   1      24.450  19.287   3.816  0.00  0.00     0.056 A 
HETATM   11  C   UNK N   1      24.957  20.334   2.950  0.00  0.00     0.253 A 
HETATM   12  C   UNK N   1      25.230  18.604   4.688  0.00  0.00     0.027 A 
HETATM   13  O   UNK N   1      24.215  20.921   2.181  0.00  0.00    -0.268 OA
HETATM   14  N   UNK N   1      26.274  20.651   3.010  0.00  0.00    -0.356 N 
HETATM   15  C   UNK N   1      27.231  19.998   3.903  0.00  0.00     0.129 A 
HETATM   16  H   UNK N   1      26.606  21.364   2.417  0.00  0.00     0.162 HD
HETATM   17  C   UNK N   1      26.692  18.872   4.836  0.00  0.00     0.078 A 
HETATM   18  N   UNK N   1      24.506  17.687   5.368  0.00  0.00    -0.358 N 
HETATM   19  H   UNK N   1      24.824  17.061   6.058  0.00  0.00     0.166 HD
ENDBRANCH   7   8
BRANCH   1  20
HETATM   20  C   UNK N   1      21.521  14.620   8.066  0.00  0.00     0.007 A 
HETATM   21  C   UNK N   1      22.799  14.113   8.326  0.00  0.00     0.029 A 
HETATM   22  C   UNK N   1      23.003  13.329   9.473  0.00  0.00    -0.009 A 
HETATM   23  C   UNK N   1      24.263  12.805   9.768  0.00  0.00     0.014 A 
HETATM   24  C   UNK N   1      21.918  13.066  10.342  0.00  0.00     0.042 A 
HETATM   25  C   UNK N   1      24.443  12.026  10.918  0.00  0.00     0.001 A 
HETATM   26  C   UNK N   1      23.366  11.768  11.774  0.00  0.00     0.002 A 
HETATM   27  C   UNK N   1      22.105  12.289  11.485  0.00  0.00     0.030 A 
HETATM   28  N   UNK N   1      20.692  13.567  10.069  0.00  0.00    -0.364 N 
HETATM   29  C   UNK N   1      20.480  14.324   8.968  0.00  0.00     0.102 A 
ATOM     30  HN  UNK N   1      19.917  13.372  10.701  1.00  0.00     0.165 HD
ENDBRANCH   1  20
TORSDOF 2
ENDMDL
MODEL 2
REMARK VINA RESULT:      -8.7     11.860     14.148
REMARK  2 active torsions:
REMARK  status: ('A' for Active; 'I' for Inactive)
REMARK    1  A    between atoms: C_11  and  C_12 
REMARK    2  A    between atoms: C_18  and  C_19 
ROOT
HETATM    1  C   UNK N   1      36.854  12.996  12.575  0.00  0.00     0.044 A 
HETATM    2  C   UNK N   1      35.964  13.786  11.880  0.00  0.00     0.044 A 
HETATM    3  N   UNK N   1      38.015  12.611  11.969  0.00  0.00    -0.365 N 
ATOM      4  HN  UNK N   1      38.679  12.026  12.476  1.00  0.00     0.165 HD
HETATM    5  C   UNK N   1      38.296  13.003  10.684  0.00  0.00     0.089 A 
HETATM    6  C   UNK N   1      37.389  13.813   9.963  0.00  0.00     0.030 A 
HETATM    7  C   UNK N   1      36.200  14.205  10.590  0.00  0.00    -0.006 A 
ENDROOT
BRANCH   7   8
HETATM    8  C   UNK N   1      35.146  15.043   9.995  0.00  0.00     0.043 A 
HETATM    9  C   UNK N   1      35.416  16.318   9.512  0.00  0.00     0.049 A 
HETATM   10  C   UNK N   1      34.224  16.778   9.048  0.00  0.00     0.056 A 
HETATM   11  C   UNK N   1      33.924  18.057   8.434  0.00  0.00     0.253 A 
HETATM   12  C   UNK N   1      33.292  15.816   9.249  0.00  0.00     0.027 A 
HETATM   13  O   UNK N   1      34.797  18.893   8.275  0.00  0.00    -0.268 OA
HETATM   14  N   UNK N   1      32.652  18.311   8.040  0.00  0.00    -0.356 N 
HETATM   15  C   UNK N   1      31.545  17.365   8.195  0.00  0.00     0.129 A 
HETATM   16  H   UNK N   1      32.461  19.183   7.625  0.00  0.00     0.162 HD
HETATM   17  C   UNK N   1      31.862  15.989   8.853  0.00  0.00     0.078 A 
HETATM   18  N   UNK N   1      33.840  14.728   9.836  0.00  0.00    -0.358 N 
HETATM   19  H   UNK N   1      33.388  13.891  10.091  0.00  0.00     0.166 HD
ENDBRANCH   7   8
BRANCH   1  20
HETATM   20  C   UNK N   1      36.471  12.620  13.954  0.00  0.00     0.007 A 
HETATM   21  C   UNK N   1      36.210  13.555  14.963  0.00  0.00     0.029 A 
HETATM   22  C   UNK N   1      35.853  13.098  16.241  0.00  0.00    -0.009 A 
HETATM   23  C   UNK N   1      35.584  13.998  17.274  0.00  0.00     0.014 A 
HETATM   24  C   UNK N   1      35.764  11.708  16.487  0.00  0.00     0.042 A 
HETATM   25  C   UNK N   1      35.230  13.519  18.542  0.00  0.00     0.001 A 
HETATM   26  C   UNK N   1      35.143  12.142  18.780  0.00  0.00     0.002 A 
HETATM   27  C   UNK N   1      35.410  11.238  17.753  0.00  0.00     0.030 A 
HETATM   28  N   UNK N   1      36.021  10.825  15.496  0.00  0.00    -0.364 N 
HETATM   29  C   UNK N   1      36.366  11.249  14.259  0.00  0.00     0.102 A 
ATOM     30  HN  UNK N   1      35.955   9.825  15.684  1.00  0.00     0.165 HD
ENDBRANCH   1  20
TORSDOF 2
ENDMDL
MODEL 3
REMARK VINA RESULT:      -8.6      7.795     11.126
REMARK  2 active torsions:
REMARK  status: ('A' for Active; 'I' for Inactive)
REMARK    1  A    between atoms: C_11  and  C_12 
REMARK    2  A    between atoms: C_18  and  C_19 
ROOT
HETATM    1  C   UNK N   1      30.508  16.012   6.326  0.00  0.00     0.044 A 
HETATM    2  C   UNK N   1      31.406  15.878   7.363  0.00  0.00     0.044 A 
HETATM    3  N   UNK N   1      30.497  15.079   5.331  0.00  0.00    -0.365 N 
ATOM      4  HN  UNK N   1      29.836  15.170   4.560  1.00  0.00     0.165 HD
HETATM    5  C   UNK N   1      31.369  14.018   5.358  0.00  0.00     0.089 A 
HETATM    6  C   UNK N   1      32.293  13.873   6.416  0.00  0.00     0.030 A 
HETATM    7  C   UNK N   1      32.299  14.834   7.435  0.00  0.00    -0.006 A 
ENDROOT
BRANCH   7   8
HETATM    8  C   UNK N   1      33.188  14.843   8.608  0.00  0.00     0.043 A 
HETATM    9  C   UNK N   1      33.970  15.949   8.922  0.00  0.00     0.049 A 
HETATM   10  C   UNK N   1      34.645  15.596  10.048  0.00  0.00     0.056 A 
HETATM   11  C   UNK N   1      35.603  16.372  10.810  0.00  0.00     0.253 A 
HETATM   12  C   UNK N   1      34.276  14.336  10.384  0.00  0.00     0.027 A 
HETATM   13  O   UNK N   1      35.903  17.503  10.468  0.00  0.00    -0.268 OA
HETATM   14  N   UNK N   1      36.162  15.819  11.914  0.00  0.00    -0.356 N 
HETATM   15  C   UNK N   1      35.858  14.470  12.395  0.00  0.00     0.129 A 
HETATM   16  H   UNK N   1      36.811  16.356  12.424  0.00  0.00     0.162 HD
HETATM   17  C   UNK N   1      34.829  13.632  11.579  0.00  0.00     0.078 A 
HETATM   18  N   UNK N   1      33.372  13.846   9.506  0.00  0.00    -0.358 N 
HETATM   19  H   UNK N   1      32.943  12.961   9.516  0.00  0.00     0.166 HD
ENDBRANCH   7   8
BRANCH   1  20
HETATM   20  C   UNK N   1      29.606  17.185   6.378  0.00  0.00     0.007 A 
HETATM   21  C   UNK N   1      29.037  17.769   5.240  0.00  0.00     0.029 A 
HETATM   22  C   UNK N   1      28.193  18.880   5.394  0.00  0.00    -0.009 A 
HETATM   23  C   UNK N   1      27.606  19.492   4.284  0.00  0.00     0.014 A 
HETATM   24  C   UNK N   1      27.933  19.388   6.688  0.00  0.00     0.042 A 
HETATM   25  C   UNK N   1      26.767  20.600   4.461  0.00  0.00     0.001 A 
HETATM   26  C   UNK N   1      26.513  21.098   5.744  0.00  0.00     0.002 A 
HETATM   27  C   UNK N   1      27.096  20.492   6.856  0.00  0.00     0.030 A 
HETATM   28  N   UNK N   1      28.494  18.806   7.771  0.00  0.00    -0.364 N 
HETATM   29  C   UNK N   1      29.310  17.734   7.640  0.00  0.00     0.102 A 
ATOM     30  HN  UNK N   1      28.300  19.179   8.700  1.00  0.00     0.165 HD
ENDBRANCH   1  20
TORSDOF 2
ENDMDL
MODEL 4
REMARK VINA RESULT:      -8.4     15.115     16.483
REMARK  2 active torsions:
REMARK  status: ('A' for Active; 'I' for Inactive)
REMARK    1  A    between atoms: C_11  and  C_12 
REMARK    2  A    between atoms: C_18  and  C_19 
ROOT
HETATM    1  C   UNK N   1      27.426  22.544  -7.096  0.00  0.00     0.044 A 
HETATM    2  C   UNK N   1      28.605  22.154  -6.498  0.00  0.00     0.044 A 
HETATM    3  N   UNK N   1      26.894  21.769  -8.085  0.00  0.00    -0.365 N 
ATOM      4  HN  UNK N   1      26.022  22.050  -8.534  1.00  0.00     0.165 HD
HETATM    5  C   UNK N   1      27.521  20.614  -8.482  0.00  0.00     0.089 A 
HETATM    6  C   UNK N   1      28.730  20.205  -7.874  0.00  0.00     0.030 A 
HETATM    7  C   UNK N   1      29.271  21.005  -6.859  0.00  0.00    -0.006 A 
ENDROOT
BRANCH   7   8
HETATM    8  C   UNK N   1      30.515  20.736  -6.119  0.00  0.00     0.043 A 
HETATM    9  C   UNK N   1      30.722  21.235  -4.838  0.00  0.00     0.049 A 
HETATM   10  C   UNK N   1      31.956  20.791  -4.482  0.00  0.00     0.056 A 
HETATM   11  C   UNK N   1      32.678  21.014  -3.245  0.00  0.00     0.253 A 
HETATM   12  C   UNK N   1      32.455  20.061  -5.510  0.00  0.00     0.027 A 
HETATM   13  O   UNK N   1      32.187  21.678  -2.348  0.00  0.00    -0.268 OA
HETATM   14  N   UNK N   1      33.911  20.471  -3.100  0.00  0.00    -0.356 N 
HETATM   15  C   UNK N   1      34.573  19.662  -4.124  0.00  0.00     0.129 A 
HETATM   16  H   UNK N   1      34.391  20.630  -2.255  0.00  0.00     0.162 HD
HETATM   17  C   UNK N   1      33.803  19.418  -5.456  0.00  0.00     0.078 A 
HETATM   18  N   UNK N   1      31.579  20.012  -6.538  0.00  0.00    -0.358 N 
HETATM   19  H   UNK N   1      31.690  19.552  -7.401  0.00  0.00     0.166 HD
ENDBRANCH   7   8
BRANCH   1  20
HETATM   20  C   UNK N   1      26.819  23.802  -6.607  0.00  0.00     0.007 A 
HETATM   21  C   UNK N   1      27.085  24.347  -5.346  0.00  0.00     0.029 A 
HETATM   22  C   UNK N   1      26.458  25.547  -4.974  0.00  0.00    -0.009 A 
HETATM   23  C   UNK N   1      26.698  26.122  -3.724  0.00  0.00     0.014 A 
HETATM   24  C   UNK N   1      25.573  26.182  -5.876  0.00  0.00     0.042 A 
HETATM   25  C   UNK N   1      26.061  27.320  -3.375  0.00  0.00     0.001 A 
HETATM   26  C   UNK N   1      25.185  27.944  -4.271  0.00  0.00     0.002 A 
HETATM   27  C   UNK N   1      24.942  27.374  -5.520  0.00  0.00     0.030 A 
HETATM   28  N   UNK N   1      25.332  25.636  -7.089  0.00  0.00    -0.364 N 
HETATM   29  C   UNK N   1      25.928  24.480  -7.462  0.00  0.00     0.102 A 
ATOM     30  HN  UNK N   1      24.692  26.101  -7.731  1.00  0.00     0.165 HD
ENDBRANCH   1  20
TORSDOF 2
ENDMDL
MODEL 5
REMARK VINA RESULT:      -8.2      4.084      5.129
REMARK  2 active torsions:
REMARK  status: ('A' for Active; 'I' for Inactive)
REMARK    1  A    between atoms: C_11  and  C_12 
REMARK    2  A    between atoms: C_18  and  C_19 
ROOT
HETATM    1  C   UNK N   1      25.000  14.917   6.378  0.00  0.00     0.044 A 
HETATM    2  C   UNK N   1      26.228  15.414   6.758  0.00  0.00     0.044 A 
HETATM    3  N   UNK N   1      24.627  14.996   5.067  0.00  0.00    -0.365 N 
ATOM      4  HN  UNK N   1      23.720  14.631   4.777  1.00  0.00     0.165 HD
HETATM    5  C   UNK N   1      25.462  15.561   4.136  0.00  0.00     0.089 A 
HETATM    6  C   UNK N   1      26.724  16.072   4.516  0.00  0.00     0.030 A 
HETATM    7  C   UNK N   1      27.100  15.989   5.862  0.00  0.00    -0.006 A 
ENDROOT
BRANCH   7   8
HETATM    8  C   UNK N   1      28.369  16.467   6.435  0.00  0.00     0.043 A 
HETATM    9  C   UNK N   1      28.405  17.206   7.611  0.00  0.00     0.049 A 
HETATM   10  C   UNK N   1      29.722  17.465   7.826  0.00  0.00     0.056 A 
HETATM   11  C   UNK N   1      30.335  18.203   8.913  0.00  0.00     0.253 A 
HETATM   12  C   UNK N   1      30.433  16.902   6.819  0.00  0.00     0.027 A 
HETATM   13  O   UNK N   1      29.653  18.692   9.797  0.00  0.00    -0.268 OA
HETATM   14  N   UNK N   1      31.683  18.341   8.930  0.00  0.00    -0.356 N 
HETATM   15  C   UNK N   1      32.574  17.788   7.911  0.00  0.00     0.129 A 
HETATM   16  H   UNK N   1      32.087  18.845   9.674  0.00  0.00     0.162 HD
HETATM   17  C   UNK N   1      31.922  16.994   6.740  0.00  0.00     0.078 A 
HETATM   18  N   UNK N   1      29.616  16.276   5.942  0.00  0.00    -0.358 N 
HETATM   19  H   UNK N   1      29.870  15.790   5.125  0.00  0.00     0.166 HD
ENDBRANCH   7   8
BRANCH   1  20
HETATM   20  C   UNK N   1      24.164  14.326   7.447  0.00  0.00     0.007 A 
HETATM   21  C   UNK N   1      24.686  13.572   8.504  0.00  0.00     0.029 A 
HETATM   22  C   UNK N   1      23.809  13.053   9.470  0.00  0.00    -0.009 A 
HETATM   23  C   UNK N   1      24.290  12.295  10.540  0.00  0.00     0.014 A 
HETATM   24  C   UNK N   1      22.421  13.299   9.359  0.00  0.00     0.042 A 
HETATM   25  C   UNK N   1      23.396  11.787  11.492  0.00  0.00     0.001 A 
HETATM   26  C   UNK N   1      22.023  12.034  11.377  0.00  0.00     0.002 A 
HETATM   27  C   UNK N   1      21.537  12.790  10.311  0.00  0.00     0.030 A 
HETATM   28  N   UNK N   1      21.941  14.030   8.328  0.00  0.00    -0.364 N 
HETATM   29  C   UNK N   1      22.772  14.538   7.389  0.00  0.00     0.102 A 
ATOM     30  HN  UNK N   1      20.939  14.202   8.257  1.00  0.00     0.165 HD
ENDBRANCH   1  20
TORSDOF 2
ENDMDL
MODEL 6
REMARK VINA RESULT:      -8.2     11.918     14.312
REMARK  2 active torsions:
REMARK  status: ('A' for Active; 'I' for Inactive)
REMARK    1  A    between atoms: C_11  and  C_12 
REMARK    2  A    between atoms: C_18  and  C_19 
ROOT
HETATM    1  C   UNK N   1      35.467  11.479  13.560  0.00  0.00     0.044 A 
HETATM    2  C   UNK N   1      35.048  12.504  12.739  0.00  0.00     0.044 A 
HETATM    3  N   UNK N   1      35.894  10.310  12.999  0.00  0.00    -0.365 N 
ATOM      4  HN  UNK N   1      36.207   9.547  13.599  1.00  0.00     0.165 HD
HETATM    5  C   UNK N   1      35.908  10.153  11.635  0.00  0.00     0.089 A 
HETATM    6  C   UNK N   1      35.480  11.199  10.786  0.00  0.00     0.030 A 
HETATM    7  C   UNK N   1      35.042  12.395  11.367  0.00  0.00    -0.006 A 
ENDROOT
BRANCH   7   8
HETATM    8  C   UNK N   1      34.563  13.583  10.641  0.00  0.00     0.043 A 
HETATM    9  C   UNK N   1      35.212  14.808  10.742  0.00  0.00     0.049 A 
HETATM   10  C   UNK N   1      34.499  15.651   9.949  0.00  0.00     0.056 A 
HETATM   11  C   UNK N   1      34.730  17.057   9.683  0.00  0.00     0.253 A 
HETATM   12  C   UNK N   1      33.473  14.952   9.404  0.00  0.00     0.027 A 
HETATM   13  O   UNK N   1      35.667  17.644  10.197  0.00  0.00    -0.268 OA
HETATM   14  N   UNK N   1      33.884  17.713   8.850  0.00  0.00    -0.356 N 
HETATM   15  C   UNK N   1      32.737  17.086   8.193  0.00  0.00     0.129 A 
HETATM   16  H   UNK N   1      34.052  18.668   8.678  0.00  0.00     0.162 HD
HETATM   17  C   UNK N   1      32.483  15.575   8.475  0.00  0.00     0.078 A 
HETATM   18  N   UNK N   1      33.491  13.665   9.819  0.00  0.00    -0.358 N 
HETATM   19  H   UNK N   1      32.864  12.947   9.576  0.00  0.00     0.166 HD
ENDBRANCH   7   8
BRANCH   1  20
HETATM   20  C   UNK N   1      35.419  11.734  15.017  0.00  0.00     0.007 A 
HETATM   21  C   UNK N   1      35.867  10.817  15.975  0.00  0.00     0.029 A 
HETATM   22  C   UNK N   1      35.779  11.154  17.335  0.00  0.00    -0.009 A 
HETATM   23  C   UNK N   1      36.215  10.266  18.321  0.00  0.00     0.014 A 
HETATM   24  C   UNK N   1      35.242  12.407  17.712  0.00  0.00     0.042 A 
HETATM   25  C   UNK N   1      36.118  10.623  19.672  0.00  0.00     0.001 A 
HETATM   26  C   UNK N   1      35.586  11.864  20.041  0.00  0.00     0.002 A 
HETATM   27  C   UNK N   1      35.148  12.755  19.060  0.00  0.00     0.030 A 
HETATM   28  N   UNK N   1      34.816  13.275  16.768  0.00  0.00    -0.364 N 
HETATM   29  C   UNK N   1      34.894  12.967  15.454  0.00  0.00     0.102 A 
ATOM     30  HN  UNK N   1      34.431  14.176  17.051  1.00  0.00     0.165 HD
ENDBRANCH   1  20
TORSDOF 2
ENDMDL
MODEL 7
REMARK VINA RESULT:      -8.2      9.516     11.788
REMARK  2 active torsions:
REMARK  status: ('A' for Active; 'I' for Inactive)
REMARK    1  A    between atoms: C_11  and  C_12 
REMARK    2  A    between atoms: C_18  and  C_19 
ROOT
HETATM    1  C   UNK N   1      35.063  14.684   9.841  0.00  0.00     0.044 A 
HETATM    2  C   UNK N   1      33.888  15.360   9.593  0.00  0.00     0.044 A 
HETATM    3  N   UNK N   1      35.873  14.352   8.793  0.00  0.00    -0.365 N 
ATOM      4  HN  UNK N   1      36.744  13.851   8.967  1.00  0.00     0.165 HD
HETATM    5  C   UNK N   1      35.526  14.686   7.508  0.00  0.00     0.089 A 
HETATM    6  C   UNK N   1      34.323  15.380   7.245  0.00  0.00     0.030 A 
HETATM    7  C   UNK N   1      33.496  15.718   8.324  0.00  0.00    -0.006 A 
ENDROOT
BRANCH   7   8
HETATM    8  C   UNK N   1      32.214  16.436   8.237  0.00  0.00     0.043 A 
HETATM    9  C   UNK N   1      31.464  16.448   7.067  0.00  0.00     0.049 A 
HETATM   10  C   UNK N   1      30.367  17.196   7.360  0.00  0.00     0.056 A 
HETATM   11  C   UNK N   1      29.248  17.538   6.503  0.00  0.00     0.253 A 
HETATM   12  C   UNK N   1      30.466  17.607   8.648  0.00  0.00     0.027 A 
HETATM   13  O   UNK N   1      29.203  17.144   5.350  0.00  0.00    -0.268 OA
HETATM   14  N   UNK N   1      28.250  18.304   7.006  0.00  0.00    -0.356 N 
HETATM   15  C   UNK N   1      28.225  18.818   8.376  0.00  0.00     0.129 A 
HETATM   16  H   UNK N   1      27.496  18.530   6.413  0.00  0.00     0.162 HD
HETATM   17  C   UNK N   1      29.424  18.454   9.301  0.00  0.00     0.078 A 
HETATM   18  N   UNK N   1      31.605  17.148   9.214  0.00  0.00    -0.358 N 
HETATM   19  H   UNK N   1      31.921  17.298  10.134  0.00  0.00     0.166 HD
ENDBRANCH   7   8
BRANCH   1  20
HETATM   20  C   UNK N   1      35.359  14.363  11.255  0.00  0.00     0.007 A 
HETATM   21  C   UNK N   1      34.856  13.233  11.911  0.00  0.00     0.029 A 
HETATM   22  C   UNK N   1      35.195  13.017  13.256  0.00  0.00    -0.009 A 
HETATM   23  C   UNK N   1      34.715  11.902  13.945  0.00  0.00     0.014 A 
HETATM   24  C   UNK N   1      36.035  13.941  13.923  0.00  0.00     0.042 A 
HETATM   25  C   UNK N   1      35.066  11.707  15.287  0.00  0.00     0.001 A 
HETATM   26  C   UNK N   1      35.897  12.624  15.942  0.00  0.00     0.002 A 
HETATM   27  C   UNK N   1      36.380  13.739  15.259  0.00  0.00     0.030 A 
HETATM   28  N   UNK N   1      36.507  15.025  13.268  0.00  0.00    -0.364 N 
HETATM   29  C   UNK N   1      36.190  15.247  11.972  0.00  0.00     0.102 A 
ATOM     30  HN  UNK N   1      37.111  15.684  13.757  1.00  0.00     0.165 HD
ENDBRANCH   1  20
TORSDOF 2
ENDMDL
MODEL 8
REMARK VINA RESULT:      -7.8      3.875      7.448
REMARK  2 active torsions:
REMARK  status: ('A' for Active; 'I' for Inactive)
REMARK    1  A    between atoms: C_11  and  C_12 
REMARK    2  A    between atoms: C_18  and  C_19 
ROOT
HETATM    1  C   UNK N   1      26.367  19.174   4.424  0.00  0.00     0.044 A 
HETATM    2  C   UNK N   1      25.144  18.590   4.670  0.00  0.00     0.044 A 
HETATM    3  N   UNK N   1      26.453  20.172   3.497  0.00  0.00    -0.365 N 
ATOM      4  HN  UNK N   1      27.354  20.611   3.308  1.00  0.00     0.165 HD
HETATM    5  C   UNK N   1      25.337  20.592   2.816  0.00  0.00     0.089 A 
HETATM    6  C   UNK N   1      24.078  19.999   3.062  0.00  0.00     0.030 A 
HETATM    7  C   UNK N   1      23.997  18.975   4.014  0.00  0.00    -0.006 A 
ENDROOT
BRANCH   7   8
HETATM    8  C   UNK N   1      22.775  18.248   4.398  0.00  0.00     0.043 A 
HETATM    9  C   UNK N   1      22.453  18.017   5.730  0.00  0.00     0.049 A 
HETATM   10  C   UNK N   1      21.280  17.331   5.695  0.00  0.00     0.056 A 
HETATM   11  C   UNK N   1      20.489  16.832   6.803  0.00  0.00     0.253 A 
HETATM   12  C   UNK N   1      20.926  17.164   4.398  0.00  0.00     0.027 A 
HETATM   13  O   UNK N   1      20.850  17.006   7.955  0.00  0.00    -0.268 OA
HETATM   14  N   UNK N   1      19.339  16.166   6.537  0.00  0.00    -0.356 N 
HETATM   15  C   UNK N   1      18.834  15.914   5.187  0.00  0.00     0.129 A 
HETATM   16  H   UNK N   1      18.811  15.833   7.299  0.00  0.00     0.162 HD
HETATM   17  C   UNK N   1      19.680  16.447   3.993  0.00  0.00     0.078 A 
HETATM   18  N   UNK N   1      21.838  17.725   3.572  0.00  0.00    -0.358 N 
HETATM   19  H   UNK N   1      21.825  17.749   2.588  0.00  0.00     0.166 HD
ENDBRANCH   7   8
BRANCH   1  20
HETATM   20  C   UNK N   1      27.517  18.661   5.202  0.00  0.00     0.007 A 
HETATM   21  C   UNK N   1      27.701  18.918   6.565  0.00  0.00     0.029 A 
HETATM   22  C   UNK N   1      28.825  18.385   7.215  0.00  0.00    -0.009 A 
HETATM   23  C   UNK N   1      29.045  18.619   8.574  0.00  0.00     0.014 A 
HETATM   24  C   UNK N   1      29.748  17.600   6.485  0.00  0.00     0.042 A 
HETATM   25  C   UNK N   1      30.174  18.077   9.201  0.00  0.00     0.001 A 
HETATM   26  C   UNK N   1      31.084  17.301   8.474  0.00  0.00     0.002 A 
HETATM   27  C   UNK N   1      30.870  17.064   7.117  0.00  0.00     0.030 A 
HETATM   28  N   UNK N   1      29.548  17.366   5.169  0.00  0.00    -0.364 N 
HETATM   29  C   UNK N   1      28.470  17.872   4.528  0.00  0.00     0.102 A 
ATOM     30  HN  UNK N   1      30.219  16.799   4.651  1.00  0.00     0.165 HD
ENDBRANCH   1  20
TORSDOF 2
ENDMDL
MODEL 9
REMARK VINA RESULT:      -7.8      9.435     11.664
REMARK  2 active torsions:
REMARK  status: ('A' for Active; 'I' for Inactive)
REMARK    1  A    between atoms: C_11  and  C_12 
REMARK    2  A    between atoms: C_18  and  C_19 
ROOT
HETATM    1  C   UNK N   1      34.868  14.519   9.260  0.00  0.00     0.044 A 
HETATM    2  C   UNK N   1      33.699  15.204   9.010  0.00  0.00     0.044 A 
HETATM    3  N   UNK N   1      35.794  14.398   8.264  0.00  0.00    -0.365 N 
ATOM      4  HN  UNK N   1      36.662  13.893   8.440  1.00  0.00     0.165 HD
HETATM    5  C   UNK N   1      35.568  14.951   7.028  0.00  0.00     0.089 A 
HETATM    6  C   UNK N   1      34.372  15.656   6.763  0.00  0.00     0.030 A 
HETATM    7  C   UNK N   1      33.426  15.776   7.788  0.00  0.00    -0.006 A 
ENDROOT
BRANCH   7   8
HETATM    8  C   UNK N   1      32.132  16.471   7.692  0.00  0.00     0.043 A 
HETATM    9  C   UNK N   1      31.599  17.171   8.768  0.00  0.00     0.049 A 
HETATM   10  C   UNK N   1      30.418  17.670   8.315  0.00  0.00     0.056 A 
HETATM   11  C   UNK N   1      29.446  18.480   9.022  0.00  0.00     0.253 A 
HETATM   12  C   UNK N   1      30.262  17.281   7.026  0.00  0.00     0.027 A 
HETATM   13  O   UNK N   1      29.631  18.805  10.182  0.00  0.00    -0.268 OA
HETATM   14  N   UNK N   1      28.324  18.873   8.370  0.00  0.00    -0.356 N 
HETATM   15  C   UNK N   1      28.024  18.527   6.980  0.00  0.00     0.129 A 
HETATM   16  H   UNK N   1      27.672  19.423   8.861  0.00  0.00     0.162 HD
HETATM   17  C   UNK N   1      29.065  17.657   6.215  0.00  0.00     0.078 A 
HETATM   18  N   UNK N   1      31.313  16.536   6.616  0.00  0.00    -0.358 N 
HETATM   19  H   UNK N   1      31.452  16.129   5.730  0.00  0.00     0.166 HD
ENDBRANCH   7   8
BRANCH   1  20
HETATM   20  C   UNK N   1      35.029  13.955  10.619  0.00  0.00     0.007 A 
HETATM   21  C   UNK N   1      35.708  14.614  11.650  0.00  0.00     0.029 A 
HETATM   22  C   UNK N   1      35.807  13.995  12.907  0.00  0.00    -0.009 A 
HETATM   23  C   UNK N   1      36.476  14.619  13.962  0.00  0.00     0.014 A 
HETATM   24  C   UNK N   1      35.222  12.723  13.108  0.00  0.00     0.042 A 
HETATM   25  C   UNK N   1      36.562  13.983  15.207  0.00  0.00     0.001 A 
HETATM   26  C   UNK N   1      35.981  12.724  15.400  0.00  0.00     0.002 A 
HETATM   27  C   UNK N   1      35.312  12.096  14.351  0.00  0.00     0.030 A 
HETATM   28  N   UNK N   1      34.571  12.107  12.095  0.00  0.00    -0.364 N 
HETATM   29  C   UNK N   1      34.467  12.690  10.879  0.00  0.00     0.102 A 
ATOM     30  HN  UNK N   1      34.153  11.191  12.250  1.00  0.00     0.165 HD
ENDBRANCH   1  20
TORSDOF 2
ENDMDL
