MODEL 1
REMARK VINA RESULT:      -5.9      0.000      0.000
REMARK  3 active torsions:
REMARK  status: ('A' for Active; 'I' for Inactive)
REMARK    1  A    between atoms: C_3  and  N_4 
REMARK    2  A    between atoms: N_4  and  C_9 
REMARK    3  A    between atoms: C_6  and  C_7 
ROOT
HETATM    1  N   UNK N   1      31.512  17.129   6.060  0.00  0.00    -0.339 N 
ATOM      2  HN  UNK N   1      31.219  16.804   5.139  1.00  0.00     0.168 HD
HETATM    3  C   UNK N   1      30.650  17.502   7.040  0.00  0.00     0.150 A 
HETATM    4  C   UNK N   1      32.826  17.241   6.454  0.00  0.00     0.028 A 
HETATM    5  C   UNK N   1      33.009  17.711   7.770  0.00  0.00     0.076 A 
HETATM    6  C   UNK N   1      33.937  16.883   5.528  0.00  0.00     0.070 C 
HETATM    7  S   UNK N   1      31.488  17.965   8.380  0.00  0.00    -0.048 SA
ENDROOT
BRANCH   3   8
HETATM    8  N   UNK N   1      29.235  17.493   6.925  0.00  0.00    -0.337 N 
HETATM    9  H   UNK N   1      28.752  16.692   7.236  0.00  0.00     0.168 HD
BRANCH   8  10
HETATM   10  C   UNK N   1      28.471  18.565   6.390  0.00  0.00     0.034 A 
HETATM   11  C   UNK N   1      27.858  19.518   7.220  0.00  0.00     0.029 A 
HETATM   12  C   UNK N   1      27.113  20.562   6.672  0.00  0.00     0.002 A 
HETATM   13  C   UNK N   1      26.974  20.663   5.288  0.00  0.00     0.000 A 
HETATM   14  C   UNK N   1      27.580  19.720   4.453  0.00  0.00     0.002 A 
HETATM   15  C   UNK N   1      28.327  18.673   5.003  0.00  0.00     0.029 A 
ENDBRANCH   8  10
ENDBRANCH   3   8
BRANCH   5  16
HETATM   16  C   UNK N   1      34.277  17.941   8.489  0.00  0.00     0.164 C 
HETATM   17  C   UNK N   1      34.796  16.918   9.443  0.00  0.00     0.097 C 
HETATM   18  O   UNK N   1      34.912  18.967   8.310  0.00  0.00    -0.292 OA
ENDBRANCH   5  16
TORSDOF 3
ENDMDL
MODEL 2
REMARK VINA RESULT:      -5.9      6.741     10.572
REMARK  3 active torsions:
REMARK  status: ('A' for Active; 'I' for Inactive)
REMARK    1  A    between atoms: C_3  and  N_4 
REMARK    2  A    between atoms: N_4  and  C_9 
REMARK    3  A    between atoms: C_6  and  C_7 
ROOT
HETATM    1  N   UNK N   1      37.393  13.478  11.742  0.00  0.00    -0.339 N 
ATOM      2  HN  UNK N   1      38.113  12.759  11.674  1.00  0.00     0.168 HD
HETATM    3  C   UNK N   1      36.717  13.766  12.884  0.00  0.00     0.150 A 
HETATM    4  C   UNK N   1      36.993  14.269  10.689  0.00  0.00     0.028 A 
HETATM    5  C   UNK N   1      35.982  15.201  11.001  0.00  0.00     0.076 A 
HETATM    6  C   UNK N   1      37.608  14.117   9.340  0.00  0.00     0.070 C 
HETATM    7  S   UNK N   1      35.638  14.980  12.608  0.00  0.00    -0.048 SA
ENDROOT
BRANCH   3   8
HETATM    8  N   UNK N   1      36.913  13.117  14.131  0.00  0.00    -0.337 N 
HETATM    9  H   UNK N   1      37.314  12.217  14.124  0.00  0.00     0.168 HD
BRANCH   8  10
HETATM   10  C   UNK N   1      36.568  13.682  15.388  0.00  0.00     0.034 A 
HETATM   11  C   UNK N   1      35.581  13.109  16.206  0.00  0.00     0.029 A 
HETATM   12  C   UNK N   1      35.258  13.682  17.437  0.00  0.00     0.002 A 
HETATM   13  C   UNK N   1      35.921  14.835  17.861  0.00  0.00     0.000 A 
HETATM   14  C   UNK N   1      36.905  15.412  17.053  0.00  0.00     0.002 A 
HETATM   15  C   UNK N   1      37.228  14.838  15.820  0.00  0.00     0.029 A 
ENDBRANCH   8  10
ENDBRANCH   3   8
BRANCH   5  16
HETATM   16  C   UNK N   1      35.340  16.184  10.107  0.00  0.00     0.164 C 
HETATM   17  C   UNK N   1      34.364  15.733   9.073  0.00  0.00     0.097 C 
HETATM   18  O   UNK N   1      35.600  17.371  10.206  0.00  0.00    -0.292 OA
ENDBRANCH   5  16
TORSDOF 3
ENDMDL
MODEL 3
REMARK VINA RESULT:      -5.7      7.582     10.731
REMARK  3 active torsions:
REMARK  status: ('A' for Active; 'I' for Inactive)
REMARK    1  A    between atoms: C_3  and  N_4 
REMARK    2  A    between atoms: N_4  and  C_9 
REMARK    3  A    between atoms: C_6  and  C_7 
ROOT
HETATM    1  N   UNK N   1      36.311  15.215  12.664  0.00  0.00    -0.339 N 
ATOM      2  HN  UNK N   1      36.661  16.023  13.180  1.00  0.00     0.168 HD
HETATM    3  C   UNK N   1      36.417  13.934  13.102  0.00  0.00     0.150 A 
HETATM    4  C   UNK N   1      35.677  15.297  11.445  0.00  0.00     0.028 A 
HETATM    5  C   UNK N   1      35.272  14.058  10.906  0.00  0.00     0.076 A 
HETATM    6  C   UNK N   1      35.456  16.612  10.783  0.00  0.00     0.070 C 
HETATM    7  S   UNK N   1      35.740  12.908  12.006  0.00  0.00    -0.048 SA
ENDROOT
BRANCH   3   8
HETATM    8  N   UNK N   1      37.022  13.540  14.324  0.00  0.00    -0.337 N 
HETATM    9  H   UNK N   1      37.830  12.978  14.278  0.00  0.00     0.168 HD
BRANCH   8  10
HETATM   10  C   UNK N   1      36.537  13.906  15.609  0.00  0.00     0.034 A 
HETATM   11  C   UNK N   1      35.547  13.154  16.262  0.00  0.00     0.029 A 
HETATM   12  C   UNK N   1      35.086  13.532  17.523  0.00  0.00     0.002 A 
HETATM   13  C   UNK N   1      35.612  14.666  18.143  0.00  0.00     0.000 A 
HETATM   14  C   UNK N   1      36.597  15.420  17.501  0.00  0.00     0.002 A 
HETATM   15  C   UNK N   1      37.059  15.041  16.237  0.00  0.00     0.029 A 
ENDBRANCH   8  10
ENDBRANCH   3   8
BRANCH   5  16
HETATM   16  C   UNK N   1      34.575  13.801   9.632  0.00  0.00     0.164 C 
HETATM   17  C   UNK N   1      35.313  13.204   8.480  0.00  0.00     0.097 C 
HETATM   18  O   UNK N   1      33.393  14.073   9.507  0.00  0.00    -0.292 OA
ENDBRANCH   5  16
TORSDOF 3
ENDMDL
MODEL 4
REMARK VINA RESULT:      -5.7      1.704      2.296
REMARK  3 active torsions:
REMARK  status: ('A' for Active; 'I' for Inactive)
REMARK    1  A    between atoms: C_3  and  N_4 
REMARK    2  A    between atoms: N_4  and  C_9 
REMARK    3  A    between atoms: C_6  and  C_7 
ROOT
HETATM    1  N   UNK N   1      30.556  17.302   4.201  0.00  0.00    -0.339 N 
ATOM      2  HN  UNK N   1      30.043  17.375   3.322  1.00  0.00     0.168 HD
HETATM    3  C   UNK N   1      29.972  17.354   5.425  0.00  0.00     0.150 A 
HETATM    4  C   UNK N   1      31.921  17.138   4.283  0.00  0.00     0.028 A 
HETATM    5  C   UNK N   1      32.428  17.060   5.596  0.00  0.00     0.076 A 
HETATM    6  C   UNK N   1      32.759  17.056   3.054  0.00  0.00     0.070 C 
HETATM    7  S   UNK N   1      31.116  17.202   6.601  0.00  0.00    -0.048 SA
ENDROOT
BRANCH   3   8
HETATM    8  N   UNK N   1      28.581  17.516   5.656  0.00  0.00    -0.337 N 
HETATM    9  H   UNK N   1      28.046  16.708   5.833  0.00  0.00     0.168 HD
BRANCH   8  10
HETATM   10  C   UNK N   1      27.912  18.770   5.647  0.00  0.00     0.034 A 
HETATM   11  C   UNK N   1      27.383  19.314   4.465  0.00  0.00     0.029 A 
HETATM   12  C   UNK N   1      26.730  20.546   4.481  0.00  0.00     0.002 A 
HETATM   13  C   UNK N   1      26.600  21.247   5.681  0.00  0.00     0.000 A 
HETATM   14  C   UNK N   1      27.123  20.714   6.862  0.00  0.00     0.002 A 
HETATM   15  C   UNK N   1      27.777  19.478   6.846  0.00  0.00     0.029 A 
ENDBRANCH   8  10
ENDBRANCH   3   8
BRANCH   5  16
HETATM   16  C   UNK N   1      33.829  16.887   6.025  0.00  0.00     0.164 C 
HETATM   17  C   UNK N   1      34.488  15.553   5.919  0.00  0.00     0.097 C 
HETATM   18  O   UNK N   1      34.460  17.832   6.469  0.00  0.00    -0.292 OA
ENDBRANCH   5  16
TORSDOF 3
ENDMDL
MODEL 5
REMARK VINA RESULT:      -5.6      9.772     12.060
REMARK  3 active torsions:
REMARK  status: ('A' for Active; 'I' for Inactive)
REMARK    1  A    between atoms: C_3  and  N_4 
REMARK    2  A    between atoms: N_4  and  C_9 
REMARK    3  A    between atoms: C_6  and  C_7 
ROOT
HETATM    1  N   UNK N   1      21.499  15.240   7.522  0.00  0.00    -0.339 N 
ATOM      2  HN  UNK N   1      22.236  15.094   6.832  1.00  0.00     0.168 HD
HETATM    3  C   UNK N   1      21.132  14.314   8.444  0.00  0.00     0.150 A 
HETATM    4  C   UNK N   1      20.762  16.398   7.626  0.00  0.00     0.028 A 
HETATM    5  C   UNK N   1      19.793  16.391   8.650  0.00  0.00     0.076 A 
HETATM    6  C   UNK N   1      21.004  17.546   6.708  0.00  0.00     0.070 C 
HETATM    7  S   UNK N   1      19.914  14.907   9.382  0.00  0.00    -0.048 SA
ENDROOT
BRANCH   3   8
HETATM    8  N   UNK N   1      21.713  13.026   8.579  0.00  0.00    -0.337 N 
HETATM    9  H   UNK N   1      21.486  12.345   7.904  0.00  0.00     0.168 HD
BRANCH   8  10
HETATM   10  C   UNK N   1      22.600  12.657   9.626  0.00  0.00     0.034 A 
HETATM   11  C   UNK N   1      23.994  12.703   9.460  0.00  0.00     0.029 A 
HETATM   12  C   UNK N   1      24.845  12.336  10.503  0.00  0.00     0.002 A 
HETATM   13  C   UNK N   1      24.310  11.919  11.722  0.00  0.00     0.000 A 
HETATM   14  C   UNK N   1      22.924  11.870  11.897  0.00  0.00     0.002 A 
HETATM   15  C   UNK N   1      22.071  12.238  10.852  0.00  0.00     0.029 A 
ENDBRANCH   8  10
ENDBRANCH   3   8
BRANCH   5  16
HETATM   16  C   UNK N   1      18.849  17.462   9.022  0.00  0.00     0.164 C 
HETATM   17  C   UNK N   1      17.380  17.254   8.873  0.00  0.00     0.097 C 
HETATM   18  O   UNK N   1      19.261  18.526   9.453  0.00  0.00    -0.292 OA
ENDBRANCH   5  16
TORSDOF 3
ENDMDL
MODEL 6
REMARK VINA RESULT:      -5.5      4.811      8.954
REMARK  3 active torsions:
REMARK  status: ('A' for Active; 'I' for Inactive)
REMARK    1  A    between atoms: C_3  and  N_4 
REMARK    2  A    between atoms: N_4  and  C_9 
REMARK    3  A    between atoms: C_6  and  C_7 
ROOT
HETATM    1  N   UNK N   1      35.938  14.558   9.487  0.00  0.00    -0.339 N 
ATOM      2  HN  UNK N   1      36.272  13.636   9.208  1.00  0.00     0.168 HD
HETATM    3  C   UNK N   1      36.120  15.087  10.724  0.00  0.00     0.150 A 
HETATM    4  C   UNK N   1      35.251  15.411   8.654  0.00  0.00     0.028 A 
HETATM    5  C   UNK N   1      34.881  16.639   9.241  0.00  0.00     0.076 A 
HETATM    6  C   UNK N   1      34.942  15.027   7.248  0.00  0.00     0.070 C 
HETATM    7  S   UNK N   1      35.445  16.587  10.800  0.00  0.00    -0.048 SA
ENDROOT
BRANCH   3   8
HETATM    8  N   UNK N   1      36.793  14.440  11.793  0.00  0.00    -0.337 N 
HETATM    9  H   UNK N   1      37.777  14.481  11.811  0.00  0.00     0.168 HD
BRANCH   8  10
HETATM   10  C   UNK N   1      36.137  13.737  12.840  0.00  0.00     0.034 A 
HETATM   11  C   UNK N   1      35.228  12.700  12.572  0.00  0.00     0.029 A 
HETATM   12  C   UNK N   1      34.596  12.024  13.616  0.00  0.00     0.002 A 
HETATM   13  C   UNK N   1      34.868  12.379  14.938  0.00  0.00     0.000 A 
HETATM   14  C   UNK N   1      35.772  13.409  15.214  0.00  0.00     0.002 A 
HETATM   15  C   UNK N   1      36.405  14.086  14.168  0.00  0.00     0.029 A 
ENDBRANCH   8  10
ENDBRANCH   3   8
BRANCH   5  16
HETATM   16  C   UNK N   1      34.144  17.759   8.625  0.00  0.00     0.164 C 
HETATM   17  C   UNK N   1      32.669  17.666   8.421  0.00  0.00     0.097 C 
HETATM   18  O   UNK N   1      34.732  18.770   8.279  0.00  0.00    -0.292 OA
ENDBRANCH   5  16
TORSDOF 3
ENDMDL
MODEL 7
REMARK VINA RESULT:      -5.5      2.017      2.586
REMARK  3 active torsions:
REMARK  status: ('A' for Active; 'I' for Inactive)
REMARK    1  A    between atoms: C_3  and  N_4 
REMARK    2  A    between atoms: N_4  and  C_9 
REMARK    3  A    between atoms: C_6  and  C_7 
ROOT
HETATM    1  N   UNK N   1      29.981  17.237   6.089  0.00  0.00    -0.339 N 
ATOM      2  HN  UNK N   1      29.099  17.176   6.599  1.00  0.00     0.168 HD
HETATM    3  C   UNK N   1      30.068  17.469   4.755  0.00  0.00     0.150 A 
HETATM    4  C   UNK N   1      31.219  17.093   6.673  0.00  0.00     0.028 A 
HETATM    5  C   UNK N   1      32.308  17.213   5.786  0.00  0.00     0.076 A 
HETATM    6  C   UNK N   1      31.352  16.831   8.134  0.00  0.00     0.070 C 
HETATM    7  S   UNK N   1      31.648  17.499   4.291  0.00  0.00    -0.048 SA
ENDROOT
BRANCH   3   8
HETATM    8  N   UNK N   1      28.960  17.659   3.888  0.00  0.00    -0.337 N 
HETATM    9  H   UNK N   1      28.937  17.143   3.049  0.00  0.00     0.168 HD
BRANCH   8  10
HETATM   10  C   UNK N   1      27.882  18.545   4.155  0.00  0.00     0.034 A 
HETATM   11  C   UNK N   1      28.098  19.830   4.680  0.00  0.00     0.029 A 
HETATM   12  C   UNK N   1      27.023  20.683   4.934  0.00  0.00     0.002 A 
HETATM   13  C   UNK N   1      25.722  20.258   4.664  0.00  0.00     0.000 A 
HETATM   14  C   UNK N   1      25.497  18.982   4.141  0.00  0.00     0.002 A 
HETATM   15  C   UNK N   1      26.574  18.127   3.887  0.00  0.00     0.029 A 
ENDBRANCH   8  10
ENDBRANCH   3   8
BRANCH   5  16
HETATM   16  C   UNK N   1      33.748  17.112   6.090  0.00  0.00     0.164 C 
HETATM   17  C   UNK N   1      34.482  15.839   5.831  0.00  0.00     0.097 C 
HETATM   18  O   UNK N   1      34.350  18.065   6.554  0.00  0.00    -0.292 OA
ENDBRANCH   5  16
TORSDOF 3
ENDMDL
MODEL 8
REMARK VINA RESULT:      -5.4     11.366     12.696
REMARK  3 active torsions:
REMARK  status: ('A' for Active; 'I' for Inactive)
REMARK    1  A    between atoms: C_3  and  N_4 
REMARK    2  A    between atoms: N_4  and  C_9 
REMARK    3  A    between atoms: C_6  and  C_7 
ROOT
HETATM    1  N   UNK N   1      29.402  24.907  -3.863  0.00  0.00    -0.339 N 
ATOM      2  HN  UNK N   1      29.202  25.842  -4.218  1.00  0.00     0.168 HD
HETATM    3  C   UNK N   1      28.469  24.093  -3.307  0.00  0.00     0.150 A 
HETATM    4  C   UNK N   1      30.649  24.324  -3.892  0.00  0.00     0.028 A 
HETATM    5  C   UNK N   1      30.705  23.024  -3.349  0.00  0.00     0.076 A 
HETATM    6  C   UNK N   1      31.820  25.047  -4.463  0.00  0.00     0.070 C 
HETATM    7  S   UNK N   1      29.163  22.670  -2.853  0.00  0.00    -0.048 SA
ENDROOT
BRANCH   3   8
HETATM    8  N   UNK N   1      27.098  24.422  -3.141  0.00  0.00    -0.337 N 
HETATM    9  H   UNK N   1      26.576  23.906  -2.485  0.00  0.00     0.168 HD
BRANCH   8  10
HETATM   10  C   UNK N   1      26.432  25.450  -3.862  0.00  0.00     0.034 A 
HETATM   11  C   UNK N   1      26.295  26.746  -3.339  0.00  0.00     0.029 A 
HETATM   12  C   UNK N   1      25.637  27.739  -4.065  0.00  0.00     0.002 A 
HETATM   13  C   UNK N   1      25.109  27.444  -5.322  0.00  0.00     0.000 A 
HETATM   14  C   UNK N   1      25.240  26.157  -5.852  0.00  0.00     0.002 A 
HETATM   15  C   UNK N   1      25.900  25.163  -5.124  0.00  0.00     0.029 A 
ENDBRANCH   8  10
ENDBRANCH   3   8
BRANCH   5  16
HETATM   16  C   UNK N   1      31.877  22.135  -3.230  0.00  0.00     0.164 C 
HETATM   17  C   UNK N   1      32.552  21.616  -4.455  0.00  0.00     0.097 C 
HETATM   18  O   UNK N   1      32.302  21.817  -2.133  0.00  0.00    -0.292 OA
ENDBRANCH   5  16
TORSDOF 3
ENDMDL
MODEL 9
REMARK VINA RESULT:      -5.4      7.702     10.171
REMARK  3 active torsions:
REMARK  status: ('A' for Active; 'I' for Inactive)
REMARK    1  A    between atoms: C_3  and  N_4 
REMARK    2  A    between atoms: N_4  and  C_9 
REMARK    3  A    between atoms: C_6  and  C_7 
ROOT
HETATM    1  N   UNK N   1      35.283  12.306  13.339  0.00  0.00    -0.339 N 
ATOM      2  HN  UNK N   1      34.891  11.953  12.467  1.00  0.00     0.168 HD
HETATM    3  C   UNK N   1      36.308  13.194  13.404  0.00  0.00     0.150 A 
HETATM    4  C   UNK N   1      34.836  11.939  14.588  0.00  0.00     0.028 A 
HETATM    5  C   UNK N   1      35.518  12.547  15.662  0.00  0.00     0.076 A 
HETATM    6  C   UNK N   1      33.714  10.972  14.747  0.00  0.00     0.070 C 
HETATM    7  S   UNK N   1      36.665  13.529  14.976  0.00  0.00    -0.048 SA
ENDROOT
BRANCH   3   8
HETATM    8  N   UNK N   1      36.973  13.751  12.280  0.00  0.00    -0.337 N 
HETATM    9  H   UNK N   1      37.940  13.587  12.187  0.00  0.00     0.168 HD
BRANCH   8  10
HETATM   10  C   UNK N   1      36.331  14.531  11.279  0.00  0.00     0.034 A 
HETATM   11  C   UNK N   1      36.204  14.072   9.958  0.00  0.00     0.029 A 
HETATM   12  C   UNK N   1      35.570  14.855   8.993  0.00  0.00     0.002 A 
HETATM   13  C   UNK N   1      35.058  16.105   9.340  0.00  0.00     0.000 A 
HETATM   14  C   UNK N   1      35.180  16.570  10.653  0.00  0.00     0.002 A 
HETATM   15  C   UNK N   1      35.815  15.786  11.620  0.00  0.00     0.029 A 
ENDBRANCH   8  10
ENDBRANCH   3   8
BRANCH   5  16
HETATM   16  C   UNK N   1      35.286  12.370  17.109  0.00  0.00     0.164 C 
HETATM   17  C   UNK N   1      35.634  11.080  17.772  0.00  0.00     0.097 C 
HETATM   18  O   UNK N   1      34.809  13.274  17.773  0.00  0.00    -0.292 OA
ENDBRANCH   5  16
TORSDOF 3
ENDMDL
