MODEL 1
REMARK VINA RESULT:      -7.6      0.000      0.000
REMARK  2 active torsions:
REMARK  status: ('A' for Active; 'I' for Inactive)
REMARK       I    between atoms: C_9  and  N_20 
REMARK       I    between atoms: C_12  and  N_13 
REMARK    1  A    between atoms: N_13  and  C_14 
REMARK    2  A    between atoms: N_23  and  C_26 
ROOT
HETATM    1  N   UNK N   1      35.344  15.301   7.477  0.00  0.00    -0.288 N 
ATOM      2  HN  UNK N   1      35.996  14.912   8.157  1.00  0.00     0.187 HD
HETATM    3  C   UNK N   1      35.290  14.965   6.168  0.00  0.00     0.135 A 
HETATM    4  C   UNK N   1      34.310  15.724   5.584  0.00  0.00     0.108 A 
HETATM    5  C   UNK N   1      33.827  16.514   6.589  0.00  0.00     0.182 A 
HETATM    6  N   UNK N   1      34.422  16.213   7.738  0.00  0.00    -0.067 N 
HETATM    7  N   UNK N   1      32.773  17.312   6.538  0.00  0.00    -0.172 N 
ATOM      8  HN  UNK N   1      32.342  17.557   5.647  1.00  0.00     0.186 HD
HETATM    9  C   UNK N   1      32.282  17.795   7.706  0.00  0.00     0.696 C 
HETATM   10  N   UNK N   1      32.954  17.631   8.854  0.00  0.00    -0.020 N 
ATOM     11  HN  UNK N   1      32.682  18.167   9.678  1.00  0.00     0.203 HD
HETATM   12  C   UNK N   1      33.969  16.783   8.930  0.00  0.00     0.720 C 
HETATM   13  N   UNK N   1      34.290  16.388  10.266  0.00  0.00    -0.189 N 
HETATM   14  N   UNK N   1      30.915  17.695   7.854  0.00  0.00    -0.214 N 
HETATM   15  C   UNK N   1      30.311  17.960   9.143  0.00  0.00     0.171 C 
HETATM   16  C   UNK N   1      28.877  17.453   9.142  0.00  0.00     0.292 C 
HETATM   17  N   UNK N   1      28.213  17.712   7.846  0.00  0.00     0.091 N 
HETATM   18  C   UNK N   1      28.974  17.366   6.631  0.00  0.00     0.292 C 
HETATM   19  C   UNK N   1      30.270  16.760   6.970  0.00  0.00     0.171 C 
HETATM   20  C   UNK N   1      33.827  15.571   4.240  0.00  0.00     0.105 C 
HETATM   21  N   UNK N   1      33.466  15.418   3.152  0.00  0.00    -0.191 NA
HETATM   22  H   UNK N   1      33.900  16.943  10.979  0.00  0.00     0.184 HD
ENDROOT
BRANCH  13  23
HETATM   23  C   UNK N   1      35.081  15.326  10.697  0.00  0.00     0.049 C 
HETATM   24  C   UNK N   1      34.517  14.069  10.566  0.00  0.00     0.030 C 
HETATM   25  C   UNK N   1      34.703  13.144  11.586  0.00  0.00     0.002 C 
HETATM   26  C   UNK N   1      35.394  13.521  12.744  0.00  0.00     0.000 C 
HETATM   27  C   UNK N   1      36.102  14.714  12.762  0.00  0.00     0.002 C 
HETATM   28  C   UNK N   1      35.992  15.572  11.689  0.00  0.00     0.030 C 
ENDBRANCH  13  23
BRANCH  17  29
HETATM   29  C   UNK N   1      27.879  19.122   7.770  0.00  0.00     0.268 C 
HETATM   30  C   UNK N   1      27.777  19.536   6.315  0.00  0.00     0.037 C 
ENDBRANCH  17  29
TORSDOF 2
ENDMDL
MODEL 2
REMARK VINA RESULT:      -7.3      3.153      5.469
REMARK  2 active torsions:
REMARK  status: ('A' for Active; 'I' for Inactive)
REMARK       I    between atoms: C_9  and  N_20 
REMARK       I    between atoms: C_12  and  N_13 
REMARK    1  A    between atoms: N_13  and  C_14 
REMARK    2  A    between atoms: N_23  and  C_26 
ROOT
HETATM    1  N   UNK N   1      37.639  11.854  11.889  0.00  0.00    -0.288 N 
ATOM      2  HN  UNK N   1      37.668  11.671  12.891  1.00  0.00     0.187 HD
HETATM    3  C   UNK N   1      37.923  10.950  10.923  0.00  0.00     0.135 A 
HETATM    4  C   UNK N   1      37.802  11.581   9.713  0.00  0.00     0.108 A 
HETATM    5  C   UNK N   1      37.465  12.870  10.018  0.00  0.00     0.182 A 
HETATM    6  N   UNK N   1      37.318  13.010  11.332  0.00  0.00    -0.067 N 
HETATM    7  N   UNK N   1      37.103  13.820   9.172  0.00  0.00    -0.172 N 
ATOM      8  HN  UNK N   1      37.246  13.712   8.168  1.00  0.00     0.186 HD
HETATM    9  C   UNK N   1      36.536  14.943   9.678  0.00  0.00     0.696 C 
HETATM   10  N   UNK N   1      36.519  15.169  10.999  0.00  0.00    -0.020 N 
ATOM     11  HN  UNK N   1      36.277  16.096  11.349  1.00  0.00     0.203 HD
HETATM   12  C   UNK N   1      36.815  14.202  11.856  0.00  0.00     0.720 C 
HETATM   13  N   UNK N   1      36.339  14.443  13.182  0.00  0.00    -0.189 N 
HETATM   14  N   UNK N   1      35.388  15.361   9.039  0.00  0.00    -0.214 N 
HETATM   15  C   UNK N   1      34.573  16.401   9.630  0.00  0.00     0.171 C 
HETATM   16  C   UNK N   1      33.219  16.435   8.940  0.00  0.00     0.292 C 
HETATM   17  N   UNK N   1      33.348  16.211   7.484  0.00  0.00     0.091 N 
HETATM   18  C   UNK N   1      34.211  15.092   7.060  0.00  0.00     0.292 C 
HETATM   19  C   UNK N   1      34.747  14.365   8.221  0.00  0.00     0.171 C 
HETATM   20  C   UNK N   1      37.871  10.942   8.429  0.00  0.00     0.105 C 
HETATM   21  N   UNK N   1      37.935  10.393   7.414  0.00  0.00    -0.191 NA
HETATM   22  H   UNK N   1      36.060  15.367  13.372  0.00  0.00     0.184 HD
ENDROOT
BRANCH  13  23
HETATM   23  C   UNK N   1      36.216  13.549  14.242  0.00  0.00     0.049 C 
HETATM   24  C   UNK N   1      35.117  12.709  14.192  0.00  0.00     0.030 C 
HETATM   25  C   UNK N   1      34.425  12.442  15.367  0.00  0.00     0.002 C 
HETATM   26  C   UNK N   1      34.810  13.076  16.555  0.00  0.00     0.000 C 
HETATM   27  C   UNK N   1      36.019  13.756  16.608  0.00  0.00     0.002 C 
HETATM   28  C   UNK N   1      36.747  13.915  15.449  0.00  0.00     0.030 C 
ENDBRANCH  13  23
BRANCH  17  29
HETATM   29  C   UNK N   1      33.864  17.421   6.872  0.00  0.00     0.268 C 
HETATM   30  C   UNK N   1      33.491  17.439   5.402  0.00  0.00     0.037 C 
ENDBRANCH  17  29
TORSDOF 2
ENDMDL
MODEL 3
REMARK VINA RESULT:      -7.1      3.248      5.810
REMARK  2 active torsions:
REMARK  status: ('A' for Active; 'I' for Inactive)
REMARK       I    between atoms: C_9  and  N_20 
REMARK       I    between atoms: C_12  and  N_13 
REMARK    1  A    between atoms: N_13  and  C_14 
REMARK    2  A    between atoms: N_23  and  C_26 
ROOT
HETATM    1  N   UNK N   1      34.959  10.837  12.535  0.00  0.00    -0.288 N 
ATOM      2  HN  UNK N   1      35.372  10.721  13.459  1.00  0.00     0.187 HD
HETATM    3  C   UNK N   1      33.974  10.068  12.018  0.00  0.00     0.135 A 
HETATM    4  C   UNK N   1      33.715  10.518  10.750  0.00  0.00     0.108 A 
HETATM    5  C   UNK N   1      34.593  11.546  10.554  0.00  0.00     0.182 A 
HETATM    6  N   UNK N   1      35.303  11.764  11.656  0.00  0.00    -0.067 N 
HETATM    7  N   UNK N   1      34.624  12.383   9.529  0.00  0.00    -0.172 N 
ATOM      8  HN  UNK N   1      34.096  12.190   8.678  1.00  0.00     0.186 HD
HETATM    9  C   UNK N   1      35.378  13.504   9.643  0.00  0.00     0.696 C 
HETATM   10  N   UNK N   1      36.216  13.666  10.676  0.00  0.00    -0.020 N 
ATOM     11  HN  UNK N   1      36.917  14.407  10.645  1.00  0.00     0.203 HD
HETATM   12  C   UNK N   1      36.147  12.874  11.736  0.00  0.00     0.720 C 
HETATM   13  N   UNK N   1      36.768  13.418  12.903  0.00  0.00    -0.189 N 
HETATM   14  N   UNK N   1      34.755  14.672   9.257  0.00  0.00    -0.214 N 
HETATM   15  C   UNK N   1      35.374  15.948   9.553  0.00  0.00     0.171 C 
HETATM   16  C   UNK N   1      34.356  17.060   9.350  0.00  0.00     0.292 C 
HETATM   17  N   UNK N   1      33.505  16.805   8.168  0.00  0.00     0.091 N 
HETATM   18  C   UNK N   1      32.945  15.447   8.035  0.00  0.00     0.292 C 
HETATM   19  C   UNK N   1      33.319  14.603   9.180  0.00  0.00     0.171 C 
HETATM   20  C   UNK N   1      32.637  10.074   9.911  0.00  0.00     0.105 C 
HETATM   21  N   UNK N   1      31.759   9.689   9.265  0.00  0.00    -0.191 NA
HETATM   22  H   UNK N   1      37.364  14.186  12.749  0.00  0.00     0.184 HD
ENDROOT
BRANCH  13  23
HETATM   23  C   UNK N   1      36.644  13.012  14.229  0.00  0.00     0.049 C 
HETATM   24  C   UNK N   1      37.382  11.896  14.584  0.00  0.00     0.030 C 
HETATM   25  C   UNK N   1      36.803  10.952  15.424  0.00  0.00     0.002 C 
HETATM   26  C   UNK N   1      35.475  11.115  15.836  0.00  0.00     0.000 C 
HETATM   27  C   UNK N   1      34.834  12.326  15.619  0.00  0.00     0.002 C 
HETATM   28  C   UNK N   1      35.471  13.295  14.875  0.00  0.00     0.030 C 
ENDBRANCH  13  23
BRANCH  17  29
HETATM   29  C   UNK N   1      34.278  17.083   6.971  0.00  0.00     0.268 C 
HETATM   30  C   UNK N   1      33.336  17.434   5.836  0.00  0.00     0.037 C 
ENDBRANCH  17  29
TORSDOF 2
ENDMDL
MODEL 4
REMARK VINA RESULT:      -7.0      4.595      8.046
REMARK  2 active torsions:
REMARK  status: ('A' for Active; 'I' for Inactive)
REMARK       I    between atoms: C_9  and  N_20 
REMARK       I    between atoms: C_12  and  N_13 
REMARK    1  A    between atoms: N_13  and  C_14 
REMARK    2  A    between atoms: N_23  and  C_26 
ROOT
HETATM    1  N   UNK N   1      27.566  19.622   5.551  0.00  0.00    -0.288 N 
ATOM      2  HN  UNK N   1      28.339  19.845   6.177  1.00  0.00     0.187 HD
HETATM    3  C   UNK N   1      26.983  20.489   4.693  0.00  0.00     0.135 A 
HETATM    4  C   UNK N   1      25.968  19.825   4.054  0.00  0.00     0.108 A 
HETATM    5  C   UNK N   1      25.978  18.567   4.589  0.00  0.00     0.182 A 
HETATM    6  N   UNK N   1      26.979  18.440   5.453  0.00  0.00    -0.067 N 
HETATM    7  N   UNK N   1      25.270  17.525   4.185  0.00  0.00    -0.172 N 
ATOM      8  HN  UNK N   1      24.486  17.639   3.542  1.00  0.00     0.186 HD
HETATM    9  C   UNK N   1      25.618  16.299   4.649  0.00  0.00     0.696 C 
HETATM   10  N   UNK N   1      26.519  16.167   5.633  0.00  0.00    -0.020 N 
ATOM     11  HN  UNK N   1      26.620  15.269   6.106  1.00  0.00     0.203 HD
HETATM   12  C   UNK N   1      27.279  17.190   5.997  0.00  0.00     0.720 C 
HETATM   13  N   UNK N   1      28.456  16.806   6.713  0.00  0.00    -0.189 N 
HETATM   14  N   UNK N   1      25.708  15.312   3.691  0.00  0.00    -0.214 N 
HETATM   15  C   UNK N   1      26.294  14.032   4.030  0.00  0.00     0.171 C 
HETATM   16  C   UNK N   1      26.595  13.261   2.754  0.00  0.00     0.292 C 
HETATM   17  N   UNK N   1      25.527  13.443   1.748  0.00  0.00     0.091 N 
HETATM   18  C   UNK N   1      25.061  14.824   1.519  0.00  0.00     0.292 C 
HETATM   19  C   UNK N   1      25.820  15.783   2.335  0.00  0.00     0.171 C 
HETATM   20  C   UNK N   1      25.196  20.337   2.957  0.00  0.00     0.105 C 
HETATM   21  N   UNK N   1      24.595  20.786   2.078  0.00  0.00    -0.191 NA
HETATM   22  H   UNK N   1      28.464  15.883   7.054  0.00  0.00     0.184 HD
ENDROOT
BRANCH  13  23
HETATM   23  C   UNK N   1      29.593  17.560   6.993  0.00  0.00     0.049 C 
HETATM   24  C   UNK N   1      30.757  17.136   6.377  0.00  0.00     0.030 C 
HETATM   25  C   UNK N   1      31.943  17.162   7.101  0.00  0.00     0.002 C 
HETATM   26  C   UNK N   1      31.923  17.547   8.447  0.00  0.00     0.000 C 
HETATM   27  C   UNK N   1      30.784  18.141   8.973  0.00  0.00     0.002 C 
HETATM   28  C   UNK N   1      29.647  18.206   8.198  0.00  0.00     0.030 C 
ENDBRANCH  13  23
BRANCH  17  29
HETATM   29  C   UNK N   1      24.379  12.648   2.141  0.00  0.00     0.268 C 
HETATM   30  C   UNK N   1      23.222  12.942   1.205  0.00  0.00     0.037 C 
ENDBRANCH  17  29
TORSDOF 2
ENDMDL
MODEL 5
REMARK VINA RESULT:      -6.8      1.740      7.167
REMARK  2 active torsions:
REMARK  status: ('A' for Active; 'I' for Inactive)
REMARK       I    between atoms: C_9  and  N_20 
REMARK       I    between atoms: C_12  and  N_13 
REMARK    1  A    between atoms: N_13  and  C_14 
REMARK    2  A    between atoms: N_23  and  C_26 
ROOT
HETATM    1  N   UNK N   1      31.189  17.148   6.119  0.00  0.00    -0.288 N 
ATOM      2  HN  UNK N   1      31.110  17.140   5.102  1.00  0.00     0.187 HD
HETATM    3  C   UNK N   1      30.159  17.322   6.979  0.00  0.00     0.135 A 
HETATM    4  C   UNK N   1      30.670  17.301   8.250  0.00  0.00     0.108 A 
HETATM    5  C   UNK N   1      32.017  17.132   8.087  0.00  0.00     0.182 A 
HETATM    6  N   UNK N   1      32.312  16.989   6.799  0.00  0.00    -0.067 N 
HETATM    7  N   UNK N   1      32.912  16.910   9.035  0.00  0.00    -0.172 N 
ATOM      8  HN  UNK N   1      32.681  17.050  10.019  1.00  0.00     0.186 HD
HETATM    9  C   UNK N   1      34.146  16.489   8.662  0.00  0.00     0.696 C 
HETATM   10  N   UNK N   1      34.509  16.486   7.372  0.00  0.00    -0.020 N 
ATOM     11  HN  UNK N   1      35.492  16.364   7.126  1.00  0.00     0.203 HD
HETATM   12  C   UNK N   1      33.608  16.641   6.413  0.00  0.00     0.720 C 
HETATM   13  N   UNK N   1      34.047  16.184   5.131  0.00  0.00    -0.189 N 
HETATM   14  N   UNK N   1      34.639  15.414   9.371  0.00  0.00    -0.214 N 
HETATM   15  C   UNK N   1      35.833  14.737   8.910  0.00  0.00     0.171 C 
HETATM   16  C   UNK N   1      35.970  13.407   9.636  0.00  0.00     0.292 C 
HETATM   17  N   UNK N   1      35.579  13.524  11.058  0.00  0.00     0.091 N 
HETATM   18  C   UNK N   1      34.319  14.237  11.341  0.00  0.00     0.292 C 
HETATM   19  C   UNK N   1      33.655  14.657  10.099  0.00  0.00     0.171 C 
HETATM   20  C   UNK N   1      29.897  17.301   9.460  0.00  0.00     0.105 C 
HETATM   21  N   UNK N   1      29.240  17.305  10.411  0.00  0.00    -0.191 NA
HETATM   22  H   UNK N   1      35.014  16.027   5.044  0.00  0.00     0.184 HD
ENDROOT
BRANCH  13  23
HETATM   23  C   UNK N   1      33.292  15.931   3.989  0.00  0.00     0.049 C 
HETATM   24  C   UNK N   1      32.866  17.049   3.294  0.00  0.00     0.030 C 
HETATM   25  C   UNK N   1      31.580  17.058   2.767  0.00  0.00     0.002 C 
HETATM   26  C   UNK N   1      30.726  15.975   3.008  0.00  0.00     0.000 C 
HETATM   27  C   UNK N   1      31.242  14.802   3.540  0.00  0.00     0.002 C 
HETATM   28  C   UNK N   1      32.555  14.778   3.956  0.00  0.00     0.030 C 
ENDBRANCH  13  23
BRANCH  17  29
HETATM   29  C   UNK N   1      36.641  14.202  11.776  0.00  0.00     0.268 C 
HETATM   30  C   UNK N   1      36.135  14.619  13.144  0.00  0.00     0.037 C 
ENDBRANCH  17  29
TORSDOF 2
ENDMDL
MODEL 6
REMARK VINA RESULT:      -6.8      2.531      7.640
REMARK  2 active torsions:
REMARK  status: ('A' for Active; 'I' for Inactive)
REMARK       I    between atoms: C_9  and  N_20 
REMARK       I    between atoms: C_12  and  N_13 
REMARK    1  A    between atoms: N_13  and  C_14 
REMARK    2  A    between atoms: N_23  and  C_26 
ROOT
HETATM    1  N   UNK N   1      28.825  15.748   3.427  0.00  0.00    -0.288 N 
ATOM      2  HN  UNK N   1      27.979  16.234   3.133  1.00  0.00     0.187 HD
HETATM    3  C   UNK N   1      29.558  14.918   2.651  0.00  0.00     0.135 A 
HETATM    4  C   UNK N   1      30.594  14.442   3.411  0.00  0.00     0.108 A 
HETATM    5  C   UNK N   1      30.417  15.006   4.643  0.00  0.00     0.182 A 
HETATM    6  N   UNK N   1      29.376  15.833   4.627  0.00  0.00    -0.067 N 
HETATM    7  N   UNK N   1      31.249  14.954   5.670  0.00  0.00    -0.172 N 
ATOM      8  HN  UNK N   1      32.028  14.296   5.683  1.00  0.00     0.186 HD
HETATM    9  C   UNK N   1      31.038  15.803   6.707  0.00  0.00     0.696 C 
HETATM   10  N   UNK N   1      29.915  16.532   6.779  0.00  0.00    -0.020 N 
ATOM     11  HN  UNK N   1      29.677  17.006   7.651  1.00  0.00     0.203 HD
HETATM   12  C   UNK N   1      29.110  16.644   5.733  0.00  0.00     0.720 C 
HETATM   13  N   UNK N   1      28.226  17.765   5.803  0.00  0.00    -0.189 N 
HETATM   14  N   UNK N   1      32.155  16.476   7.152  0.00  0.00    -0.214 N 
HETATM   15  C   UNK N   1      32.009  17.572   8.087  0.00  0.00     0.171 C 
HETATM   16  C   UNK N   1      33.310  18.358   8.150  0.00  0.00     0.292 C 
HETATM   17  N   UNK N   1      34.486  17.463   8.099  0.00  0.00     0.091 N 
HETATM   18  C   UNK N   1      34.471  16.408   7.067  0.00  0.00     0.292 C 
HETATM   19  C   UNK N   1      33.263  16.498   6.233  0.00  0.00     0.171 C 
HETATM   20  C   UNK N   1      31.689  13.651   2.926  0.00  0.00     0.105 C 
HETATM   21  N   UNK N   1      32.554  13.012   2.499  0.00  0.00    -0.191 NA
HETATM   22  H   UNK N   1      28.143  18.186   6.689  0.00  0.00     0.184 HD
ENDROOT
BRANCH  13  23
HETATM   23  C   UNK N   1      27.467  18.344   4.790  0.00  0.00     0.049 C 
HETATM   24  C   UNK N   1      27.827  19.633   4.435  0.00  0.00     0.030 C 
HETATM   25  C   UNK N   1      26.823  20.555   4.165  0.00  0.00     0.002 C 
HETATM   26  C   UNK N   1      25.482  20.185   4.321  0.00  0.00     0.000 C 
HETATM   27  C   UNK N   1      25.157  18.846   4.492  0.00  0.00     0.002 C 
HETATM   28  C   UNK N   1      26.171  17.927   4.648  0.00  0.00     0.030 C 
ENDBRANCH  13  23
BRANCH  17  29
HETATM   29  C   UNK N   1      34.634  16.816   9.389  0.00  0.00     0.268 C 
HETATM   30  C   UNK N   1      35.181  15.416   9.189  0.00  0.00     0.037 C 
ENDBRANCH  17  29
TORSDOF 2
ENDMDL
MODEL 7
REMARK VINA RESULT:      -6.7     13.665     18.053
REMARK  2 active torsions:
REMARK  status: ('A' for Active; 'I' for Inactive)
REMARK       I    between atoms: C_9  and  N_20 
REMARK       I    between atoms: C_12  and  N_13 
REMARK    1  A    between atoms: N_13  and  C_14 
REMARK    2  A    between atoms: N_23  and  C_26 
ROOT
HETATM    1  N   UNK N   1      25.873  26.028  -6.794  0.00  0.00    -0.288 N 
ATOM      2  HN  UNK N   1      25.537  26.982  -6.662  1.00  0.00     0.187 HD
HETATM    3  C   UNK N   1      25.658  25.272  -7.894  0.00  0.00     0.135 A 
HETATM    4  C   UNK N   1      26.238  24.049  -7.679  0.00  0.00     0.108 A 
HETATM    5  C   UNK N   1      26.767  24.125  -6.421  0.00  0.00     0.182 A 
HETATM    6  N   UNK N   1      26.586  25.341  -5.917  0.00  0.00    -0.067 N 
HETATM    7  N   UNK N   1      27.547  23.235  -5.830  0.00  0.00    -0.172 N 
ATOM      8  HN  UNK N   1      27.656  22.296  -6.212  1.00  0.00     0.186 HD
HETATM    9  C   UNK N   1      28.200  23.609  -4.702  0.00  0.00     0.696 C 
HETATM   10  N   UNK N   1      27.916  24.770  -4.096  0.00  0.00    -0.020 N 
ATOM     11  HN  UNK N   1      28.261  24.943  -3.152  1.00  0.00     0.203 HD
HETATM   12  C   UNK N   1      27.190  25.694  -4.708  0.00  0.00     0.720 C 
HETATM   13  N   UNK N   1      27.337  27.003  -4.153  0.00  0.00    -0.189 N 
HETATM   14  N   UNK N   1      29.541  23.288  -4.666  0.00  0.00    -0.214 N 
HETATM   15  C   UNK N   1      30.384  23.839  -3.625  0.00  0.00     0.171 C 
HETATM   16  C   UNK N   1      31.844  23.631  -3.996  0.00  0.00     0.292 C 
HETATM   17  N   UNK N   1      32.059  22.310  -4.625  0.00  0.00     0.091 N 
HETATM   18  C   UNK N   1      31.109  21.917  -5.682  0.00  0.00     0.292 C 
HETATM   19  C   UNK N   1      30.132  22.985  -5.943  0.00  0.00     0.171 C 
HETATM   20  C   UNK N   1      26.369  23.005  -8.656  0.00  0.00     0.105 C 
HETATM   21  N   UNK N   1      26.454  22.187  -9.469  0.00  0.00    -0.191 NA
HETATM   22  H   UNK N   1      27.759  27.043  -3.265  0.00  0.00     0.184 HD
ENDROOT
BRANCH  13  23
HETATM   23  C   UNK N   1      26.966  28.230  -4.697  0.00  0.00     0.049 C 
HETATM   24  C   UNK N   1      27.848  28.767  -5.618  0.00  0.00     0.030 C 
HETATM   25  C   UNK N   1      28.094  30.134  -5.589  0.00  0.00     0.002 C 
HETATM   26  C   UNK N   1      27.503  30.922  -4.594  0.00  0.00     0.000 C 
HETATM   27  C   UNK N   1      26.487  30.390  -3.813  0.00  0.00     0.002 C 
HETATM   28  C   UNK N   1      26.181  29.052  -3.936  0.00  0.00     0.030 C 
ENDBRANCH  13  23
BRANCH  17  29
HETATM   29  C   UNK N   1      32.016  21.293  -3.592  0.00  0.00     0.268 C 
HETATM   30  C   UNK N   1      33.424  21.010  -3.105  0.00  0.00     0.037 C 
ENDBRANCH  17  29
TORSDOF 2
ENDMDL
MODEL 8
REMARK VINA RESULT:      -6.7     10.259     12.012
REMARK  2 active torsions:
REMARK  status: ('A' for Active; 'I' for Inactive)
REMARK       I    between atoms: C_9  and  N_20 
REMARK       I    between atoms: C_12  and  N_13 
REMARK    1  A    between atoms: N_13  and  C_14 
REMARK    2  A    between atoms: N_23  and  C_26 
ROOT
HETATM    1  N   UNK N   1      21.040  15.693   7.848  0.00  0.00    -0.288 N 
ATOM      2  HN  UNK N   1      20.973  15.427   8.830  1.00  0.00     0.187 HD
HETATM    3  C   UNK N   1      20.920  16.953   7.371  0.00  0.00     0.135 A 
HETATM    4  C   UNK N   1      21.038  16.896   6.007  0.00  0.00     0.108 A 
HETATM    5  C   UNK N   1      21.206  15.570   5.722  0.00  0.00     0.182 A 
HETATM    6  N   UNK N   1      21.257  14.859   6.844  0.00  0.00    -0.067 N 
HETATM    7  N   UNK N   1      21.504  15.039   4.548  0.00  0.00    -0.172 N 
ATOM      8  HN  UNK N   1      21.434  15.588   3.691  1.00  0.00     0.186 HD
HETATM    9  C   UNK N   1      21.907  13.745   4.516  0.00  0.00     0.696 C 
HETATM   10  N   UNK N   1      21.819  12.971   5.607  0.00  0.00    -0.020 N 
ATOM     11  HN  UNK N   1      21.931  11.961   5.519  1.00  0.00     0.203 HD
HETATM   12  C   UNK N   1      21.587  13.503   6.799  0.00  0.00     0.720 C 
HETATM   13  N   UNK N   1      21.953  12.654   7.889  0.00  0.00    -0.189 N 
HETATM   14  N   UNK N   1      23.034  13.499   3.762  0.00  0.00    -0.214 N 
HETATM   15  C   UNK N   1      23.686  12.209   3.844  0.00  0.00     0.171 C 
HETATM   16  C   UNK N   1      25.066  12.300   3.211  0.00  0.00     0.292 C 
HETATM   17  N   UNK N   1      25.050  13.145   1.998  0.00  0.00     0.091 N 
HETATM   18  C   UNK N   1      24.349  14.439   2.101  0.00  0.00     0.292 C 
HETATM   19  C   UNK N   1      23.834  14.657   3.461  0.00  0.00     0.171 C 
HETATM   20  C   UNK N   1      21.120  18.029   5.129  0.00  0.00     0.105 C 
HETATM   21  N   UNK N   1      21.180  18.966   4.454  0.00  0.00    -0.191 NA
HETATM   22  H   UNK N   1      22.111  11.711   7.659  0.00  0.00     0.184 HD
ENDROOT
BRANCH  13  23
HETATM   23  C   UNK N   1      22.116  12.980   9.233  0.00  0.00     0.049 C 
HETATM   24  C   UNK N   1      23.384  12.775   9.749  0.00  0.00     0.030 C 
HETATM   25  C   UNK N   1      23.507  12.249  11.029  0.00  0.00     0.002 C 
HETATM   26  C   UNK N   1      22.358  11.878  11.738  0.00  0.00     0.000 C 
HETATM   27  C   UNK N   1      21.110  12.269  11.273  0.00  0.00     0.002 C 
HETATM   28  C   UNK N   1      21.019  12.890  10.047  0.00  0.00     0.030 C 
ENDBRANCH  13  23
BRANCH  17  29
HETATM   29  C   UNK N   1      24.435  12.395   0.919  0.00  0.00     0.268 C 
HETATM   30  C   UNK N   1      23.625  13.339   0.050  0.00  0.00     0.037 C 
ENDBRANCH  17  29
TORSDOF 2
ENDMDL
MODEL 9
REMARK VINA RESULT:      -6.6      3.899      6.804
REMARK  2 active torsions:
REMARK  status: ('A' for Active; 'I' for Inactive)
REMARK       I    between atoms: C_9  and  N_20 
REMARK       I    between atoms: C_12  and  N_13 
REMARK    1  A    between atoms: N_13  and  C_14 
REMARK    2  A    between atoms: N_23  and  C_26 
ROOT
HETATM    1  N   UNK N   1      37.587  11.441  13.759  0.00  0.00    -0.288 N 
ATOM      2  HN  UNK N   1      37.785  11.675  14.732  1.00  0.00     0.187 HD
HETATM    3  C   UNK N   1      37.648  10.199  13.228  0.00  0.00     0.135 A 
HETATM    4  C   UNK N   1      37.344  10.299  11.896  0.00  0.00     0.108 A 
HETATM    5  C   UNK N   1      37.131  11.632  11.682  0.00  0.00     0.182 A 
HETATM    6  N   UNK N   1      37.229  12.305  12.824  0.00  0.00    -0.067 N 
HETATM    7  N   UNK N   1      36.672  12.198  10.577  0.00  0.00    -0.172 N 
ATOM      8  HN  UNK N   1      36.628  11.679   9.700  1.00  0.00     0.186 HD
HETATM    9  C   UNK N   1      36.261  13.488  10.645  0.00  0.00     0.696 C 
HETATM   10  N   UNK N   1      36.493  14.227  11.739  0.00  0.00    -0.020 N 
ATOM     11  HN  UNK N   1      36.364  15.238  11.702  1.00  0.00     0.203 HD
HETATM   12  C   UNK N   1      36.888  13.658  12.869  0.00  0.00     0.720 C 
HETATM   13  N   UNK N   1      36.670  14.467  14.028  0.00  0.00    -0.189 N 
HETATM   14  N   UNK N   1      35.040  13.747  10.060  0.00  0.00    -0.214 N 
HETATM   15  C   UNK N   1      34.398  15.027  10.274  0.00  0.00     0.171 C 
HETATM   16  C   UNK N   1      32.945  14.942   9.832  0.00  0.00     0.292 C 
HETATM   17  N   UNK N   1      32.800  14.138   8.600  0.00  0.00     0.091 N 
HETATM   18  C   UNK N   1      33.516  12.848   8.563  0.00  0.00     0.292 C 
HETATM   19  C   UNK N   1      34.214  12.591   9.832  0.00  0.00     0.171 C 
HETATM   20  C   UNK N   1      37.150   9.195  10.999  0.00  0.00     0.105 C 
HETATM   21  N   UNK N   1      37.004   8.280  10.307  0.00  0.00    -0.191 NA
HETATM   22  H   UNK N   1      36.476  15.416  13.853  0.00  0.00     0.184 HD
ENDROOT
BRANCH  13  23
HETATM   23  C   UNK N   1      36.694  14.096  15.369  0.00  0.00     0.049 C 
HETATM   24  C   UNK N   1      35.676  13.251  15.774  0.00  0.00     0.030 C 
HETATM   25  C   UNK N   1      35.084  13.464  17.014  0.00  0.00     0.002 C 
HETATM   26  C   UNK N   1      35.480  14.559  17.790  0.00  0.00     0.000 C 
HETATM   27  C   UNK N   1      36.622  15.267  17.444  0.00  0.00     0.002 C 
HETATM   28  C   UNK N   1      37.261  14.966  16.261  0.00  0.00     0.030 C 
ENDBRANCH  13  23
BRANCH  17  29
HETATM   29  C   UNK N   1      33.258  14.929   7.473  0.00  0.00     0.268 C 
HETATM   30  C   UNK N   1      33.596  14.007   6.317  0.00  0.00     0.037 C 
ENDBRANCH  17  29
TORSDOF 2
ENDMDL
