MODEL 1
REMARK VINA RESULT:      -7.0      0.000      0.000
REMARK  5 active torsions:
REMARK  status: ('A' for Active; 'I' for Inactive)
REMARK       I    between atoms: C_1  and  N_20 
REMARK    1  A    between atoms: C_5  and  C_7 
REMARK    2  A    between atoms: C_6  and  N_17 
REMARK       I    between atoms: C_7  and  N_16 
REMARK    3  A    between atoms: C_8  and  N_17 
REMARK    4  A    between atoms: C_21  and  N_20 
REMARK    5  A    between atoms: C_22  and  N_23 
ROOT
HETATM    1  C   UNK N   1      36.289  14.346  13.108  0.00  0.00     0.679 A 
HETATM    2  C   UNK N   1      36.633  14.120  15.432  0.00  0.00     0.127 A 
HETATM    3  N   UNK N   1      35.432  13.292  13.132  0.00  0.00    -0.176 N 
ATOM      4  HN  UNK N   1      34.984  13.002  12.264  1.00  0.00     0.186 HD
HETATM    5  C   UNK N   1      35.759  13.026  15.483  0.00  0.00     0.092 A 
HETATM    6  C   UNK N   1      35.152  12.613  14.275  0.00  0.00     0.138 A 
HETATM    7  N   UNK N   1      36.888  14.750  14.255  0.00  0.00    -0.201 N 
ATOM      8  HN  UNK N   1      37.537  15.537  14.235  1.00  0.00     0.183 HD
HETATM    9  N   UNK N   1      36.578  15.007  11.883  0.00  0.00    -0.219 N 
HETATM   10  H   UNK N   1      37.324  15.648  11.858  0.00  0.00     0.178 HD
ENDROOT
BRANCH   9  11
HETATM   11  C   UNK N   1      35.816  14.773  10.670  0.00  0.00     0.121 C 
HETATM   12  C   UNK N   1      35.537  16.090   9.930  0.00  0.00     0.097 C 
HETATM   13  C   UNK N   1      34.605  15.851   8.729  0.00  0.00     0.026 C 
HETATM   14  C   UNK N   1      34.656  14.426   8.160  0.00  0.00     0.002 C 
HETATM   15  C   UNK N   1      36.044  13.806   8.282  0.00  0.00     0.002 C 
HETATM   16  C   UNK N   1      36.593  13.847   9.715  0.00  0.00     0.028 C 
BRANCH  12  17
HETATM   17  N   UNK N   1      34.918  17.063  10.814  0.00  0.00    -0.424 N 
HETATM   18  H   UNK N   1      35.337  17.809  11.370  0.00  0.00     0.150 HD
HETATM   19  H   UNK N   1      33.904  16.988  10.893  0.00  0.00     0.150 HD
ENDBRANCH  12  17
ENDBRANCH   9  11
BRANCH   6  20
HETATM   20  N   UNK N   1      34.276  11.487  14.243  0.00  0.00    -0.341 N 
HETATM   21  H   UNK N   1      33.479  11.527  14.820  0.00  0.00     0.167 HD
BRANCH  20  22
HETATM   22  C   UNK N   1      34.445  10.310  13.456  0.00  0.00     0.034 A 
HETATM   23  C   UNK N   1      35.319   9.279  13.835  0.00  0.00     0.029 A 
HETATM   24  C   UNK N   1      35.456   8.135  13.046  0.00  0.00     0.003 A 
HETATM   25  C   UNK N   1      34.718   8.010  11.868  0.00  0.00     0.007 A 
HETATM   26  C   UNK N   1      33.847   9.031  11.479  0.00  0.00    -0.060 A 
HETATM   27  C   UNK N   1      33.712  10.177  12.271  0.00  0.00     0.036 A 
HETATM   28  C   UNK N   1      33.064   8.898  10.224  0.00  0.00     0.048 C 
ENDBRANCH  20  22
ENDBRANCH   6  20
BRANCH   5  29
HETATM   29  C   UNK N   1      35.523  12.353  16.792  0.00  0.00     0.254 C 
HETATM   30  O   UNK N   1      35.795  11.169  16.923  0.00  0.00    -0.268 OA
HETATM   31  N   UNK N   1      35.010  13.026  17.842  0.00  0.00    -0.366 N 
HETATM   32  H   UNK N   1      34.882  12.569  18.705  0.00  0.00     0.159 HD
HETATM   33  H   UNK N   1      34.765  13.974  17.747  0.00  0.00     0.159 HD
ENDBRANCH   5  29
TORSDOF 5
ENDMDL
MODEL 2
REMARK VINA RESULT:      -6.9     20.236     23.682
REMARK  5 active torsions:
REMARK  status: ('A' for Active; 'I' for Inactive)
REMARK       I    between atoms: C_1  and  N_20 
REMARK    1  A    between atoms: C_5  and  C_7 
REMARK    2  A    between atoms: C_6  and  N_17 
REMARK       I    between atoms: C_7  and  N_16 
REMARK    3  A    between atoms: C_8  and  N_17 
REMARK    4  A    between atoms: C_21  and  N_20 
REMARK    5  A    between atoms: C_22  and  N_23 
ROOT
HETATM    1  C   UNK N   1      25.878  25.295  -6.852  0.00  0.00     0.679 A 
HETATM    2  C   UNK N   1      25.130  27.195  -5.670  0.00  0.00     0.127 A 
HETATM    3  N   UNK N   1      26.639  24.931  -5.788  0.00  0.00    -0.176 N 
ATOM      4  HN  UNK N   1      27.190  24.075  -5.845  1.00  0.00     0.186 HD
HETATM    5  C   UNK N   1      25.911  26.846  -4.560  0.00  0.00     0.092 A 
HETATM    6  C   UNK N   1      26.689  25.668  -4.648  0.00  0.00     0.138 A 
HETATM    7  N   UNK N   1      25.133  26.426  -6.790  0.00  0.00    -0.201 N 
ATOM      8  HN  UNK N   1      24.568  26.703  -7.593  1.00  0.00     0.183 HD
HETATM    9  N   UNK N   1      25.882  24.511  -8.038  0.00  0.00    -0.219 N 
HETATM   10  H   UNK N   1      25.465  24.879  -8.850  0.00  0.00     0.178 HD
ENDROOT
BRANCH   9  11
HETATM   11  C   UNK N   1      26.476  23.188  -8.098  0.00  0.00     0.121 C 
HETATM   12  C   UNK N   1      25.440  22.135  -8.522  0.00  0.00     0.097 C 
HETATM   13  C   UNK N   1      26.038  20.719  -8.438  0.00  0.00     0.026 C 
HETATM   14  C   UNK N   1      27.567  20.668  -8.575  0.00  0.00     0.002 C 
HETATM   15  C   UNK N   1      28.099  21.750  -9.508  0.00  0.00     0.002 C 
HETATM   16  C   UNK N   1      27.628  23.159  -9.119  0.00  0.00     0.028 C 
BRANCH  12  17
HETATM   17  N   UNK N   1      24.261  22.194  -7.675  0.00  0.00    -0.424 N 
HETATM   18  H   UNK N   1      23.557  21.484  -7.474  0.00  0.00     0.150 HD
HETATM   19  H   UNK N   1      24.114  23.088  -7.206  0.00  0.00     0.150 HD
ENDBRANCH  12  17
ENDBRANCH   9  11
BRANCH   6  20
HETATM   20  N   UNK N   1      27.533  25.267  -3.571  0.00  0.00    -0.341 N 
HETATM   21  H   UNK N   1      27.175  25.375  -2.660  0.00  0.00     0.167 HD
BRANCH  20  22
HETATM   22  C   UNK N   1      28.847  24.724  -3.687  0.00  0.00     0.034 A 
HETATM   23  C   UNK N   1      29.973  25.534  -3.899  0.00  0.00     0.029 A 
HETATM   24  C   UNK N   1      31.247  24.972  -4.000  0.00  0.00     0.003 A 
HETATM   25  C   UNK N   1      31.408  23.590  -3.891  0.00  0.00     0.007 A 
HETATM   26  C   UNK N   1      30.295  22.773  -3.682  0.00  0.00    -0.060 A 
HETATM   27  C   UNK N   1      29.019  23.339  -3.582  0.00  0.00     0.036 A 
HETATM   28  C   UNK N   1      30.467  21.302  -3.567  0.00  0.00     0.048 C 
ENDBRANCH  20  22
ENDBRANCH   6  20
BRANCH   5  29
HETATM   29  C   UNK N   1      25.891  27.728  -3.358  0.00  0.00     0.254 C 
HETATM   30  O   UNK N   1      25.876  27.233  -2.242  0.00  0.00    -0.268 OA
HETATM   31  N   UNK N   1      25.887  29.071  -3.477  0.00  0.00    -0.366 N 
HETATM   32  H   UNK N   1      25.895  29.637  -2.671  0.00  0.00     0.159 HD
HETATM   33  H   UNK N   1      25.877  29.487  -4.369  0.00  0.00     0.159 HD
ENDBRANCH   5  29
TORSDOF 5
ENDMDL
MODEL 3
REMARK VINA RESULT:      -6.8      3.029      4.802
REMARK  5 active torsions:
REMARK  status: ('A' for Active; 'I' for Inactive)
REMARK       I    between atoms: C_1  and  N_20 
REMARK    1  A    between atoms: C_5  and  C_7 
REMARK    2  A    between atoms: C_6  and  N_17 
REMARK       I    between atoms: C_7  and  N_16 
REMARK    3  A    between atoms: C_8  and  N_17 
REMARK    4  A    between atoms: C_21  and  N_20 
REMARK    5  A    between atoms: C_22  and  N_23 
ROOT
HETATM    1  C   UNK N   1      34.218  16.516   9.590  0.00  0.00     0.679 A 
HETATM    2  C   UNK N   1      35.819  16.139  11.282  0.00  0.00     0.127 A 
HETATM    3  N   UNK N   1      34.318  15.218   9.204  0.00  0.00    -0.176 N 
ATOM      4  HN  UNK N   1      33.742  14.888   8.430  1.00  0.00     0.186 HD
HETATM    5  C   UNK N   1      35.947  14.796  10.900  0.00  0.00     0.092 A 
HETATM    6  C   UNK N   1      35.160  14.345   9.815  0.00  0.00     0.138 A 
HETATM    7  N   UNK N   1      34.972  16.970  10.622  0.00  0.00    -0.201 N 
ATOM      8  HN  UNK N   1      34.901  17.948  10.907  1.00  0.00     0.183 HD
HETATM    9  N   UNK N   1      33.348  17.404   8.900  0.00  0.00    -0.219 N 
HETATM   10  H   UNK N   1      33.418  18.369   9.081  0.00  0.00     0.178 HD
ENDROOT
BRANCH   9  11
HETATM   11  C   UNK N   1      32.361  16.943   7.941  0.00  0.00     0.121 C 
HETATM   12  C   UNK N   1      30.992  17.592   8.200  0.00  0.00     0.097 C 
HETATM   13  C   UNK N   1      29.921  16.986   7.276  0.00  0.00     0.026 C 
HETATM   14  C   UNK N   1      30.469  16.400   5.967  0.00  0.00     0.002 C 
HETATM   15  C   UNK N   1      31.682  17.169   5.455  0.00  0.00     0.002 C 
HETATM   16  C   UNK N   1      32.793  17.303   6.507  0.00  0.00     0.028 C 
BRANCH  12  17
HETATM   17  N   UNK N   1      30.580  17.401   9.580  0.00  0.00    -0.424 N 
HETATM   18  H   UNK N   1      30.027  18.002  10.192  0.00  0.00     0.150 HD
HETATM   19  H   UNK N   1      30.893  16.529  10.005  0.00  0.00     0.150 HD
ENDBRANCH  12  17
ENDBRANCH   9  11
BRANCH   6  20
HETATM   20  N   UNK N   1      35.260  13.000   9.349  0.00  0.00    -0.341 N 
HETATM   21  H   UNK N   1      35.931  12.820   8.652  0.00  0.00     0.167 HD
BRANCH  20  22
HETATM   22  C   UNK N   1      34.481  11.893   9.795  0.00  0.00     0.034 A 
HETATM   23  C   UNK N   1      33.335  11.462   9.109  0.00  0.00     0.029 A 
HETATM   24  C   UNK N   1      32.597  10.369   9.568  0.00  0.00     0.003 A 
HETATM   25  C   UNK N   1      32.999   9.694  10.721  0.00  0.00     0.007 A 
HETATM   26  C   UNK N   1      34.136  10.114  11.414  0.00  0.00    -0.060 A 
HETATM   27  C   UNK N   1      34.873  11.211  10.953  0.00  0.00     0.036 A 
HETATM   28  C   UNK N   1      34.562   9.396  12.643  0.00  0.00     0.048 C 
ENDBRANCH  20  22
ENDBRANCH   6  20
BRANCH   5  29
HETATM   29  C   UNK N   1      36.902  13.924  11.641  0.00  0.00     0.254 C 
HETATM   30  O   UNK N   1      37.740  13.283  11.025  0.00  0.00    -0.268 OA
HETATM   31  N   UNK N   1      36.860  13.824  12.984  0.00  0.00    -0.366 N 
HETATM   32  H   UNK N   1      37.513  13.259  13.458  0.00  0.00     0.159 HD
HETATM   33  H   UNK N   1      36.176  14.316  13.494  0.00  0.00     0.159 HD
ENDBRANCH   5  29
TORSDOF 5
ENDMDL
MODEL 4
REMARK VINA RESULT:      -6.7      5.905      9.574
REMARK  5 active torsions:
REMARK  status: ('A' for Active; 'I' for Inactive)
REMARK       I    between atoms: C_1  and  N_20 
REMARK    1  A    between atoms: C_5  and  C_7 
REMARK    2  A    between atoms: C_6  and  N_17 
REMARK       I    between atoms: C_7  and  N_16 
REMARK    3  A    between atoms: C_8  and  N_17 
REMARK    4  A    between atoms: C_21  and  N_20 
REMARK    5  A    between atoms: C_22  and  N_23 
ROOT
HETATM    1  C   UNK N   1      30.865  16.606   9.018  0.00  0.00     0.679 A 
HETATM    2  C   UNK N   1      28.932  17.951   9.166  0.00  0.00     0.127 A 
HETATM    3  N   UNK N   1      30.843  16.721   7.665  0.00  0.00    -0.176 N 
ATOM      4  HN  UNK N   1      31.572  16.261   7.119  1.00  0.00     0.186 HD
HETATM    5  C   UNK N   1      28.881  18.079   7.771  0.00  0.00     0.092 A 
HETATM    6  C   UNK N   1      29.882  17.427   7.015  0.00  0.00     0.138 A 
HETATM    7  N   UNK N   1      29.908  17.216   9.760  0.00  0.00    -0.201 N 
ATOM      8  HN  UNK N   1      29.922  17.124  10.776  1.00  0.00     0.183 HD
HETATM    9  N   UNK N   1      31.871  15.829   9.655  0.00  0.00    -0.219 N 
HETATM   10  H   UNK N   1      31.770  15.619  10.612  0.00  0.00     0.178 HD
ENDROOT
BRANCH   9  11
HETATM   11  C   UNK N   1      33.040  15.335   8.952  0.00  0.00     0.121 C 
HETATM   12  C   UNK N   1      34.316  15.543   9.783  0.00  0.00     0.097 C 
HETATM   13  C   UNK N   1      35.564  15.155   8.970  0.00  0.00     0.026 C 
HETATM   14  C   UNK N   1      35.302  14.128   7.859  0.00  0.00     0.002 C 
HETATM   15  C   UNK N   1      34.204  13.139   8.234  0.00  0.00     0.002 C 
HETATM   16  C   UNK N   1      32.901  13.829   8.664  0.00  0.00     0.028 C 
BRANCH  12  17
HETATM   17  N   UNK N   1      34.444  16.929  10.201  0.00  0.00    -0.424 N 
HETATM   18  H   UNK N   1      34.712  17.323  11.103  0.00  0.00     0.150 HD
HETATM   19  H   UNK N   1      34.232  17.617   9.478  0.00  0.00     0.150 HD
ENDBRANCH  12  17
ENDBRANCH   9  11
BRANCH   6  20
HETATM   20  N   UNK N   1      29.877  17.485   5.589  0.00  0.00    -0.341 N 
HETATM   21  H   UNK N   1      29.120  17.951   5.165  0.00  0.00     0.167 HD
BRANCH  20  22
HETATM   22  C   UNK N   1      30.863  16.933   4.719  0.00  0.00     0.034 A 
HETATM   23  C   UNK N   1      31.987  17.664   4.307  0.00  0.00     0.029 A 
HETATM   24  C   UNK N   1      32.939  17.091   3.460  0.00  0.00     0.003 A 
HETATM   25  C   UNK N   1      32.774  15.779   3.016  0.00  0.00     0.007 A 
HETATM   26  C   UNK N   1      31.658  15.041   3.418  0.00  0.00    -0.060 A 
HETATM   27  C   UNK N   1      30.706  15.618   4.266  0.00  0.00     0.036 A 
HETATM   28  C   UNK N   1      31.484  13.644   2.945  0.00  0.00     0.048 C 
ENDBRANCH  20  22
ENDBRANCH   6  20
BRANCH   5  29
HETATM   29  C   UNK N   1      27.781  18.879   7.160  0.00  0.00     0.254 C 
HETATM   30  O   UNK N   1      27.360  18.584   6.052  0.00  0.00    -0.268 OA
HETATM   31  N   UNK N   1      27.238  19.930   7.807  0.00  0.00    -0.366 N 
HETATM   32  H   UNK N   1      26.498  20.433   7.396  0.00  0.00     0.159 HD
HETATM   33  H   UNK N   1      27.581  20.195   8.691  0.00  0.00     0.159 HD
ENDBRANCH   5  29
TORSDOF 5
ENDMDL
MODEL 5
REMARK VINA RESULT:      -6.7      3.198      4.882
REMARK  5 active torsions:
REMARK  status: ('A' for Active; 'I' for Inactive)
REMARK       I    between atoms: C_1  and  N_20 
REMARK    1  A    between atoms: C_5  and  C_7 
REMARK    2  A    between atoms: C_6  and  N_17 
REMARK       I    between atoms: C_7  and  N_16 
REMARK    3  A    between atoms: C_8  and  N_17 
REMARK    4  A    between atoms: C_21  and  N_20 
REMARK    5  A    between atoms: C_22  and  N_23 
ROOT
HETATM    1  C   UNK N   1      34.385  16.547   9.588  0.00  0.00     0.679 A 
HETATM    2  C   UNK N   1      35.484  16.221  11.651  0.00  0.00     0.127 A 
HETATM    3  N   UNK N   1      34.059  15.229   9.553  0.00  0.00    -0.176 N 
ATOM      4  HN  UNK N   1      33.517  14.877   8.764  1.00  0.00     0.186 HD
HETATM    5  C   UNK N   1      35.167  14.856  11.635  0.00  0.00     0.092 A 
HETATM    6  C   UNK N   1      34.430  14.365  10.533  0.00  0.00     0.138 A 
HETATM    7  N   UNK N   1      35.099  17.034  10.633  0.00  0.00    -0.201 N 
ATOM      8  HN  UNK N   1      35.350  18.023  10.655  1.00  0.00     0.183 HD
HETATM    9  N   UNK N   1      34.004  17.409   8.524  0.00  0.00    -0.219 N 
HETATM   10  H   UNK N   1      34.394  18.312   8.485  0.00  0.00     0.178 HD
ENDROOT
BRANCH   9  11
HETATM   11  C   UNK N   1      33.062  17.010   7.495  0.00  0.00     0.121 C 
HETATM   12  C   UNK N   1      31.685  17.652   7.725  0.00  0.00     0.097 C 
HETATM   13  C   UNK N   1      30.656  17.107   6.719  0.00  0.00     0.026 C 
HETATM   14  C   UNK N   1      31.264  16.594   5.406  0.00  0.00     0.002 C 
HETATM   15  C   UNK N   1      32.503  17.383   4.996  0.00  0.00     0.002 C 
HETATM   16  C   UNK N   1      33.563  17.449   6.105  0.00  0.00     0.028 C 
BRANCH  12  17
HETATM   17  N   UNK N   1      31.206  17.386   9.071  0.00  0.00    -0.424 N 
HETATM   18  H   UNK N   1      31.116  16.504   9.576  0.00  0.00     0.150 HD
HETATM   19  H   UNK N   1      30.915  18.212   9.595  0.00  0.00     0.150 HD
ENDBRANCH  12  17
ENDBRANCH   9  11
BRANCH   6  20
HETATM   20  N   UNK N   1      34.098  12.982  10.432  0.00  0.00    -0.341 N 
HETATM   21  H   UNK N   1      33.623  12.581  11.195  0.00  0.00     0.167 HD
BRANCH  20  22
HETATM   22  C   UNK N   1      34.390  12.123   9.331  0.00  0.00     0.034 A 
HETATM   23  C   UNK N   1      33.386  11.415   8.651  0.00  0.00     0.029 A 
HETATM   24  C   UNK N   1      33.703  10.588   7.572  0.00  0.00     0.003 A 
HETATM   25  C   UNK N   1      35.031  10.460   7.160  0.00  0.00     0.007 A 
HETATM   26  C   UNK N   1      36.038  11.159   7.829  0.00  0.00    -0.060 A 
HETATM   27  C   UNK N   1      35.718  11.986   8.911  0.00  0.00     0.036 A 
HETATM   28  C   UNK N   1      37.451  11.022   7.391  0.00  0.00     0.048 C 
ENDBRANCH  20  22
ENDBRANCH   6  20
BRANCH   5  29
HETATM   29  C   UNK N   1      35.625  13.996  12.764  0.00  0.00     0.254 C 
HETATM   30  O   UNK N   1      34.802  13.438  13.473  0.00  0.00    -0.268 OA
HETATM   31  N   UNK N   1      36.937  13.822  13.023  0.00  0.00    -0.366 N 
HETATM   32  H   UNK N   1      37.220  13.234  13.760  0.00  0.00     0.159 HD
HETATM   33  H   UNK N   1      37.612  14.282  12.475  0.00  0.00     0.159 HD
ENDBRANCH   5  29
TORSDOF 5
ENDMDL
MODEL 6
REMARK VINA RESULT:      -6.7      8.325     10.780
REMARK  5 active torsions:
REMARK  status: ('A' for Active; 'I' for Inactive)
REMARK       I    between atoms: C_1  and  N_20 
REMARK    1  A    between atoms: C_5  and  C_7 
REMARK    2  A    between atoms: C_6  and  N_17 
REMARK       I    between atoms: C_7  and  N_16 
REMARK    3  A    between atoms: C_8  and  N_17 
REMARK    4  A    between atoms: C_21  and  N_20 
REMARK    5  A    between atoms: C_22  and  N_23 
ROOT
HETATM    1  C   UNK N   1      31.980  17.251   7.331  0.00  0.00     0.679 A 
HETATM    2  C   UNK N   1      30.604  18.048   9.075  0.00  0.00     0.127 A 
HETATM    3  N   UNK N   1      30.877  16.950   6.597  0.00  0.00    -0.176 N 
ATOM      4  HN  UNK N   1      30.998  16.549   5.668  1.00  0.00     0.186 HD
HETATM    5  C   UNK N   1      29.449  17.740   8.342  0.00  0.00     0.092 A 
HETATM    6  C   UNK N   1      29.618  17.167   7.061  0.00  0.00     0.138 A 
HETATM    7  N   UNK N   1      31.837  17.793   8.566  0.00  0.00    -0.201 N 
ATOM      8  HN  UNK N   1      32.666  18.012   9.120  1.00  0.00     0.183 HD
HETATM    9  N   UNK N   1      33.277  16.977   6.820  0.00  0.00    -0.219 N 
HETATM   10  H   UNK N   1      34.048  17.040   7.429  0.00  0.00     0.178 HD
ENDROOT
BRANCH   9  11
HETATM   11  C   UNK N   1      33.510  16.607   5.436  0.00  0.00     0.121 C 
HETATM   12  C   UNK N   1      33.090  15.152   5.173  0.00  0.00     0.097 C 
HETATM   13  C   UNK N   1      33.478  14.724   3.747  0.00  0.00     0.026 C 
HETATM   14  C   UNK N   1      33.594  15.882   2.746  0.00  0.00     0.002 C 
HETATM   15  C   UNK N   1      32.605  17.004   3.046  0.00  0.00     0.002 C 
HETATM   16  C   UNK N   1      32.700  17.514   4.491  0.00  0.00     0.028 C 
BRANCH  12  17
HETATM   17  N   UNK N   1      33.721  14.249   6.121  0.00  0.00    -0.424 N 
HETATM   18  H   UNK N   1      34.685  14.213   6.454  0.00  0.00     0.150 HD
HETATM   19  H   UNK N   1      33.104  13.540   6.514  0.00  0.00     0.150 HD
ENDBRANCH  12  17
ENDBRANCH   9  11
BRANCH   6  20
HETATM   20  N   UNK N   1      28.490  16.798   6.270  0.00  0.00    -0.341 N 
HETATM   21  H   UNK N   1      28.209  15.855   6.307  0.00  0.00     0.167 HD
BRANCH  20  22
HETATM   22  C   UNK N   1      27.730  17.664   5.429  0.00  0.00     0.034 A 
HETATM   23  C   UNK N   1      28.269  18.842   4.890  0.00  0.00     0.029 A 
HETATM   24  C   UNK N   1      27.501  19.665   4.064  0.00  0.00     0.003 A 
HETATM   25  C   UNK N   1      26.182  19.317   3.768  0.00  0.00     0.007 A 
HETATM   26  C   UNK N   1      25.634  18.148   4.300  0.00  0.00    -0.060 A 
HETATM   27  C   UNK N   1      26.406  17.325   5.128  0.00  0.00     0.036 A 
HETATM   28  C   UNK N   1      24.230  17.778   3.985  0.00  0.00     0.048 C 
ENDBRANCH  20  22
ENDBRANCH   6  20
BRANCH   5  29
HETATM   29  C   UNK N   1      28.116  18.020   8.946  0.00  0.00     0.254 C 
HETATM   30  O   UNK N   1      27.608  17.204   9.700  0.00  0.00    -0.268 OA
HETATM   31  N   UNK N   1      27.451  19.162   8.676  0.00  0.00    -0.366 N 
HETATM   32  H   UNK N   1      26.581  19.339   9.102  0.00  0.00     0.159 HD
HETATM   33  H   UNK N   1      27.836  19.820   8.054  0.00  0.00     0.159 HD
ENDBRANCH   5  29
TORSDOF 5
ENDMDL
MODEL 7
REMARK VINA RESULT:      -6.7     12.990     14.727
REMARK  5 active torsions:
REMARK  status: ('A' for Active; 'I' for Inactive)
REMARK       I    between atoms: C_1  and  N_20 
REMARK    1  A    between atoms: C_5  and  C_7 
REMARK    2  A    between atoms: C_6  and  N_17 
REMARK       I    between atoms: C_7  and  N_16 
REMARK    3  A    between atoms: C_8  and  N_17 
REMARK    4  A    between atoms: C_21  and  N_20 
REMARK    5  A    between atoms: C_22  and  N_23 
ROOT
HETATM    1  C   UNK N   1      22.159  16.580   6.622  0.00  0.00     0.679 A 
HETATM    2  C   UNK N   1      20.324  17.847   7.395  0.00  0.00     0.127 A 
HETATM    3  N   UNK N   1      21.736  15.518   7.356  0.00  0.00    -0.176 N 
ATOM      4  HN  UNK N   1      22.272  14.651   7.322  1.00  0.00     0.186 HD
HETATM    5  C   UNK N   1      19.870  16.769   8.168  0.00  0.00     0.092 A 
HETATM    6  C   UNK N   1      20.623  15.573   8.133  0.00  0.00     0.138 A 
HETATM    7  N   UNK N   1      21.454  17.739   6.650  0.00  0.00    -0.201 N 
ATOM      8  HN  UNK N   1      21.776  18.538   6.104  1.00  0.00     0.183 HD
HETATM    9  N   UNK N   1      23.348  16.489   5.849  0.00  0.00    -0.219 N 
HETATM   10  H   UNK N   1      23.727  17.314   5.466  0.00  0.00     0.178 HD
ENDROOT
BRANCH   9  11
HETATM   11  C   UNK N   1      24.024  15.230   5.600  0.00  0.00     0.121 C 
HETATM   12  C   UNK N   1      24.557  15.162   4.160  0.00  0.00     0.097 C 
HETATM   13  C   UNK N   1      25.138  13.768   3.861  0.00  0.00     0.026 C 
HETATM   14  C   UNK N   1      25.631  13.008   5.100  0.00  0.00     0.002 C 
HETATM   15  C   UNK N   1      26.196  13.942   6.164  0.00  0.00     0.002 C 
HETATM   16  C   UNK N   1      25.219  15.061   6.557  0.00  0.00     0.028 C 
BRANCH  12  17
HETATM   17  N   UNK N   1      23.501  15.442   3.202  0.00  0.00    -0.424 N 
HETATM   18  H   UNK N   1      23.361  16.249   2.593  0.00  0.00     0.150 HD
HETATM   19  H   UNK N   1      22.786  14.719   3.126  0.00  0.00     0.150 HD
ENDBRANCH  12  17
ENDBRANCH   9  11
BRANCH   6  20
HETATM   20  N   UNK N   1      20.241  14.444   8.917  0.00  0.00    -0.341 N 
HETATM   21  H   UNK N   1      19.287  14.202   8.913  0.00  0.00     0.167 HD
BRANCH  20  22
HETATM   22  C   UNK N   1      21.109  13.634   9.707  0.00  0.00     0.034 A 
HETATM   23  C   UNK N   1      20.630  12.824  10.749  0.00  0.00     0.029 A 
HETATM   24  C   UNK N   1      21.505  12.036  11.499  0.00  0.00     0.003 A 
HETATM   25  C   UNK N   1      22.871  12.050  11.215  0.00  0.00     0.007 A 
HETATM   26  C   UNK N   1      23.360  12.853  10.182  0.00  0.00    -0.060 A 
HETATM   27  C   UNK N   1      22.481  13.643   9.432  0.00  0.00     0.036 A 
HETATM   28  C   UNK N   1      24.814  12.869   9.881  0.00  0.00     0.048 C 
ENDBRANCH  20  22
ENDBRANCH   6  20
BRANCH   5  29
HETATM   29  C   UNK N   1      18.634  16.937   8.985  0.00  0.00     0.254 C 
HETATM   30  O   UNK N   1      17.908  15.977   9.192  0.00  0.00    -0.268 OA
HETATM   31  N   UNK N   1      18.297  18.135   9.503  0.00  0.00    -0.366 N 
HETATM   32  H   UNK N   1      17.488  18.222  10.058  0.00  0.00     0.159 HD
HETATM   33  H   UNK N   1      18.859  18.924   9.328  0.00  0.00     0.159 HD
ENDBRANCH   5  29
TORSDOF 5
ENDMDL
MODEL 8
REMARK VINA RESULT:      -6.6     12.101     14.936
REMARK  5 active torsions:
REMARK  status: ('A' for Active; 'I' for Inactive)
REMARK       I    between atoms: C_1  and  N_20 
REMARK    1  A    between atoms: C_5  and  C_7 
REMARK    2  A    between atoms: C_6  and  N_17 
REMARK       I    between atoms: C_7  and  N_16 
REMARK    3  A    between atoms: C_8  and  N_17 
REMARK    4  A    between atoms: C_21  and  N_20 
REMARK    5  A    between atoms: C_22  and  N_23 
ROOT
HETATM    1  C   UNK N   1      25.582  19.487   4.407  0.00  0.00     0.679 A 
HETATM    2  C   UNK N   1      23.742  20.131   3.078  0.00  0.00     0.127 A 
HETATM    3  N   UNK N   1      24.756  18.746   5.192  0.00  0.00    -0.176 N 
ATOM      4  HN  UNK N   1      25.155  18.227   5.974  1.00  0.00     0.186 HD
HETATM    5  C   UNK N   1      22.867  19.381   3.876  0.00  0.00     0.092 A 
HETATM    6  C   UNK N   1      23.418  18.675   4.970  0.00  0.00     0.138 A 
HETATM    7  N   UNK N   1      25.070  20.178   3.360  0.00  0.00    -0.201 N 
ATOM      8  HN  UNK N   1      25.689  20.740   2.775  1.00  0.00     0.183 HD
HETATM    9  N   UNK N   1      26.971  19.560   4.697  0.00  0.00    -0.219 N 
HETATM   10  H   UNK N   1      27.517  20.231   4.227  0.00  0.00     0.178 HD
ENDROOT
BRANCH   9  11
HETATM   11  C   UNK N   1      27.617  18.683   5.657  0.00  0.00     0.121 C 
HETATM   12  C   UNK N   1      28.985  18.209   5.141  0.00  0.00     0.097 C 
HETATM   13  C   UNK N   1      29.593  17.165   6.095  0.00  0.00     0.026 C 
HETATM   14  C   UNK N   1      29.101  17.269   7.546  0.00  0.00     0.002 C 
HETATM   15  C   UNK N   1      28.808  18.709   7.953  0.00  0.00     0.002 C 
HETATM   16  C   UNK N   1      27.842  19.417   6.992  0.00  0.00     0.028 C 
BRANCH  12  17
HETATM   17  N   UNK N   1      28.865  17.619   3.819  0.00  0.00    -0.424 N 
HETATM   18  H   UNK N   1      29.232  17.934   2.921  0.00  0.00     0.150 HD
HETATM   19  H   UNK N   1      28.330  16.751   3.782  0.00  0.00     0.150 HD
ENDBRANCH  12  17
ENDBRANCH   9  11
BRANCH   6  20
HETATM   20  N   UNK N   1      22.586  17.916   5.845  0.00  0.00    -0.341 N 
HETATM   21  H   UNK N   1      22.105  18.414   6.545  0.00  0.00     0.167 HD
BRANCH  20  22
HETATM   22  C   UNK N   1      22.385  16.505   5.804  0.00  0.00     0.034 A 
HETATM   23  C   UNK N   1      22.699  15.739   4.670  0.00  0.00     0.029 A 
HETATM   24  C   UNK N   1      22.497  14.358   4.664  0.00  0.00     0.003 A 
HETATM   25  C   UNK N   1      21.977  13.726   5.795  0.00  0.00     0.007 A 
HETATM   26  C   UNK N   1      21.658  14.477   6.928  0.00  0.00    -0.060 A 
HETATM   27  C   UNK N   1      21.860  15.862   6.931  0.00  0.00     0.036 A 
HETATM   28  C   UNK N   1      21.103  13.804   8.130  0.00  0.00     0.048 C 
ENDBRANCH  20  22
ENDBRANCH   6  20
BRANCH   5  29
HETATM   29  C   UNK N   1      21.414  19.372   3.541  0.00  0.00     0.254 C 
HETATM   30  O   UNK N   1      20.646  20.096   4.155  0.00  0.00    -0.268 OA
HETATM   31  N   UNK N   1      20.925  18.575   2.570  0.00  0.00    -0.366 N 
HETATM   32  H   UNK N   1      19.966  18.599   2.349  0.00  0.00     0.159 HD
HETATM   33  H   UNK N   1      21.527  17.969   2.081  0.00  0.00     0.159 HD
ENDBRANCH   5  29
TORSDOF 5
ENDMDL
MODEL 9
REMARK VINA RESULT:      -6.5     14.536     17.393
REMARK  5 active torsions:
REMARK  status: ('A' for Active; 'I' for Inactive)
REMARK       I    between atoms: C_1  and  N_20 
REMARK    1  A    between atoms: C_5  and  C_7 
REMARK    2  A    between atoms: C_6  and  N_17 
REMARK       I    between atoms: C_7  and  N_16 
REMARK    3  A    between atoms: C_8  and  N_17 
REMARK    4  A    between atoms: C_21  and  N_20 
REMARK    5  A    between atoms: C_22  and  N_23 
ROOT
HETATM    1  C   UNK N   1      20.191  16.730   4.570  0.00  0.00     0.679 A 
HETATM    2  C   UNK N   1      19.618  18.278   2.883  0.00  0.00     0.127 A 
HETATM    3  N   UNK N   1      21.358  17.392   4.782  0.00  0.00    -0.176 N 
ATOM      4  HN  UNK N   1      21.993  17.052   5.503  1.00  0.00     0.186 HD
HETATM    5  C   UNK N   1      20.819  18.976   3.077  0.00  0.00     0.092 A 
HETATM    6  C   UNK N   1      21.706  18.492   4.066  0.00  0.00     0.138 A 
HETATM    7  N   UNK N   1      19.331  17.173   3.619  0.00  0.00    -0.201 N 
ATOM      8  HN  UNK N   1      18.458  16.671   3.455  1.00  0.00     0.183 HD
HETATM    9  N   UNK N   1      19.882  15.563   5.320  0.00  0.00    -0.219 N 
HETATM   10  H   UNK N   1      19.123  15.005   5.035  0.00  0.00     0.178 HD
ENDROOT
BRANCH   9  11
HETATM   11  C   UNK N   1      20.642  15.162   6.490  0.00  0.00     0.121 C 
HETATM   12  C   UNK N   1      19.894  15.516   7.784  0.00  0.00     0.097 C 
HETATM   13  C   UNK N   1      20.770  15.225   9.016  0.00  0.00     0.026 C 
HETATM   14  C   UNK N   1      21.838  14.144   8.793  0.00  0.00     0.002 C 
HETATM   15  C   UNK N   1      21.373  13.067   7.819  0.00  0.00     0.002 C 
HETATM   16  C   UNK N   1      20.883  13.641   6.481  0.00  0.00     0.028 C 
BRANCH  12  17
HETATM   17  N   UNK N   1      19.518  16.919   7.800  0.00  0.00    -0.424 N 
HETATM   18  H   UNK N   1      18.717  17.392   7.381  0.00  0.00     0.150 HD
HETATM   19  H   UNK N   1      20.156  17.529   8.313  0.00  0.00     0.150 HD
ENDBRANCH  12  17
ENDBRANCH   9  11
BRANCH   6  20
HETATM   20  N   UNK N   1      22.961  19.131   4.297  0.00  0.00    -0.341 N 
HETATM   21  H   UNK N   1      22.934  20.063   4.615  0.00  0.00     0.167 HD
BRANCH  20  22
HETATM   22  C   UNK N   1      24.250  18.549   4.113  0.00  0.00     0.034 A 
HETATM   23  C   UNK N   1      24.415  17.217   3.702  0.00  0.00     0.029 A 
HETATM   24  C   UNK N   1      25.691  16.679   3.523  0.00  0.00     0.003 A 
HETATM   25  C   UNK N   1      26.817  17.470   3.754  0.00  0.00     0.007 A 
HETATM   26  C   UNK N   1      26.666  18.796   4.165  0.00  0.00    -0.060 A 
HETATM   27  C   UNK N   1      25.386  19.333   4.345  0.00  0.00     0.036 A 
HETATM   28  C   UNK N   1      27.866  19.636   4.412  0.00  0.00     0.048 C 
ENDBRANCH  20  22
ENDBRANCH   6  20
BRANCH   5  29
HETATM   29  C   UNK N   1      21.101  20.173   2.234  0.00  0.00     0.254 C 
HETATM   30  O   UNK N   1      21.739  21.104   2.699  0.00  0.00    -0.268 OA
HETATM   31  N   UNK N   1      20.662  20.251   0.962  0.00  0.00    -0.366 N 
HETATM   32  H   UNK N   1      20.877  21.041   0.414  0.00  0.00     0.159 HD
HETATM   33  H   UNK N   1      20.128  19.519   0.579  0.00  0.00     0.159 HD
ENDBRANCH   5  29
TORSDOF 5
ENDMDL
