MODEL 1
REMARK VINA RESULT:      -8.0      0.000      0.000
REMARK  3 active torsions:
REMARK  status: ('A' for Active; 'I' for Inactive)
REMARK       I    between atoms: C_9  and  N_20 
REMARK       I    between atoms: C_12  and  N_13 
REMARK    1  A    between atoms: N_13  and  C_14 
REMARK    2  A    between atoms: N_20  and  C_21 
REMARK    3  A    between atoms: C_23  and  N_29 
REMARK       I    between atoms: N_29  and  C_30 
ROOT
HETATM    1  N   UNK N   1      26.672  18.977   6.096  0.00  0.00    -0.288 N 
ATOM      2  HN  UNK N   1      26.994  19.002   7.064  1.00  0.00     0.187 HD
HETATM    3  C   UNK N   1      26.304  20.050   5.344  0.00  0.00     0.135 A 
HETATM    4  C   UNK N   1      25.928  19.586   4.087  0.00  0.00     0.107 A 
HETATM    5  C   UNK N   1      26.071  18.245   4.152  0.00  0.00     0.166 A 
HETATM    6  N   UNK N   1      26.540  17.896   5.346  0.00  0.00    -0.069 N 
HETATM    7  N   UNK N   1      25.706  17.322   3.248  0.00  0.00    -0.335 N 
ATOM      8  HN  UNK N   1      25.603  17.508   2.250  1.00  0.00     0.165 HD
HETATM    9  C   UNK N   1      25.492  16.122   3.817  0.00  0.00     0.303 C 
HETATM   10  N   UNK N   1      26.459  15.671   4.664  0.00  0.00    -0.186 N 
ATOM     11  HN  UNK N   1      26.860  14.735   4.603  1.00  0.00     0.181 HD
HETATM   12  C   UNK N   1      26.842  16.577   5.596  0.00  0.00     0.704 C 
HETATM   13  N   UNK N   1      27.400  16.138   6.833  0.00  0.00    -0.190 N 
HETATM   14  N   UNK N   1      24.207  16.142   4.450  0.00  0.00    -0.374 N 
HETATM   15  C   UNK N   1      25.415  20.310   2.965  0.00  0.00     0.105 C 
HETATM   16  N   UNK N   1      24.996  20.857   2.036  0.00  0.00    -0.191 NA
HETATM   17  H   UNK N   1      27.176  15.258   7.212  0.00  0.00     0.184 HD
HETATM   18  H   UNK N   1      23.523  16.749   4.083  0.00  0.00     0.158 HD
ENDROOT
BRANCH  14  19
HETATM   19  C   UNK N   1      23.858  15.349   5.564  0.00  0.00     0.128 C 
HETATM   20  C   UNK N   1      22.977  16.057   6.245  0.00  0.00     0.031 C 
HETATM   21  C   UNK N   1      21.707  15.638   6.355  0.00  0.00     0.033 C 
HETATM   22  C   UNK N   1      21.309  14.349   5.946  0.00  0.00     0.029 C 
HETATM   23  C   UNK N   1      22.301  13.462   5.543  0.00  0.00     0.001 C 
HETATM   24  C   UNK N   1      23.602  13.962   5.394  0.00  0.00     0.002 C 
BRANCH  21  25
HETATM   25  N   UNK N   1      20.896  16.560   6.977  0.00  0.00    -0.328 N 
HETATM   26  C   UNK N   1      20.612  16.468   8.269  0.00  0.00     0.218 C 
HETATM   27  O   UNK N   1      20.295  17.479   8.857  0.00  0.00    -0.274 OA
HETATM   28  C   UNK N   1      20.845  15.205   9.034  0.00  0.00     0.117 C 
HETATM   29  H   UNK N   1      20.520  17.304   6.453  0.00  0.00     0.169 HD
ENDBRANCH  21  25
ENDBRANCH  14  19
BRANCH  13  30
HETATM   30  C   UNK N   1      28.271  17.006   7.479  0.00  0.00     0.049 A 
HETATM   31  C   UNK N   1      29.568  17.241   7.016  0.00  0.00     0.030 A 
HETATM   32  C   UNK N   1      30.461  17.906   7.864  0.00  0.00     0.002 A 
HETATM   33  C   UNK N   1      30.061  18.277   9.159  0.00  0.00     0.000 A 
HETATM   34  C   UNK N   1      28.755  18.066   9.581  0.00  0.00     0.002 A 
HETATM   35  C   UNK N   1      27.870  17.460   8.732  0.00  0.00     0.030 A 
ENDBRANCH  13  30
TORSDOF 3
ENDMDL
MODEL 2
REMARK VINA RESULT:      -7.8      3.608      6.286
REMARK  3 active torsions:
REMARK  status: ('A' for Active; 'I' for Inactive)
REMARK       I    between atoms: C_9  and  N_20 
REMARK       I    between atoms: C_12  and  N_13 
REMARK    1  A    between atoms: N_13  and  C_14 
REMARK    2  A    between atoms: N_20  and  C_21 
REMARK    3  A    between atoms: C_23  and  N_29 
REMARK       I    between atoms: N_29  and  C_30 
ROOT
HETATM    1  N   UNK N   1      29.169  15.336   3.896  0.00  0.00    -0.288 N 
ATOM      2  HN  UNK N   1      29.978  15.581   3.327  1.00  0.00     0.187 HD
HETATM    3  C   UNK N   1      28.144  14.520   3.526  0.00  0.00     0.135 A 
HETATM    4  C   UNK N   1      27.244  14.453   4.586  0.00  0.00     0.107 A 
HETATM    5  C   UNK N   1      27.765  15.253   5.540  0.00  0.00     0.166 A 
HETATM    6  N   UNK N   1      28.926  15.753   5.128  0.00  0.00    -0.069 N 
HETATM    7  N   UNK N   1      27.212  15.637   6.701  0.00  0.00    -0.335 N 
ATOM      8  HN  UNK N   1      26.490  15.111   7.192  1.00  0.00     0.165 HD
HETATM    9  C   UNK N   1      27.725  16.802   7.137  0.00  0.00     0.303 C 
HETATM   10  N   UNK N   1      29.083  16.901   7.147  0.00  0.00    -0.186 N 
ATOM     11  HN  UNK N   1      29.611  17.226   7.957  1.00  0.00     0.181 HD
HETATM   12  C   UNK N   1      29.672  16.529   5.985  0.00  0.00     0.704 C 
HETATM   13  N   UNK N   1      30.949  17.054   5.631  0.00  0.00    -0.190 N 
HETATM   14  N   UNK N   1      27.125  17.869   6.393  0.00  0.00    -0.374 N 
HETATM   15  C   UNK N   1      25.987  13.773   4.672  0.00  0.00     0.105 C 
HETATM   16  N   UNK N   1      24.967  13.240   4.781  0.00  0.00    -0.191 NA
HETATM   17  H   UNK N   1      31.252  17.931   5.959  0.00  0.00     0.184 HD
HETATM   18  H   UNK N   1      26.222  17.725   6.028  0.00  0.00     0.158 HD
ENDROOT
BRANCH  14  19
HETATM   19  C   UNK N   1      27.746  19.114   6.148  0.00  0.00     0.128 C 
HETATM   20  C   UNK N   1      27.468  19.411   4.893  0.00  0.00     0.031 C 
HETATM   21  C   UNK N   1      26.689  20.464   4.601  0.00  0.00     0.033 C 
HETATM   22  C   UNK N   1      26.315  21.410   5.577  0.00  0.00     0.029 C 
HETATM   23  C   UNK N   1      26.888  21.298   6.839  0.00  0.00     0.001 C 
HETATM   24  C   UNK N   1      27.650  20.154   7.111  0.00  0.00     0.002 C 
BRANCH  21  25
HETATM   25  N   UNK N   1      26.391  20.546   3.259  0.00  0.00    -0.328 N 
HETATM   26  C   UNK N   1      25.175  20.272   2.805  0.00  0.00     0.218 C 
HETATM   27  O   UNK N   1      24.835  20.765   1.752  0.00  0.00    -0.274 OA
HETATM   28  C   UNK N   1      24.178  19.530   3.637  0.00  0.00     0.117 C 
HETATM   29  H   UNK N   1      27.093  20.815   2.624  0.00  0.00     0.169 HD
ENDBRANCH  21  25
ENDBRANCH  14  19
BRANCH  13  30
HETATM   30  C   UNK N   1      31.748  16.275   4.802  0.00  0.00     0.049 A 
HETATM   31  C   UNK N   1      32.307  15.068   5.229  0.00  0.00     0.030 A 
HETATM   32  C   UNK N   1      33.307  14.488   4.437  0.00  0.00     0.002 A 
HETATM   33  C   UNK N   1      33.756  15.142   3.278  0.00  0.00     0.000 A 
HETATM   34  C   UNK N   1      33.156  16.321   2.855  0.00  0.00     0.002 A 
HETATM   35  C   UNK N   1      32.145  16.859   3.604  0.00  0.00     0.030 A 
ENDBRANCH  13  30
TORSDOF 3
ENDMDL
MODEL 3
REMARK VINA RESULT:      -7.7     12.860     15.389
REMARK  3 active torsions:
REMARK  status: ('A' for Active; 'I' for Inactive)
REMARK       I    between atoms: C_9  and  N_20 
REMARK       I    between atoms: C_12  and  N_13 
REMARK    1  A    between atoms: N_13  and  C_14 
REMARK    2  A    between atoms: N_20  and  C_21 
REMARK    3  A    between atoms: C_23  and  N_29 
REMARK       I    between atoms: N_29  and  C_30 
ROOT
HETATM    1  N   UNK N   1      28.721  23.284  -6.255  0.00  0.00    -0.288 N 
ATOM      2  HN  UNK N   1      29.736  23.257  -6.164  1.00  0.00     0.187 HD
HETATM    3  C   UNK N   1      28.003  22.923  -7.353  0.00  0.00     0.135 A 
HETATM    4  C   UNK N   1      26.654  23.112  -7.066  0.00  0.00     0.107 A 
HETATM    5  C   UNK N   1      26.628  23.599  -5.808  0.00  0.00     0.166 A 
HETATM    6  N   UNK N   1      27.864  23.672  -5.324  0.00  0.00    -0.069 N 
HETATM    7  N   UNK N   1      25.579  24.075  -5.118  0.00  0.00    -0.335 N 
ATOM      8  HN  UNK N   1      24.610  23.814  -5.299  1.00  0.00     0.165 HD
HETATM    9  C   UNK N   1      25.962  24.941  -4.162  0.00  0.00     0.303 C 
HETATM   10  N   UNK N   1      26.980  24.539  -3.352  0.00  0.00    -0.186 N 
ATOM     11  HN  UNK N   1      26.936  24.593  -2.335  1.00  0.00     0.181 HD
HETATM   12  C   UNK N   1      28.059  24.062  -4.019  0.00  0.00     0.704 C 
HETATM   13  N   UNK N   1      29.351  24.111  -3.417  0.00  0.00    -0.190 N 
HETATM   14  N   UNK N   1      26.245  26.202  -4.779  0.00  0.00    -0.374 N 
HETATM   15  C   UNK N   1      25.510  22.931  -7.907  0.00  0.00     0.105 C 
HETATM   16  N   UNK N   1      24.561  22.798  -8.554  0.00  0.00    -0.191 NA
HETATM   17  H   UNK N   1      29.578  24.793  -2.745  0.00  0.00     0.184 HD
HETATM   18  H   UNK N   1      25.775  26.422  -5.616  0.00  0.00     0.158 HD
ENDROOT
BRANCH  14  19
HETATM   19  C   UNK N   1      27.156  27.151  -4.264  0.00  0.00     0.128 C 
HETATM   20  C   UNK N   1      27.757  27.676  -5.314  0.00  0.00     0.031 C 
HETATM   21  C   UNK N   1      27.574  28.968  -5.627  0.00  0.00     0.033 C 
HETATM   22  C   UNK N   1      26.924  29.863  -4.753  0.00  0.00     0.029 C 
HETATM   23  C   UNK N   1      26.588  29.400  -3.485  0.00  0.00     0.001 C 
HETATM   24  C   UNK N   1      26.750  28.032  -3.226  0.00  0.00     0.002 C 
BRANCH  21  25
HETATM   25  N   UNK N   1      28.161  29.313  -6.824  0.00  0.00    -0.328 N 
HETATM   26  C   UNK N   1      29.424  29.716  -6.882  0.00  0.00     0.218 C 
HETATM   27  O   UNK N   1      30.018  29.580  -7.929  0.00  0.00    -0.274 OA
HETATM   28  C   UNK N   1      30.161  30.157  -5.659  0.00  0.00     0.117 C 
HETATM   29  H   UNK N   1      27.634  29.258  -7.653  0.00  0.00     0.169 HD
ENDBRANCH  21  25
ENDBRANCH  14  19
BRANCH  13  30
HETATM   30  C   UNK N   1      30.275  23.156  -3.821  0.00  0.00     0.049 A 
HETATM   31  C   UNK N   1      30.128  21.801  -3.514  0.00  0.00     0.030 A 
HETATM   32  C   UNK N   1      31.226  20.956  -3.718  0.00  0.00     0.002 A 
HETATM   33  C   UNK N   1      32.446  21.482  -4.172  0.00  0.00     0.000 A 
HETATM   34  C   UNK N   1      32.555  22.825  -4.507  0.00  0.00     0.002 A 
HETATM   35  C   UNK N   1      31.466  23.640  -4.354  0.00  0.00     0.030 A 
ENDBRANCH  13  30
TORSDOF 3
ENDMDL
MODEL 4
REMARK VINA RESULT:      -7.5     12.720     15.790
REMARK  3 active torsions:
REMARK  status: ('A' for Active; 'I' for Inactive)
REMARK       I    between atoms: C_9  and  N_20 
REMARK       I    between atoms: C_12  and  N_13 
REMARK    1  A    between atoms: N_13  and  C_14 
REMARK    2  A    between atoms: N_20  and  C_21 
REMARK    3  A    between atoms: C_23  and  N_29 
REMARK       I    between atoms: N_29  and  C_30 
ROOT
HETATM    1  N   UNK N   1      29.546  26.036  -5.439  0.00  0.00    -0.288 N 
ATOM      2  HN  UNK N   1      29.787  26.670  -6.200  1.00  0.00     0.187 HD
HETATM    3  C   UNK N   1      30.418  25.452  -4.573  0.00  0.00     0.135 A 
HETATM    4  C   UNK N   1      29.686  24.658  -3.694  0.00  0.00     0.107 A 
HETATM    5  C   UNK N   1      28.403  24.789  -4.090  0.00  0.00     0.166 A 
HETATM    6  N   UNK N   1      28.328  25.633  -5.114  0.00  0.00    -0.069 N 
HETATM    7  N   UNK N   1      27.323  24.119  -3.657  0.00  0.00    -0.335 N 
ATOM      8  HN  UNK N   1      27.251  23.683  -2.738  1.00  0.00     0.165 HD
HETATM    9  C   UNK N   1      26.348  24.091  -4.584  0.00  0.00     0.303 C 
HETATM   10  N   UNK N   1      26.027  25.282  -5.163  0.00  0.00    -0.186 N 
ATOM     11  HN  UNK N   1      25.068  25.619  -5.246  1.00  0.00     0.181 HD
HETATM   12  C   UNK N   1      27.095  25.978  -5.619  0.00  0.00     0.704 C 
HETATM   13  N   UNK N   1      26.936  26.918  -6.679  0.00  0.00    -0.190 N 
HETATM   14  N   UNK N   1      26.681  23.102  -5.565  0.00  0.00    -0.374 N 
HETATM   15  C   UNK N   1      30.145  23.804  -2.641  0.00  0.00     0.105 C 
HETATM   16  N   UNK N   1      30.473  23.103  -1.783  0.00  0.00    -0.191 NA
HETATM   17  H   UNK N   1      26.218  26.822  -7.347  0.00  0.00     0.184 HD
HETATM   18  H   UNK N   1      27.245  22.346  -5.282  0.00  0.00     0.158 HD
ENDROOT
BRANCH  14  19
HETATM   19  C   UNK N   1      26.255  23.143  -6.910  0.00  0.00     0.128 C 
HETATM   20  C   UNK N   1      27.344  22.980  -7.636  0.00  0.00     0.031 C 
HETATM   21  C   UNK N   1      27.503  21.879  -8.387  0.00  0.00     0.033 C 
HETATM   22  C   UNK N   1      26.450  20.967  -8.605  0.00  0.00     0.029 C 
HETATM   23  C   UNK N   1      25.190  21.307  -8.126  0.00  0.00     0.001 C 
HETATM   24  C   UNK N   1      25.087  22.437  -7.304  0.00  0.00     0.002 C 
BRANCH  21  25
HETATM   25  N   UNK N   1      28.749  21.807  -8.966  0.00  0.00    -0.328 N 
HETATM   26  C   UNK N   1      29.675  20.973  -8.511  0.00  0.00     0.218 C 
HETATM   27  O   UNK N   1      30.547  20.618  -9.273  0.00  0.00    -0.274 OA
HETATM   28  C   UNK N   1      29.560  20.339  -7.162  0.00  0.00     0.117 C 
HETATM   29  H   UNK N   1      28.958  22.385  -9.735  0.00  0.00     0.169 HD
ENDBRANCH  21  25
ENDBRANCH  14  19
BRANCH  13  30
HETATM   30  C   UNK N   1      27.836  27.975  -6.732  0.00  0.00     0.049 A 
HETATM   31  C   UNK N   1      27.815  29.017  -5.802  0.00  0.00     0.030 A 
HETATM   32  C   UNK N   1      28.567  30.166  -6.081  0.00  0.00     0.002 A 
HETATM   33  C   UNK N   1      29.277  30.267  -7.289  0.00  0.00     0.000 A 
HETATM   34  C   UNK N   1      29.313  29.201  -8.178  0.00  0.00     0.002 A 
HETATM   35  C   UNK N   1      28.617  28.061  -7.880  0.00  0.00     0.030 A 
ENDBRANCH  13  30
TORSDOF 3
ENDMDL
MODEL 5
REMARK VINA RESULT:      -7.3      8.877     12.423
REMARK  3 active torsions:
REMARK  status: ('A' for Active; 'I' for Inactive)
REMARK       I    between atoms: C_9  and  N_20 
REMARK       I    between atoms: C_12  and  N_13 
REMARK    1  A    between atoms: N_13  and  C_14 
REMARK    2  A    between atoms: N_20  and  C_21 
REMARK    3  A    between atoms: C_23  and  N_29 
REMARK       I    between atoms: N_29  and  C_30 
ROOT
HETATM    1  N   UNK N   1      37.727  13.484  10.834  0.00  0.00    -0.288 N 
ATOM      2  HN  UNK N   1      37.596  14.015  11.695  1.00  0.00     0.187 HD
HETATM    3  C   UNK N   1      38.868  13.421  10.094  0.00  0.00     0.135 A 
HETATM    4  C   UNK N   1      38.627  12.596   9.000  0.00  0.00     0.107 A 
HETATM    5  C   UNK N   1      37.338  12.216   9.125  0.00  0.00     0.166 A 
HETATM    6  N   UNK N   1      36.819  12.729  10.236  0.00  0.00    -0.069 N 
HETATM    7  N   UNK N   1      36.581  11.530   8.254  0.00  0.00    -0.335 N 
ATOM      8  HN  UNK N   1      36.954  10.896   7.547  1.00  0.00     0.165 HD
HETATM    9  C   UNK N   1      35.270  11.781   8.425  0.00  0.00     0.303 C 
HETATM   10  N   UNK N   1      34.799  11.704   9.701  0.00  0.00    -0.186 N 
ATOM     11  HN  UNK N   1      33.965  11.174   9.954  1.00  0.00     0.181 HD
HETATM   12  C   UNK N   1      35.536  12.395  10.603  0.00  0.00     0.704 C 
HETATM   13  N   UNK N   1      34.935  12.864  11.808  0.00  0.00    -0.190 N 
HETATM   14  N   UNK N   1      34.970  13.048   7.829  0.00  0.00    -0.374 N 
HETATM   15  C   UNK N   1      39.486  12.258   7.907  0.00  0.00     0.105 C 
HETATM   16  N   UNK N   1      40.149  11.962   7.007  0.00  0.00    -0.191 NA
HETATM   17  H   UNK N   1      33.972  13.061  11.858  0.00  0.00     0.184 HD
HETATM   18  H   UNK N   1      35.532  13.350   7.079  0.00  0.00     0.158 HD
ENDROOT
BRANCH  14  19
HETATM   19  C   UNK N   1      33.918  13.893   8.247  0.00  0.00     0.128 C 
HETATM   20  C   UNK N   1      34.407  15.118   8.210  0.00  0.00     0.031 C 
HETATM   21  C   UNK N   1      33.927  16.016   7.336  0.00  0.00     0.033 C 
HETATM   22  C   UNK N   1      32.761  15.774   6.583  0.00  0.00     0.029 C 
HETATM   23  C   UNK N   1      32.035  14.622   6.866  0.00  0.00     0.001 C 
HETATM   24  C   UNK N   1      32.605  13.691   7.746  0.00  0.00     0.002 C 
BRANCH  21  25
HETATM   25  N   UNK N   1      34.641  17.193   7.339  0.00  0.00    -0.328 N 
HETATM   26  C   UNK N   1      34.214  18.258   8.005  0.00  0.00     0.218 C 
HETATM   27  O   UNK N   1      35.033  19.081   8.350  0.00  0.00    -0.274 OA
HETATM   28  C   UNK N   1      32.801  18.367   8.482  0.00  0.00     0.117 C 
HETATM   29  H   UNK N   1      35.487  17.246   6.838  0.00  0.00     0.169 HD
ENDBRANCH  21  25
ENDBRANCH  14  19
BRANCH  13  30
HETATM   30  C   UNK N   1      35.766  13.032  12.909  0.00  0.00     0.049 A 
HETATM   31  C   UNK N   1      36.177  11.957  13.702  0.00  0.00     0.030 A 
HETATM   32  C   UNK N   1      36.781  12.240  14.934  0.00  0.00     0.002 A 
HETATM   33  C   UNK N   1      36.917  13.570  15.363  0.00  0.00     0.000 A 
HETATM   34  C   UNK N   1      36.536  14.621  14.539  0.00  0.00     0.002 A 
HETATM   35  C   UNK N   1      35.991  14.343  13.315  0.00  0.00     0.030 A 
ENDBRANCH  13  30
TORSDOF 3
ENDMDL
MODEL 6
REMARK VINA RESULT:      -7.2      2.742      6.984
REMARK  3 active torsions:
REMARK  status: ('A' for Active; 'I' for Inactive)
REMARK       I    between atoms: C_9  and  N_20 
REMARK       I    between atoms: C_12  and  N_13 
REMARK    1  A    between atoms: N_13  and  C_14 
REMARK    2  A    between atoms: N_20  and  C_21 
REMARK    3  A    between atoms: C_23  and  N_29 
REMARK       I    between atoms: N_29  and  C_30 
ROOT
HETATM    1  N   UNK N   1      22.814  15.153   3.658  0.00  0.00    -0.288 N 
ATOM      2  HN  UNK N   1      22.753  14.944   2.662  1.00  0.00     0.187 HD
HETATM    3  C   UNK N   1      21.772  15.451   4.481  0.00  0.00     0.135 A 
HETATM    4  C   UNK N   1      22.282  15.673   5.757  0.00  0.00     0.107 A 
HETATM    5  C   UNK N   1      23.616  15.517   5.633  0.00  0.00     0.166 A 
HETATM    6  N   UNK N   1      23.920  15.181   4.384  0.00  0.00    -0.069 N 
HETATM    7  N   UNK N   1      24.574  15.760   6.543  0.00  0.00    -0.335 N 
ATOM      8  HN  UNK N   1      24.420  15.753   7.551  1.00  0.00     0.165 HD
HETATM    9  C   UNK N   1      25.760  16.018   5.963  0.00  0.00     0.303 C 
HETATM   10  N   UNK N   1      26.165  15.146   4.998  0.00  0.00    -0.186 N 
ATOM     11  HN  UNK N   1      27.094  14.725   4.983  1.00  0.00     0.181 HD
HETATM   12  C   UNK N   1      25.224  14.887   4.058  0.00  0.00     0.704 C 
HETATM   13  N   UNK N   1      25.614  14.467   2.753  0.00  0.00    -0.190 N 
HETATM   14  N   UNK N   1      25.747  17.367   5.481  0.00  0.00    -0.374 N 
HETATM   15  C   UNK N   1      21.602  16.068   6.953  0.00  0.00     0.105 C 
HETATM   16  N   UNK N   1      21.091  16.387   7.940  0.00  0.00    -0.191 NA
HETATM   17  H   UNK N   1      26.487  14.718   2.373  0.00  0.00     0.184 HD
HETATM   18  H   UNK N   1      25.166  18.014   5.942  0.00  0.00     0.158 HD
ENDROOT
BRANCH  14  19
HETATM   19  C   UNK N   1      26.513  17.827   4.388  0.00  0.00     0.128 C 
HETATM   20  C   UNK N   1      25.669  18.472   3.606  0.00  0.00     0.031 C 
HETATM   21  C   UNK N   1      25.785  19.796   3.424  0.00  0.00     0.033 C 
HETATM   22  C   UNK N   1      26.913  20.514   3.871  0.00  0.00     0.029 C 
HETATM   23  C   UNK N   1      27.977  19.787   4.395  0.00  0.00     0.001 C 
HETATM   24  C   UNK N   1      27.786  18.416   4.614  0.00  0.00     0.002 C 
BRANCH  21  25
HETATM   25  N   UNK N   1      24.745  20.325   2.693  0.00  0.00    -0.328 N 
HETATM   26  C   UNK N   1      23.487  20.197   3.092  0.00  0.00     0.218 C 
HETATM   27  O   UNK N   1      22.680  21.012   2.704  0.00  0.00    -0.274 OA
HETATM   28  C   UNK N   1      23.094  19.195   4.130  0.00  0.00     0.117 C 
HETATM   29  H   UNK N   1      24.939  20.809   1.859  0.00  0.00     0.169 HD
ENDBRANCH  21  25
ENDBRANCH  14  19
BRANCH  13  30
HETATM   30  C   UNK N   1      24.710  13.690   2.040  0.00  0.00     0.049 A 
HETATM   31  C   UNK N   1      24.468  12.351   2.357  0.00  0.00     0.030 A 
HETATM   32  C   UNK N   1      23.758  11.572   1.434  0.00  0.00     0.002 A 
HETATM   33  C   UNK N   1      23.352  12.127   0.209  0.00  0.00     0.000 A 
HETATM   34  C   UNK N   1      23.571  13.471  -0.065  0.00  0.00     0.002 A 
HETATM   35  C   UNK N   1      24.221  14.241   0.860  0.00  0.00     0.030 A 
ENDBRANCH  13  30
TORSDOF 3
ENDMDL
MODEL 7
REMARK VINA RESULT:      -7.2      8.630     12.630
REMARK  3 active torsions:
REMARK  status: ('A' for Active; 'I' for Inactive)
REMARK       I    between atoms: C_9  and  N_20 
REMARK       I    between atoms: C_12  and  N_13 
REMARK    1  A    between atoms: N_13  and  C_14 
REMARK    2  A    between atoms: N_20  and  C_21 
REMARK    3  A    between atoms: C_23  and  N_29 
REMARK       I    between atoms: N_29  and  C_30 
ROOT
HETATM    1  N   UNK N   1      36.285  11.943  10.449  0.00  0.00    -0.288 N 
ATOM      2  HN  UNK N   1      36.604  11.491   9.592  1.00  0.00     0.187 HD
HETATM    3  C   UNK N   1      35.624  11.343  11.475  0.00  0.00     0.135 A 
HETATM    4  C   UNK N   1      35.369  12.308  12.445  0.00  0.00     0.107 A 
HETATM    5  C   UNK N   1      35.874  13.453  11.941  0.00  0.00     0.166 A 
HETATM    6  N   UNK N   1      36.442  13.219  10.762  0.00  0.00    -0.069 N 
HETATM    7  N   UNK N   1      35.762  14.700  12.426  0.00  0.00    -0.335 N 
ATOM      8  HN  UNK N   1      35.594  14.919  13.408  1.00  0.00     0.165 HD
HETATM    9  C   UNK N   1      35.896  15.626  11.459  0.00  0.00     0.303 C 
HETATM   10  N   UNK N   1      36.964  15.484  10.626  0.00  0.00    -0.186 N 
ATOM     11  HN  UNK N   1      37.605  16.246  10.408  1.00  0.00     0.181 HD
HETATM   12  C   UNK N   1      37.099  14.237  10.112  0.00  0.00     0.704 C 
HETATM   13  N   UNK N   1      37.777  14.046   8.872  0.00  0.00    -0.190 N 
HETATM   14  N   UNK N   1      34.665  15.701  10.729  0.00  0.00    -0.374 N 
HETATM   15  C   UNK N   1      34.656  12.191  13.681  0.00  0.00     0.105 C 
HETATM   16  N   UNK N   1      34.088  12.139  14.687  0.00  0.00    -0.191 NA
HETATM   17  H   UNK N   1      37.810  14.755   8.190  0.00  0.00     0.184 HD
HETATM   18  H   UNK N   1      33.835  15.459  11.200  0.00  0.00     0.158 HD
ENDROOT
BRANCH  14  19
HETATM   19  C   UNK N   1      34.567  16.098   9.378  0.00  0.00     0.128 C 
HETATM   20  C   UNK N   1      33.964  15.103   8.755  0.00  0.00     0.031 C 
HETATM   21  C   UNK N   1      32.741  15.271   8.230  0.00  0.00     0.033 C 
HETATM   22  C   UNK N   1      32.142  16.543   8.125  0.00  0.00     0.029 C 
HETATM   23  C   UNK N   1      32.912  17.651   8.463  0.00  0.00     0.001 C 
HETATM   24  C   UNK N   1      34.161  17.421   9.056  0.00  0.00     0.002 C 
BRANCH  21  25
HETATM   25  N   UNK N   1      32.207  14.100   7.743  0.00  0.00    -0.328 N 
HETATM   26  C   UNK N   1      32.442  13.698   6.501  0.00  0.00     0.218 C 
HETATM   27  O   UNK N   1      32.349  12.515   6.257  0.00  0.00    -0.274 OA
HETATM   28  C   UNK N   1      32.983  14.632   5.466  0.00  0.00     0.117 C 
HETATM   29  H   UNK N   1      31.640  13.548   8.328  0.00  0.00     0.169 HD
ENDBRANCH  21  25
ENDBRANCH  14  19
BRANCH  13  30
HETATM   30  C   UNK N   1      38.387  12.815   8.666  0.00  0.00     0.049 A 
HETATM   31  C   UNK N   1      39.543  12.433   9.353  0.00  0.00     0.030 A 
HETATM   32  C   UNK N   1      40.241  11.308   8.896  0.00  0.00     0.002 A 
HETATM   33  C   UNK N   1      39.802  10.624   7.749  0.00  0.00     0.000 A 
HETATM   34  C   UNK N   1      38.629  11.001   7.109  0.00  0.00     0.002 A 
HETATM   35  C   UNK N   1      37.922  12.070   7.587  0.00  0.00     0.030 A 
ENDBRANCH  13  30
TORSDOF 3
ENDMDL
MODEL 8
REMARK VINA RESULT:      -7.2      3.229      5.316
REMARK  3 active torsions:
REMARK  status: ('A' for Active; 'I' for Inactive)
REMARK       I    between atoms: C_9  and  N_20 
REMARK       I    between atoms: C_12  and  N_13 
REMARK    1  A    between atoms: N_13  and  C_14 
REMARK    2  A    between atoms: N_20  and  C_21 
REMARK    3  A    between atoms: C_23  and  N_29 
REMARK       I    between atoms: N_29  and  C_30 
ROOT
HETATM    1  N   UNK N   1      30.383  16.349   6.227  0.00  0.00    -0.288 N 
ATOM      2  HN  UNK N   1      30.761  15.582   5.671  1.00  0.00     0.187 HD
HETATM    3  C   UNK N   1      30.572  16.542   7.561  0.00  0.00     0.135 A 
HETATM    4  C   UNK N   1      29.886  17.696   7.930  0.00  0.00     0.107 A 
HETATM    5  C   UNK N   1      29.297  18.131   6.795  0.00  0.00     0.166 A 
HETATM    6  N   UNK N   1      29.622  17.336   5.781  0.00  0.00    -0.069 N 
HETATM    7  N   UNK N   1      28.411  19.128   6.644  0.00  0.00    -0.335 N 
ATOM      8  HN  UNK N   1      28.326  19.919   7.282  1.00  0.00     0.165 HD
HETATM    9  C   UNK N   1      27.648  18.956   5.550  0.00  0.00     0.303 C 
HETATM   10  N   UNK N   1      28.303  18.659   4.393  0.00  0.00    -0.186 N 
ATOM     11  HN  UNK N   1      28.135  19.153   3.517  1.00  0.00     0.181 HD
HETATM   12  C   UNK N   1      29.199  17.649   4.511  0.00  0.00     0.704 C 
HETATM   13  N   UNK N   1      29.554  16.873   3.369  0.00  0.00    -0.190 N 
HETATM   14  N   UNK N   1      26.640  17.983   5.848  0.00  0.00    -0.374 N 
HETATM   15  C   UNK N   1      29.730  18.289   9.223  0.00  0.00     0.105 C 
HETATM   16  N   UNK N   1      29.579  18.799  10.249  0.00  0.00    -0.191 NA
HETATM   17  H   UNK N   1      28.934  16.759   2.613  0.00  0.00     0.184 HD
HETATM   18  H   UNK N   1      26.352  17.890   6.785  0.00  0.00     0.158 HD
ENDROOT
BRANCH  14  19
HETATM   19  C   UNK N   1      26.033  17.148   4.885  0.00  0.00     0.128 C 
HETATM   20  C   UNK N   1      25.782  16.010   5.504  0.00  0.00     0.031 C 
HETATM   21  C   UNK N   1      24.517  15.614   5.713  0.00  0.00     0.033 C 
HETATM   22  C   UNK N   1      23.422  16.263   5.107  0.00  0.00     0.029 C 
HETATM   23  C   UNK N   1      23.695  17.255   4.171  0.00  0.00     0.001 C 
HETATM   24  C   UNK N   1      25.027  17.669   4.029  0.00  0.00     0.002 C 
BRANCH  21  25
HETATM   25  N   UNK N   1      24.437  14.481   6.491  0.00  0.00    -0.328 N 
HETATM   26  C   UNK N   1      24.553  13.271   5.960  0.00  0.00     0.218 C 
HETATM   27  O   UNK N   1      24.918  12.366   6.679  0.00  0.00    -0.274 OA
HETATM   28  C   UNK N   1      24.418  13.046   4.488  0.00  0.00     0.117 C 
HETATM   29  H   UNK N   1      24.293  14.570   7.460  0.00  0.00     0.169 HD
ENDBRANCH  21  25
ENDBRANCH  14  19
BRANCH  13  30
HETATM   30  C   UNK N   1      30.812  16.283   3.369  0.00  0.00     0.049 A 
HETATM   31  C   UNK N   1      31.984  17.030   3.226  0.00  0.00     0.030 A 
HETATM   32  C   UNK N   1      33.176  16.342   2.966  0.00  0.00     0.002 A 
HETATM   33  C   UNK N   1      33.166  14.946   2.808  0.00  0.00     0.000 A 
HETATM   34  C   UNK N   1      31.994  14.224   2.994  0.00  0.00     0.002 A 
HETATM   35  C   UNK N   1      30.840  14.894   3.297  0.00  0.00     0.030 A 
ENDBRANCH  13  30
TORSDOF 3
ENDMDL
MODEL 9
REMARK VINA RESULT:      -7.1      3.147      7.476
REMARK  3 active torsions:
REMARK  status: ('A' for Active; 'I' for Inactive)
REMARK       I    between atoms: C_9  and  N_20 
REMARK       I    between atoms: C_12  and  N_13 
REMARK    1  A    between atoms: N_13  and  C_14 
REMARK    2  A    between atoms: N_20  and  C_21 
REMARK    3  A    between atoms: C_23  and  N_29 
REMARK       I    between atoms: N_29  and  C_30 
ROOT
HETATM    1  N   UNK N   1      21.127  12.657   7.028  0.00  0.00    -0.288 N 
ATOM      2  HN  UNK N   1      21.730  12.364   7.797  1.00  0.00     0.187 HD
HETATM    3  C   UNK N   1      20.691  11.872   6.006  0.00  0.00     0.135 A 
HETATM    4  C   UNK N   1      19.897  12.654   5.171  0.00  0.00     0.107 A 
HETATM    5  C   UNK N   1      19.913  13.884   5.725  0.00  0.00     0.166 A 
HETATM    6  N   UNK N   1      20.627  13.868   6.846  0.00  0.00    -0.069 N 
HETATM    7  N   UNK N   1      19.416  15.029   5.230  0.00  0.00    -0.335 N 
ATOM      8  HN  UNK N   1      18.656  15.077   4.552  1.00  0.00     0.165 HD
HETATM    9  C   UNK N   1      20.044  16.106   5.736  0.00  0.00     0.303 C 
HETATM   10  N   UNK N   1      20.191  16.142   7.090  0.00  0.00    -0.186 N 
ATOM     11  HN  UNK N   1      19.941  16.954   7.655  1.00  0.00     0.181 HD
HETATM   12  C   UNK N   1      20.700  15.004   7.620  0.00  0.00     0.704 C 
HETATM   13  N   UNK N   1      21.402  15.044   8.860  0.00  0.00    -0.190 N 
HETATM   14  N   UNK N   1      21.301  16.255   5.066  0.00  0.00    -0.374 N 
HETATM   15  C   UNK N   1      19.255  12.308   3.940  0.00  0.00     0.105 C 
HETATM   16  N   UNK N   1      18.721  12.071   2.942  0.00  0.00    -0.191 NA
HETATM   17  H   UNK N   1      21.870  15.857   9.158  0.00  0.00     0.184 HD
HETATM   18  H   UNK N   1      21.377  15.909   4.147  0.00  0.00     0.158 HD
ENDROOT
BRANCH  14  19
HETATM   19  C   UNK N   1      22.438  16.866   5.638  0.00  0.00     0.128 C 
HETATM   20  C   UNK N   1      23.412  15.982   5.530  0.00  0.00     0.031 C 
HETATM   21  C   UNK N   1      24.468  16.227   4.739  0.00  0.00     0.033 C 
HETATM   22  C   UNK N   1      24.694  17.496   4.169  0.00  0.00     0.029 C 
HETATM   23  C   UNK N   1      23.858  18.538   4.555  0.00  0.00     0.001 C 
HETATM   24  C   UNK N   1      22.740  18.221   5.338  0.00  0.00     0.002 C 
BRANCH  21  25
HETATM   25  N   UNK N   1      25.315  15.147   4.636  0.00  0.00    -0.328 N 
HETATM   26  C   UNK N   1      26.244  14.909   5.553  0.00  0.00     0.218 C 
HETATM   27  O   UNK N   1      26.645  13.772   5.677  0.00  0.00    -0.274 OA
HETATM   28  C   UNK N   1      26.661  15.957   6.534  0.00  0.00     0.117 C 
HETATM   29  H   UNK N   1      25.230  14.538   3.868  0.00  0.00     0.169 HD
ENDBRANCH  21  25
ENDBRANCH  14  19
BRANCH  13  30
HETATM   30  C   UNK N   1      21.398  13.888   9.629  0.00  0.00     0.049 A 
HETATM   31  C   UNK N   1      20.248  13.429  10.277  0.00  0.00     0.030 A 
HETATM   32  C   UNK N   1      20.391  12.423  11.241  0.00  0.00     0.002 A 
HETATM   33  C   UNK N   1      21.667  11.935  11.567  0.00  0.00     0.000 A 
HETATM   34  C   UNK N   1      22.789  12.380  10.881  0.00  0.00     0.002 A 
HETATM   35  C   UNK N   1      22.641  13.328   9.905  0.00  0.00     0.030 A 
ENDBRANCH  13  30
TORSDOF 3
ENDMDL
