MODEL 1
REMARK VINA RESULT:      -6.1      0.000      0.000
REMARK  3 active torsions:
REMARK  status: ('A' for Active; 'I' for Inactive)
REMARK    1  A    between atoms: C_3  and  C_16 
REMARK    2  A    between atoms: N_12  and  C_14 
REMARK    3  A    between atoms: C_16  and  N_17 
ROOT
HETATM    1  C   UNK N   1      21.196  16.269   7.007  0.00  0.00     0.031 A 
HETATM    2  C   UNK N   1      20.047  16.961   7.451  0.00  0.00     0.011 A 
HETATM    3  C   UNK N   1      19.357  16.543   8.616  0.00  0.00    -0.040 A 
HETATM    4  C   UNK N   1      19.815  15.427   9.338  0.00  0.00     0.023 A 
HETATM    5  C   UNK N   1      20.942  14.769   8.879  0.00  0.00     0.004 A 
HETATM    6  C   UNK N   1      21.590  13.678   9.382  0.00  0.00     0.003 A 
HETATM    7  C   UNK N   1      21.322  12.894  10.498  0.00  0.00     0.014 A 
HETATM    8  C   UNK N   1      22.189  11.820  10.760  0.00  0.00     0.001 A 
HETATM    9  C   UNK N   1      23.287  11.561   9.908  0.00  0.00     0.002 A 
HETATM   10  C   UNK N   1      23.531  12.374   8.783  0.00  0.00     0.030 A 
HETATM   11  C   UNK N   1      22.655  13.435   8.545  0.00  0.00     0.046 A 
HETATM   12  N   UNK N   1      22.692  14.339   7.536  0.00  0.00    -0.346 N 
HETATM   13  C   UNK N   1      21.625  15.164   7.750  0.00  0.00     0.046 A 
ENDROOT
BRANCH   3  14
HETATM   14  C   UNK N   1      18.141  17.291   9.081  0.00  0.00     0.152 C 
BRANCH  14  15
HETATM   15  N   UNK N   1      18.515  18.490   9.822  0.00  0.00    -0.422 N 
HETATM   16  C   UNK N   1      17.553  18.665  10.892  0.00  0.00     0.140 C 
HETATM   17  H   UNK N   1      19.311  19.096   9.623  0.00  0.00     0.153 HD
ENDBRANCH  14  15
ENDBRANCH   3  14
BRANCH  12  18
HETATM   18  C   UNK N   1      23.713  14.347   6.480  0.00  0.00     0.125 C 
HETATM   19  C   UNK N   1      24.937  15.185   6.800  0.00  0.00     0.027 C 
ENDBRANCH  12  18
TORSDOF 3
ENDMDL
MODEL 2
REMARK VINA RESULT:      -5.9     15.052     16.963
REMARK  3 active torsions:
REMARK  status: ('A' for Active; 'I' for Inactive)
REMARK    1  A    between atoms: C_3  and  C_16 
REMARK    2  A    between atoms: N_12  and  C_14 
REMARK    3  A    between atoms: C_16  and  N_17 
ROOT
HETATM    1  C   UNK N   1      36.969  10.682  13.790  0.00  0.00     0.031 A 
HETATM    2  C   UNK N   1      36.951  11.619  12.733  0.00  0.00     0.011 A 
HETATM    3  C   UNK N   1      36.520  12.951  12.954  0.00  0.00    -0.040 A 
HETATM    4  C   UNK N   1      36.103  13.346  14.238  0.00  0.00     0.023 A 
HETATM    5  C   UNK N   1      36.131  12.407  15.252  0.00  0.00     0.004 A 
HETATM    6  C   UNK N   1      35.788  12.524  16.569  0.00  0.00     0.003 A 
HETATM    7  C   UNK N   1      35.306  13.608  17.292  0.00  0.00     0.014 A 
HETATM    8  C   UNK N   1      35.043  13.413  18.658  0.00  0.00     0.001 A 
HETATM    9  C   UNK N   1      35.264  12.152  19.258  0.00  0.00     0.002 A 
HETATM   10  C   UNK N   1      35.753  11.071  18.496  0.00  0.00     0.030 A 
HETATM   11  C   UNK N   1      36.006  11.291  17.141  0.00  0.00     0.046 A 
HETATM   12  N   UNK N   1      36.475  10.409  16.224  0.00  0.00    -0.346 N 
HETATM   13  C   UNK N   1      36.549  11.110  15.054  0.00  0.00     0.046 A 
ENDROOT
BRANCH   3  14
HETATM   14  C   UNK N   1      36.511  13.938  11.824  0.00  0.00     0.152 C 
BRANCH  14  15
HETATM   15  N   UNK N   1      36.335  15.299  12.319  0.00  0.00    -0.422 N 
HETATM   16  C   UNK N   1      35.621  16.048  11.305  0.00  0.00     0.140 C 
HETATM   17  H   UNK N   1      36.658  15.659  13.217  0.00  0.00     0.153 HD
ENDBRANCH  14  15
ENDBRANCH   3  14
BRANCH  12  18
HETATM   18  C   UNK N   1      36.807   9.012  16.526  0.00  0.00     0.125 C 
HETATM   19  C   UNK N   1      35.692   8.025  16.230  0.00  0.00     0.027 C 
ENDBRANCH  12  18
TORSDOF 3
ENDMDL
MODEL 3
REMARK VINA RESULT:      -5.8      8.355     10.886
REMARK  3 active torsions:
REMARK  status: ('A' for Active; 'I' for Inactive)
REMARK    1  A    between atoms: C_3  and  C_16 
REMARK    2  A    between atoms: N_12  and  C_14 
REMARK    3  A    between atoms: C_16  and  N_17 
ROOT
HETATM    1  C   UNK N   1      30.101  16.463   6.903  0.00  0.00     0.031 A 
HETATM    2  C   UNK N   1      30.695  15.781   5.817  0.00  0.00     0.011 A 
HETATM    3  C   UNK N   1      30.451  16.194   4.484  0.00  0.00    -0.040 A 
HETATM    4  C   UNK N   1      29.607  17.290   4.235  0.00  0.00     0.023 A 
HETATM    5  C   UNK N   1      29.039  17.937   5.317  0.00  0.00     0.004 A 
HETATM    6  C   UNK N   1      28.198  19.012   5.358  0.00  0.00     0.003 A 
HETATM    7  C   UNK N   1      27.654  19.783   4.337  0.00  0.00     0.014 A 
HETATM    8  C   UNK N   1      26.809  20.843   4.703  0.00  0.00     0.001 A 
HETATM    9  C   UNK N   1      26.532  21.101   6.066  0.00  0.00     0.002 A 
HETATM   10  C   UNK N   1      27.099  20.301   7.078  0.00  0.00     0.030 A 
HETATM   11  C   UNK N   1      27.936  19.254   6.687  0.00  0.00     0.046 A 
HETATM   12  N   UNK N   1      28.586  18.364   7.477  0.00  0.00    -0.346 N 
HETATM   13  C   UNK N   1      29.268  17.550   6.619  0.00  0.00     0.046 A 
ENDROOT
BRANCH   3  14
HETATM   14  C   UNK N   1      31.093  15.465   3.339  0.00  0.00     0.152 C 
BRANCH  14  15
HETATM   15  N   UNK N   1      32.072  16.309   2.664  0.00  0.00    -0.422 N 
HETATM   16  C   UNK N   1      33.389  15.892   3.100  0.00  0.00     0.140 C 
HETATM   17  H   UNK N   1      31.866  17.059   2.004  0.00  0.00     0.153 HD
ENDBRANCH  14  15
ENDBRANCH   3  14
BRANCH  12  18
HETATM   18  C   UNK N   1      28.509  18.361   8.944  0.00  0.00     0.125 C 
HETATM   19  C   UNK N   1      29.796  18.772   9.638  0.00  0.00     0.027 C 
ENDBRANCH  12  18
TORSDOF 3
ENDMDL
MODEL 4
REMARK VINA RESULT:      -5.7     17.689     18.354
REMARK  3 active torsions:
REMARK  status: ('A' for Active; 'I' for Inactive)
REMARK    1  A    between atoms: C_3  and  C_16 
REMARK    2  A    between atoms: N_12  and  C_14 
REMARK    3  A    between atoms: C_16  and  N_17 
ROOT
HETATM    1  C   UNK N   1      25.559  25.378  -6.430  0.00  0.00     0.031 A 
HETATM    2  C   UNK N   1      25.375  26.362  -5.433  0.00  0.00     0.011 A 
HETATM    3  C   UNK N   1      26.221  26.408  -4.297  0.00  0.00    -0.040 A 
HETATM    4  C   UNK N   1      27.254  25.464  -4.156  0.00  0.00     0.023 A 
HETATM    5  C   UNK N   1      27.409  24.513  -5.147  0.00  0.00     0.004 A 
HETATM    6  C   UNK N   1      28.316  23.499  -5.258  0.00  0.00     0.003 A 
HETATM    7  C   UNK N   1      29.354  23.108  -4.420  0.00  0.00     0.014 A 
HETATM    8  C   UNK N   1      30.129  22.005  -4.815  0.00  0.00     0.001 A 
HETATM    9  C   UNK N   1      29.848  21.329  -6.025  0.00  0.00     0.002 A 
HETATM   10  C   UNK N   1      28.788  21.749  -6.853  0.00  0.00     0.030 A 
HETATM   11  C   UNK N   1      28.033  22.848  -6.437  0.00  0.00     0.046 A 
HETATM   12  N   UNK N   1      26.979  23.423  -7.066  0.00  0.00    -0.346 N 
HETATM   13  C   UNK N   1      26.597  24.456  -6.257  0.00  0.00     0.046 A 
ENDROOT
BRANCH   3  14
HETATM   14  C   UNK N   1      26.018  27.463  -3.248  0.00  0.00     0.152 C 
BRANCH  14  15
HETATM   15  N   UNK N   1      25.604  28.725  -3.849  0.00  0.00    -0.422 N 
HETATM   16  C   UNK N   1      26.580  29.731  -3.480  0.00  0.00     0.140 C 
HETATM   17  H   UNK N   1      24.775  28.874  -4.425  0.00  0.00     0.153 HD
ENDBRANCH  14  15
ENDBRANCH   3  14
BRANCH  12  18
HETATM   18  C   UNK N   1      26.436  22.959  -8.349  0.00  0.00     0.125 C 
HETATM   19  C   UNK N   1      25.294  21.968  -8.223  0.00  0.00     0.027 C 
ENDBRANCH  12  18
TORSDOF 3
ENDMDL
MODEL 5
REMARK VINA RESULT:      -5.6     15.887     17.361
REMARK  3 active torsions:
REMARK  status: ('A' for Active; 'I' for Inactive)
REMARK    1  A    between atoms: C_3  and  C_16 
REMARK    2  A    between atoms: N_12  and  C_14 
REMARK    3  A    between atoms: C_16  and  N_17 
ROOT
HETATM    1  C   UNK N   1      35.774  13.694  14.057  0.00  0.00     0.031 A 
HETATM    2  C   UNK N   1      36.338  13.624  12.763  0.00  0.00     0.011 A 
HETATM    3  C   UNK N   1      37.109  12.501  12.371  0.00  0.00    -0.040 A 
HETATM    4  C   UNK N   1      37.319  11.446  13.277  0.00  0.00     0.023 A 
HETATM    5  C   UNK N   1      36.755  11.544  14.535  0.00  0.00     0.004 A 
HETATM    6  C   UNK N   1      36.800  10.677  15.589  0.00  0.00     0.003 A 
HETATM    7  C   UNK N   1      37.420   9.440  15.726  0.00  0.00     0.014 A 
HETATM    8  C   UNK N   1      37.280   8.776  16.956  0.00  0.00     0.001 A 
HETATM    9  C   UNK N   1      36.532   9.359  18.005  0.00  0.00     0.002 A 
HETATM   10  C   UNK N   1      35.916  10.615  17.834  0.00  0.00     0.030 A 
HETATM   11  C   UNK N   1      36.070  11.254  16.603  0.00  0.00     0.046 A 
HETATM   12  N   UNK N   1      35.571  12.454  16.216  0.00  0.00    -0.346 N 
HETATM   13  C   UNK N   1      36.002  12.627  14.931  0.00  0.00     0.046 A 
ENDROOT
BRANCH   3  14
HETATM   14  C   UNK N   1      37.699  12.436  10.992  0.00  0.00     0.152 C 
BRANCH  14  15
HETATM   15  N   UNK N   1      38.739  13.443  10.819  0.00  0.00    -0.422 N 
HETATM   16  C   UNK N   1      38.485  14.131   9.570  0.00  0.00     0.140 C 
HETATM   17  H   UNK N   1      39.509  13.630  11.463  0.00  0.00     0.153 HD
ENDBRANCH  14  15
ENDBRANCH   3  14
BRANCH  12  18
HETATM   18  C   UNK N   1      34.747  13.315  17.074  0.00  0.00     0.125 C 
HETATM   19  C   UNK N   1      35.541  14.215  18.004  0.00  0.00     0.027 C 
ENDBRANCH  12  18
TORSDOF 3
ENDMDL
MODEL 6
REMARK VINA RESULT:      -5.5     14.459     16.708
REMARK  3 active torsions:
REMARK  status: ('A' for Active; 'I' for Inactive)
REMARK    1  A    between atoms: C_3  and  C_16 
REMARK    2  A    between atoms: N_12  and  C_14 
REMARK    3  A    between atoms: C_16  and  N_17 
ROOT
HETATM    1  C   UNK N   1      35.301   9.146  14.952  0.00  0.00     0.031 A 
HETATM    2  C   UNK N   1      35.215   9.640  13.631  0.00  0.00     0.011 A 
HETATM    3  C   UNK N   1      35.119  11.032  13.383  0.00  0.00    -0.040 A 
HETATM    4  C   UNK N   1      35.107  11.934  14.462  0.00  0.00     0.023 A 
HETATM    5  C   UNK N   1      35.191  11.422  15.744  0.00  0.00     0.004 A 
HETATM    6  C   UNK N   1      35.202  12.063  16.949  0.00  0.00     0.003 A 
HETATM    7  C   UNK N   1      35.130  13.416  17.261  0.00  0.00     0.014 A 
HETATM    8  C   UNK N   1      35.167  13.771  18.620  0.00  0.00     0.001 A 
HETATM    9  C   UNK N   1      35.273  12.776  19.619  0.00  0.00     0.002 A 
HETATM   10  C   UNK N   1      35.343  11.413  19.269  0.00  0.00     0.030 A 
HETATM   11  C   UNK N   1      35.304  11.086  17.912  0.00  0.00     0.046 A 
HETATM   12  N   UNK N   1      35.358   9.855  17.347  0.00  0.00    -0.346 N 
HETATM   13  C   UNK N   1      35.286  10.072  16.000  0.00  0.00     0.046 A 
ENDROOT
BRANCH   3  14
HETATM   14  C   UNK N   1      35.035  11.543  11.975  0.00  0.00     0.152 C 
BRANCH  14  15
HETATM   15  N   UNK N   1      34.430  12.870  11.935  0.00  0.00    -0.422 N 
HETATM   16  C   UNK N   1      35.228  13.693  11.048  0.00  0.00     0.140 C 
HETATM   17  H   UNK N   1      33.594  13.166  12.441  0.00  0.00     0.153 HD
ENDBRANCH  14  15
ENDBRANCH   3  14
BRANCH  12  18
HETATM   18  C   UNK N   1      35.472   8.606  18.111  0.00  0.00     0.125 C 
HETATM   19  C   UNK N   1      34.189   8.175  18.799  0.00  0.00     0.027 C 
ENDBRANCH  12  18
TORSDOF 3
ENDMDL
MODEL 7
REMARK VINA RESULT:      -5.5     16.678     17.697
REMARK  3 active torsions:
REMARK  status: ('A' for Active; 'I' for Inactive)
REMARK    1  A    between atoms: C_3  and  C_16 
REMARK    2  A    between atoms: N_12  and  C_14 
REMARK    3  A    between atoms: C_16  and  N_17 
ROOT
HETATM    1  C   UNK N   1      35.308  13.144  17.914  0.00  0.00     0.031 A 
HETATM    2  C   UNK N   1      34.949  12.525  19.132  0.00  0.00     0.011 A 
HETATM    3  C   UNK N   1      35.200  11.146  19.344  0.00  0.00    -0.040 A 
HETATM    4  C   UNK N   1      35.809  10.384  18.332  0.00  0.00     0.023 A 
HETATM    5  C   UNK N   1      36.147  11.017  17.150  0.00  0.00     0.004 A 
HETATM    6  C   UNK N   1      36.740  10.521  16.024  0.00  0.00     0.003 A 
HETATM    7  C   UNK N   1      37.181   9.239  15.716  0.00  0.00     0.014 A 
HETATM    8  C   UNK N   1      37.762   9.038  14.453  0.00  0.00     0.001 A 
HETATM    9  C   UNK N   1      37.883  10.112  13.541  0.00  0.00     0.002 A 
HETATM   10  C   UNK N   1      37.425  11.400  13.883  0.00  0.00     0.030 A 
HETATM   11  C   UNK N   1      36.852  11.573  15.145  0.00  0.00     0.046 A 
HETATM   12  N   UNK N   1      36.349  12.710  15.685  0.00  0.00    -0.346 N 
HETATM   13  C   UNK N   1      35.912  12.355  16.930  0.00  0.00     0.046 A 
ENDROOT
BRANCH   3  14
HETATM   14  C   UNK N   1      34.820  10.502  20.645  0.00  0.00     0.152 C 
BRANCH  14  15
HETATM   15  N   UNK N   1      33.934  11.366  21.418  0.00  0.00    -0.422 N 
HETATM   16  C   UNK N   1      32.984  10.518  22.109  0.00  0.00     0.140 C 
HETATM   17  H   UNK N   1      33.976  12.384  21.463  0.00  0.00     0.153 HD
ENDBRANCH  14  15
ENDBRANCH   3  14
BRANCH  12  18
HETATM   18  C   UNK N   1      36.325  14.005  14.994  0.00  0.00     0.125 C 
HETATM   19  C   UNK N   1      37.267  15.043  15.578  0.00  0.00     0.027 C 
ENDBRANCH  12  18
TORSDOF 3
ENDMDL
MODEL 8
REMARK VINA RESULT:      -5.5     17.185     18.802
REMARK  3 active torsions:
REMARK  status: ('A' for Active; 'I' for Inactive)
REMARK    1  A    between atoms: C_3  and  C_16 
REMARK    2  A    between atoms: N_12  and  C_14 
REMARK    3  A    between atoms: C_16  and  N_17 
ROOT
HETATM    1  C   UNK N   1      28.633  22.831  -6.059  0.00  0.00     0.031 A 
HETATM    2  C   UNK N   1      29.573  22.446  -5.076  0.00  0.00     0.011 A 
HETATM    3  C   UNK N   1      29.667  23.152  -3.850  0.00  0.00    -0.040 A 
HETATM    4  C   UNK N   1      28.822  24.249  -3.609  0.00  0.00     0.023 A 
HETATM    5  C   UNK N   1      27.913  24.602  -4.590  0.00  0.00     0.004 A 
HETATM    6  C   UNK N   1      26.989  25.607  -4.612  0.00  0.00     0.003 A 
HETATM    7  C   UNK N   1      26.677  26.579  -3.668  0.00  0.00     0.014 A 
HETATM    8  C   UNK N   1      25.657  27.490  -3.988  0.00  0.00     0.001 A 
HETATM    9  C   UNK N   1      24.983  27.407  -5.228  0.00  0.00     0.002 A 
HETATM   10  C   UNK N   1      25.324  26.410  -6.164  0.00  0.00     0.030 A 
HETATM   11  C   UNK N   1      26.341  25.516  -5.822  0.00  0.00     0.046 A 
HETATM   12  N   UNK N   1      26.831  24.487  -6.556  0.00  0.00    -0.346 N 
HETATM   13  C   UNK N   1      27.807  23.926  -5.784  0.00  0.00     0.046 A 
ENDROOT
BRANCH   3  14
HETATM   14  C   UNK N   1      30.666  22.729  -2.812  0.00  0.00     0.152 C 
BRANCH  14  15
HETATM   15  N   UNK N   1      31.994  22.577  -3.395  0.00  0.00    -0.422 N 
HETATM   16  C   UNK N   1      32.564  21.348  -2.880  0.00  0.00     0.140 C 
HETATM   17  H   UNK N   1      32.442  23.221  -4.048  0.00  0.00     0.153 HD
ENDBRANCH  14  15
ENDBRANCH   3  14
BRANCH  12  18
HETATM   18  C   UNK N   1      26.344  24.130  -7.895  0.00  0.00     0.125 C 
HETATM   19  C   UNK N   1      25.430  22.918  -7.925  0.00  0.00     0.027 C 
ENDBRANCH  12  18
TORSDOF 3
ENDMDL
MODEL 9
REMARK VINA RESULT:      -5.5     17.311     17.947
REMARK  3 active torsions:
REMARK  status: ('A' for Active; 'I' for Inactive)
REMARK    1  A    between atoms: C_3  and  C_16 
REMARK    2  A    between atoms: N_12  and  C_14 
REMARK    3  A    between atoms: C_16  and  N_17 
ROOT
HETATM    1  C   UNK N   1      27.829  22.618  -7.015  0.00  0.00     0.031 A 
HETATM    2  C   UNK N   1      26.956  23.611  -6.516  0.00  0.00     0.011 A 
HETATM    3  C   UNK N   1      27.174  24.193  -5.243  0.00  0.00    -0.040 A 
HETATM    4  C   UNK N   1      28.269  23.778  -4.464  0.00  0.00     0.023 A 
HETATM    5  C   UNK N   1      29.105  22.804  -4.978  0.00  0.00     0.004 A 
HETATM    6  C   UNK N   1      30.222  22.231  -4.441  0.00  0.00     0.003 A 
HETATM    7  C   UNK N   1      30.859  22.441  -3.223  0.00  0.00     0.014 A 
HETATM    8  C   UNK N   1      32.011  21.684  -2.954  0.00  0.00     0.001 A 
HETATM    9  C   UNK N   1      32.490  20.746  -3.897  0.00  0.00     0.002 A 
HETATM   10  C   UNK N   1      31.821  20.555  -5.122  0.00  0.00     0.030 A 
HETATM   11  C   UNK N   1      30.678  21.320  -5.366  0.00  0.00     0.046 A 
HETATM   12  N   UNK N   1      29.882  21.307  -6.464  0.00  0.00    -0.346 N 
HETATM   13  C   UNK N   1      28.907  22.230  -6.214  0.00  0.00     0.046 A 
ENDROOT
BRANCH   3  14
HETATM   14  C   UNK N   1      26.243  25.251  -4.727  0.00  0.00     0.152 C 
BRANCH  14  15
HETATM   15  N   UNK N   1      25.141  25.476  -5.656  0.00  0.00    -0.422 N 
HETATM   16  C   UNK N   1      24.878  26.901  -5.692  0.00  0.00     0.140 C 
HETATM   17  H   UNK N   1      24.644  24.759  -6.185  0.00  0.00     0.153 HD
ENDBRANCH  14  15
ENDBRANCH   3  14
BRANCH  12  18
HETATM   18  C   UNK N   1      30.107  20.443  -7.629  0.00  0.00     0.125 C 
HETATM   19  C   UNK N   1      29.236  19.200  -7.664  0.00  0.00     0.027 C 
ENDBRANCH  12  18
TORSDOF 3
ENDMDL
