MODEL 1
REMARK VINA RESULT:      -6.3      0.000      0.000
REMARK  18 active torsions:
REMARK  status: ('A' for Active; 'I' for Inactive)
REMARK    1  A    between atoms: C_2  and  C_3 
REMARK    2  A    between atoms: C_3  and  C_4 
REMARK    3  A    between atoms: C_4  and  C_5 
REMARK    4  A    between atoms: C_5  and  C_6 
REMARK    5  A    between atoms: C_6  and  C_7 
REMARK    6  A    between atoms: C_7  and  C_8 
REMARK    7  A    between atoms: C_8  and  C_9 
REMARK    8  A    between atoms: C_9  and  C_10 
REMARK    9  A    between atoms: C_10  and  C_12 
REMARK   10  A    between atoms: C_12  and  N_13 
REMARK   11  A    between atoms: C_15  and  C_16 
REMARK   12  A    between atoms: C_17  and  O_18 
REMARK   13  A    between atoms: C_24  and  C_25 
REMARK   14  A    between atoms: C_25  and  O_26 
REMARK   15  A    between atoms: O_26  and  P_27 
REMARK   16  A    between atoms: P_27  and  O_28 
REMARK   17  A    between atoms: P_27  and  O_29 
REMARK   18  A    between atoms: P_27  and  O_30 
ROOT
HETATM    1  C   UNK N   1      32.176  16.831   7.509  0.00  0.00     0.024 A 
HETATM    2  C   UNK N   1      31.945  17.172   6.156  0.00  0.00     0.100 A 
HETATM    3  C   UNK N   1      32.948  16.936   5.207  0.00  0.00     0.039 A 
HETATM    4  C   UNK N   1      32.733  17.294   3.777  0.00  0.00     0.071 C 
HETATM    5  N   UNK N   1      34.123  16.371   5.585  0.00  0.00    -0.367 N 
ATOM      6  HN  UNK N   1      34.847  16.213   4.884  1.00  0.00     0.165 HD
HETATM    7  C   UNK N   1      34.360  16.014   6.873  0.00  0.00     0.098 A 
HETATM    8  C   UNK N   1      33.398  16.235   7.860  0.00  0.00    -0.004 A 
ENDROOT
BRANCH   1   9
HETATM    9  C   UNK N   1      31.152  17.064   8.547  0.00  0.00     0.098 C 
HETATM   10  N   UNK N   1      30.812  18.255   8.878  0.00  0.00    -0.391 N 
ATOM     11  HN  UNK N   1      31.344  19.049   8.524  1.00  0.00     0.159 HD
BRANCH  10  12
HETATM   12  C   UNK N   1      29.690  18.479   9.739  0.00  0.00     0.197 C 
BRANCH  12  13
HETATM   13  C   UNK N   1      28.508  17.830   9.109  0.00  0.00     0.144 C 
HETATM   14  O   UNK N   1      27.853  17.009   9.736  0.00  0.00    -0.296 OA
BRANCH  13  15
HETATM   15  C   UNK N   1      28.084  18.253   7.741  0.00  0.00     0.080 C 
BRANCH  15  16
HETATM   16  C   UNK N   1      27.813  17.077   6.814  0.00  0.00     0.007 C 
BRANCH  16  17
HETATM   17  C   UNK N   1      26.725  17.364   5.784  0.00  0.00     0.000 C 
BRANCH  17  18
HETATM   18  C   UNK N   1      27.327  17.615   4.405  0.00  0.00     0.000 C 
BRANCH  18  19
HETATM   19  C   UNK N   1      27.924  19.010   4.325  0.00  0.00     0.000 C 
BRANCH  19  20
HETATM   20  C   UNK N   1      26.954  19.960   3.661  0.00  0.00     0.000 C 
BRANCH  20  21
HETATM   21  C   UNK N   1      26.146  20.658   4.733  0.00  0.00    -0.000 C 
BRANCH  21  22
HETATM   22  C   UNK N   1      27.085  21.282   5.741  0.00  0.00    -0.005 C 
HETATM   23  C   UNK N   1      26.354  21.459   7.055  0.00  0.00     0.005 C 
ENDBRANCH  21  22
ENDBRANCH  20  21
ENDBRANCH  19  20
ENDBRANCH  18  19
ENDBRANCH  17  18
ENDBRANCH  16  17
ENDBRANCH  15  16
ENDBRANCH  13  15
ENDBRANCH  12  13
ENDBRANCH  10  12
ENDBRANCH   1   9
BRANCH   2  24
HETATM   24  O   UNK N   1      30.772  17.706   5.766  0.00  0.00    -0.358 OA
HETATM   25  H   UNK N   1      30.012  17.790   6.309  0.00  0.00     0.217 HD
ENDBRANCH   2  24
BRANCH   8  26
HETATM   26  C   UNK N   1      33.711  15.826   9.269  0.00  0.00     0.220 C 
BRANCH  26  27
HETATM   27  O   UNK N   1      34.924  16.382   9.701  0.00  0.00    -0.299 OA
BRANCH  27  28
HETATM   28  P   UNK N   1      35.374  15.483  11.158  0.00  0.00     0.376 P 
BRANCH  28  29
HETATM   29  O   UNK N   1      35.805  14.588  12.611  0.00  0.00    -0.314 OA
HETATM   30  H   UNK N   1      35.869  15.034  13.469  0.00  0.00     0.221 HD
ENDBRANCH  28  29
BRANCH  28  31
HETATM   31  O   UNK N   1      33.706  14.979  11.357  0.00  0.00    -0.314 OA
HETATM   32  H   UNK N   1      32.997  14.555  10.847  0.00  0.00     0.221 HD
ENDBRANCH  28  31
BRANCH  28  33
HETATM   33  O   UNK N   1      37.043  16.043  10.995  0.00  0.00    -0.314 OA
HETATM   34  H   UNK N   1      37.833  16.230  11.527  0.00  0.00     0.221 HD
ENDBRANCH  28  33
ENDBRANCH  27  28
ENDBRANCH  26  27
ENDBRANCH   8  26
TORSDOF 18
ENDMDL
MODEL 2
REMARK VINA RESULT:      -6.2      6.574     10.877
REMARK  18 active torsions:
REMARK  status: ('A' for Active; 'I' for Inactive)
REMARK    1  A    between atoms: C_2  and  C_3 
REMARK    2  A    between atoms: C_3  and  C_4 
REMARK    3  A    between atoms: C_4  and  C_5 
REMARK    4  A    between atoms: C_5  and  C_6 
REMARK    5  A    between atoms: C_6  and  C_7 
REMARK    6  A    between atoms: C_7  and  C_8 
REMARK    7  A    between atoms: C_8  and  C_9 
REMARK    8  A    between atoms: C_9  and  C_10 
REMARK    9  A    between atoms: C_10  and  C_12 
REMARK   10  A    between atoms: C_12  and  N_13 
REMARK   11  A    between atoms: C_15  and  C_16 
REMARK   12  A    between atoms: C_17  and  O_18 
REMARK   13  A    between atoms: C_24  and  C_25 
REMARK   14  A    between atoms: C_25  and  O_26 
REMARK   15  A    between atoms: O_26  and  P_27 
REMARK   16  A    between atoms: P_27  and  O_28 
REMARK   17  A    between atoms: P_27  and  O_29 
REMARK   18  A    between atoms: P_27  and  O_30 
ROOT
HETATM    1  C   UNK N   1      23.404  18.089   4.707  0.00  0.00     0.024 A 
HETATM    2  C   UNK N   1      23.664  16.931   5.475  0.00  0.00     0.100 A 
HETATM    3  C   UNK N   1      22.601  16.097   5.844  0.00  0.00     0.039 A 
HETATM    4  C   UNK N   1      22.847  14.877   6.662  0.00  0.00     0.071 C 
HETATM    5  N   UNK N   1      21.335  16.395   5.453  0.00  0.00    -0.367 N 
ATOM      6  HN  UNK N   1      20.570  15.783   5.736  1.00  0.00     0.165 HD
HETATM    7  C   UNK N   1      21.063  17.487   4.695  0.00  0.00     0.098 A 
HETATM    8  C   UNK N   1      22.085  18.356   4.307  0.00  0.00    -0.004 A 
ENDROOT
BRANCH   1   9
HETATM    9  C   UNK N   1      24.490  19.002   4.297  0.00  0.00     0.098 C 
HETATM   10  N   UNK N   1      25.323  19.459   5.156  0.00  0.00    -0.391 N 
ATOM     11  HN  UNK N   1      25.159  19.304   6.151  1.00  0.00     0.159 HD
BRANCH  10  12
HETATM   12  C   UNK N   1      26.483  20.183   4.733  0.00  0.00     0.197 C 
BRANCH  12  13
HETATM   13  C   UNK N   1      27.422  20.234   5.888  0.00  0.00     0.144 C 
HETATM   14  O   UNK N   1      27.791  21.313   6.331  0.00  0.00    -0.296 OA
BRANCH  13  15
HETATM   15  C   UNK N   1      27.836  18.962   6.550  0.00  0.00     0.080 C 
BRANCH  15  16
HETATM   16  C   UNK N   1      28.204  19.148   8.015  0.00  0.00     0.007 C 
BRANCH  16  17
HETATM   17  C   UNK N   1      28.177  17.846   8.810  0.00  0.00     0.000 C 
BRANCH  17  18
HETATM   18  C   UNK N   1      29.370  17.758   9.757  0.00  0.00     0.000 C 
BRANCH  18  19
HETATM   19  C   UNK N   1      30.625  18.296   9.092  0.00  0.00     0.000 C 
BRANCH  19  20
HETATM   20  C   UNK N   1      31.482  17.158   8.587  0.00  0.00     0.000 C 
BRANCH  20  21
HETATM   21  C   UNK N   1      31.753  17.370   7.114  0.00  0.00    -0.000 C 
BRANCH  21  22
HETATM   22  C   UNK N   1      33.242  17.295   6.862  0.00  0.00    -0.005 C 
HETATM   23  C   UNK N   1      33.957  18.199   7.843  0.00  0.00     0.005 C 
ENDBRANCH  21  22
ENDBRANCH  20  21
ENDBRANCH  19  20
ENDBRANCH  18  19
ENDBRANCH  17  18
ENDBRANCH  16  17
ENDBRANCH  15  16
ENDBRANCH  13  15
ENDBRANCH  12  13
ENDBRANCH  10  12
ENDBRANCH   1   9
BRANCH   2  24
HETATM   24  O   UNK N   1      24.919  16.613   5.845  0.00  0.00    -0.358 OA
HETATM   25  H   UNK N   1      25.668  16.637   5.282  0.00  0.00     0.217 HD
ENDBRANCH   2  24
BRANCH   8  26
HETATM   26  C   UNK N   1      21.729  19.552   3.474  0.00  0.00     0.220 C 
BRANCH  26  27
HETATM   27  O   UNK N   1      20.511  19.360   2.804  0.00  0.00    -0.299 OA
BRANCH  27  28
HETATM   28  P   UNK N   1      20.657  20.243   1.277  0.00  0.00     0.376 P 
BRANCH  28  29
HETATM   29  O   UNK N   1      20.802  21.106  -0.250  0.00  0.00    -0.314 OA
HETATM   30  H   UNK N   1      20.031  21.530  -0.656  0.00  0.00     0.221 HD
ENDBRANCH  28  29
BRANCH  28  31
HETATM   31  O   UNK N   1      20.350  18.758   0.394  0.00  0.00    -0.314 OA
HETATM   32  H   UNK N   1      19.603  18.203   0.121  0.00  0.00     0.221 HD
ENDBRANCH  28  31
BRANCH  28  33
HETATM   33  O   UNK N   1      21.029  21.727   2.164  0.00  0.00    -0.314 OA
HETATM   34  H   UNK N   1      21.443  22.031   2.987  0.00  0.00     0.221 HD
ENDBRANCH  28  33
ENDBRANCH  27  28
ENDBRANCH  26  27
ENDBRANCH   8  26
TORSDOF 18
ENDMDL
MODEL 3
REMARK VINA RESULT:      -5.9      8.420     12.123
REMARK  18 active torsions:
REMARK  status: ('A' for Active; 'I' for Inactive)
REMARK    1  A    between atoms: C_2  and  C_3 
REMARK    2  A    between atoms: C_3  and  C_4 
REMARK    3  A    between atoms: C_4  and  C_5 
REMARK    4  A    between atoms: C_5  and  C_6 
REMARK    5  A    between atoms: C_6  and  C_7 
REMARK    6  A    between atoms: C_7  and  C_8 
REMARK    7  A    between atoms: C_8  and  C_9 
REMARK    8  A    between atoms: C_9  and  C_10 
REMARK    9  A    between atoms: C_10  and  C_12 
REMARK   10  A    between atoms: C_12  and  N_13 
REMARK   11  A    between atoms: C_15  and  C_16 
REMARK   12  A    between atoms: C_17  and  O_18 
REMARK   13  A    between atoms: C_24  and  C_25 
REMARK   14  A    between atoms: C_25  and  O_26 
REMARK   15  A    between atoms: O_26  and  P_27 
REMARK   16  A    between atoms: P_27  and  O_28 
REMARK   17  A    between atoms: P_27  and  O_29 
REMARK   18  A    between atoms: P_27  and  O_30 
ROOT
HETATM    1  C   UNK N   1      20.344  15.711   1.767  0.00  0.00     0.024 A 
HETATM    2  C   UNK N   1      19.706  14.473   1.525  0.00  0.00     0.100 A 
HETATM    3  C   UNK N   1      18.733  14.386   0.521  0.00  0.00     0.039 A 
HETATM    4  C   UNK N   1      18.040  13.095   0.251  0.00  0.00     0.071 C 
HETATM    5  N   UNK N   1      18.419  15.480  -0.219  0.00  0.00    -0.367 N 
ATOM      6  HN  UNK N   1      17.702  15.403  -0.941  1.00  0.00     0.165 HD
HETATM    7  C   UNK N   1      19.033  16.674  -0.020  0.00  0.00     0.098 A 
HETATM    8  C   UNK N   1      20.004  16.817   0.972  0.00  0.00    -0.004 A 
ENDROOT
BRANCH   1   9
HETATM    9  C   UNK N   1      21.373  15.855   2.817  0.00  0.00     0.098 C 
HETATM   10  N   UNK N   1      21.042  15.959   4.051  0.00  0.00    -0.391 N 
ATOM     11  HN  UNK N   1      20.061  16.082   4.302  1.00  0.00     0.159 HD
BRANCH  10  12
HETATM   12  C   UNK N   1      22.037  15.904   5.079  0.00  0.00     0.197 C 
BRANCH  12  13
HETATM   13  C   UNK N   1      22.719  17.227   5.109  0.00  0.00     0.144 C 
HETATM   14  O   UNK N   1      22.062  18.254   5.212  0.00  0.00    -0.296 OA
BRANCH  13  15
HETATM   15  C   UNK N   1      24.211  17.281   5.099  0.00  0.00     0.080 C 
BRANCH  15  16
HETATM   16  C   UNK N   1      24.803  17.068   3.712  0.00  0.00     0.007 C 
BRANCH  16  17
HETATM   17  C   UNK N   1      25.916  18.056   3.377  0.00  0.00     0.000 C 
BRANCH  17  18
HETATM   18  C   UNK N   1      25.357  19.460   3.166  0.00  0.00     0.000 C 
BRANCH  18  19
HETATM   19  C   UNK N   1      26.337  20.509   3.666  0.00  0.00     0.000 C 
BRANCH  19  20
HETATM   20  C   UNK N   1      27.382  19.872   4.553  0.00  0.00     0.000 C 
BRANCH  20  21
HETATM   21  C   UNK N   1      27.470  20.660   5.842  0.00  0.00    -0.000 C 
BRANCH  21  22
HETATM   22  C   UNK N   1      27.814  19.725   6.978  0.00  0.00    -0.005 C 
HETATM   23  C   UNK N   1      27.850  18.304   6.457  0.00  0.00     0.005 C 
ENDBRANCH  21  22
ENDBRANCH  20  21
ENDBRANCH  19  20
ENDBRANCH  18  19
ENDBRANCH  17  18
ENDBRANCH  16  17
ENDBRANCH  15  16
ENDBRANCH  13  15
ENDBRANCH  12  13
ENDBRANCH  10  12
ENDBRANCH   1   9
BRANCH   2  24
HETATM   24  O   UNK N   1      20.031  13.375   2.233  0.00  0.00    -0.358 OA
HETATM   25  H   UNK N   1      20.034  12.500   1.898  0.00  0.00     0.217 HD
ENDBRANCH   2  24
BRANCH   8  26
HETATM   26  C   UNK N   1      20.649  18.160   1.154  0.00  0.00     0.220 C 
BRANCH  26  27
HETATM   27  O   UNK N   1      19.903  18.968   2.026  0.00  0.00    -0.299 OA
BRANCH  27  28
HETATM   28  P   UNK N   1      20.915  20.382   2.355  0.00  0.00     0.376 P 
BRANCH  28  29
HETATM   29  O   UNK N   1      21.914  21.790   2.698  0.00  0.00    -0.314 OA
HETATM   30  H   UNK N   1      22.124  22.040   3.611  0.00  0.00     0.221 HD
ENDBRANCH  28  29
BRANCH  28  31
HETATM   31  O   UNK N   1      20.514  20.267   4.059  0.00  0.00    -0.314 OA
HETATM   32  H   UNK N   1      19.834  19.879   4.633  0.00  0.00     0.221 HD
ENDBRANCH  28  31
BRANCH  28  33
HETATM   33  O   UNK N   1      21.269  20.538   0.630  0.00  0.00    -0.314 OA
HETATM   34  H   UNK N   1      21.211  21.177  -0.098  0.00  0.00     0.221 HD
ENDBRANCH  28  33
ENDBRANCH  27  28
ENDBRANCH  26  27
ENDBRANCH   8  26
TORSDOF 18
ENDMDL
MODEL 4
REMARK VINA RESULT:      -5.8      7.184     11.171
REMARK  18 active torsions:
REMARK  status: ('A' for Active; 'I' for Inactive)
REMARK    1  A    between atoms: C_2  and  C_3 
REMARK    2  A    between atoms: C_3  and  C_4 
REMARK    3  A    between atoms: C_4  and  C_5 
REMARK    4  A    between atoms: C_5  and  C_6 
REMARK    5  A    between atoms: C_6  and  C_7 
REMARK    6  A    between atoms: C_7  and  C_8 
REMARK    7  A    between atoms: C_8  and  C_9 
REMARK    8  A    between atoms: C_9  and  C_10 
REMARK    9  A    between atoms: C_10  and  C_12 
REMARK   10  A    between atoms: C_12  and  N_13 
REMARK   11  A    between atoms: C_15  and  C_16 
REMARK   12  A    between atoms: C_17  and  O_18 
REMARK   13  A    between atoms: C_24  and  C_25 
REMARK   14  A    between atoms: C_25  and  O_26 
REMARK   15  A    between atoms: O_26  and  P_27 
REMARK   16  A    between atoms: P_27  and  O_28 
REMARK   17  A    between atoms: P_27  and  O_29 
REMARK   18  A    between atoms: P_27  and  O_30 
ROOT
HETATM    1  C   UNK N   1      22.246  16.462   3.843  0.00  0.00     0.024 A 
HETATM    2  C   UNK N   1      22.818  15.170   3.789  0.00  0.00     0.100 A 
HETATM    3  C   UNK N   1      22.120  14.136   3.151  0.00  0.00     0.039 A 
HETATM    4  C   UNK N   1      22.696  12.763   3.088  0.00  0.00     0.071 C 
HETATM    5  N   UNK N   1      20.913  14.380   2.580  0.00  0.00    -0.367 N 
ATOM      6  HN  UNK N   1      20.413  13.615   2.127  1.00  0.00     0.165 HD
HETATM    7  C   UNK N   1      20.354  15.617   2.599  0.00  0.00     0.098 A 
HETATM    8  C   UNK N   1      21.004  16.681   3.228  0.00  0.00    -0.004 A 
ENDROOT
BRANCH   1   9
HETATM    9  C   UNK N   1      22.940  17.583   4.507  0.00  0.00     0.098 C 
HETATM   10  N   UNK N   1      23.881  18.218   3.912  0.00  0.00    -0.391 N 
ATOM     11  HN  UNK N   1      24.250  17.864   3.029  1.00  0.00     0.159 HD
BRANCH  10  12
HETATM   12  C   UNK N   1      24.419  19.420   4.474  0.00  0.00     0.197 C 
BRANCH  12  13
HETATM   13  C   UNK N   1      24.882  20.272   3.344  0.00  0.00     0.144 C 
HETATM   14  O   UNK N   1      24.067  20.844   2.634  0.00  0.00    -0.296 OA
BRANCH  13  15
HETATM   15  C   UNK N   1      26.346  20.487   3.143  0.00  0.00     0.080 C 
BRANCH  15  16
HETATM   16  C   UNK N   1      27.196  19.813   4.211  0.00  0.00     0.007 C 
BRANCH  16  17
HETATM   17  C   UNK N   1      27.548  20.740   5.371  0.00  0.00     0.000 C 
BRANCH  17  18
HETATM   18  C   UNK N   1      27.558  19.982   6.694  0.00  0.00     0.000 C 
BRANCH  18  19
HETATM   19  C   UNK N   1      27.793  18.499   6.462  0.00  0.00     0.000 C 
BRANCH  19  20
HETATM   20  C   UNK N   1      28.813  17.968   7.443  0.00  0.00     0.000 C 
BRANCH  20  21
HETATM   21  C   UNK N   1      29.941  17.322   6.669  0.00  0.00    -0.000 C 
BRANCH  21  22
HETATM   22  C   UNK N   1      30.970  16.784   7.638  0.00  0.00    -0.005 C 
HETATM   23  C   UNK N   1      31.482  17.920   8.497  0.00  0.00     0.005 C 
ENDBRANCH  21  22
ENDBRANCH  20  21
ENDBRANCH  19  20
ENDBRANCH  18  19
ENDBRANCH  17  18
ENDBRANCH  16  17
ENDBRANCH  15  16
ENDBRANCH  13  15
ENDBRANCH  12  13
ENDBRANCH  10  12
ENDBRANCH   1   9
BRANCH   2  24
HETATM   24  O   UNK N   1      24.027  14.923   4.327  0.00  0.00    -0.358 OA
HETATM   25  H   UNK N   1      24.504  14.122   4.234  0.00  0.00     0.217 HD
ENDBRANCH   2  24
BRANCH   8  26
HETATM   26  C   UNK N   1      20.340  18.027   3.224  0.00  0.00     0.220 C 
BRANCH  26  27
HETATM   27  O   UNK N   1      20.181  18.510   1.917  0.00  0.00    -0.299 OA
BRANCH  27  28
HETATM   28  P   UNK N   1      20.711  20.198   1.960  0.00  0.00     0.376 P 
BRANCH  28  29
HETATM   29  O   UNK N   1      21.242  21.876   1.986  0.00  0.00    -0.314 OA
HETATM   30  H   UNK N   1      20.711  22.572   1.568  0.00  0.00     0.221 HD
ENDBRANCH  28  29
BRANCH  28  31
HETATM   31  O   UNK N   1      20.733  20.232   0.206  0.00  0.00    -0.314 OA
HETATM   32  H   UNK N   1      20.210  19.908  -0.545  0.00  0.00     0.221 HD
ENDBRANCH  28  31
BRANCH  28  33
HETATM   33  O   UNK N   1      20.752  20.146   3.726  0.00  0.00    -0.314 OA
HETATM   34  H   UNK N   1      20.774  20.733   4.499  0.00  0.00     0.221 HD
ENDBRANCH  28  33
ENDBRANCH  27  28
ENDBRANCH  26  27
ENDBRANCH   8  26
TORSDOF 18
ENDMDL
MODEL 5
REMARK VINA RESULT:      -5.8      7.216     11.181
REMARK  18 active torsions:
REMARK  status: ('A' for Active; 'I' for Inactive)
REMARK    1  A    between atoms: C_2  and  C_3 
REMARK    2  A    between atoms: C_3  and  C_4 
REMARK    3  A    between atoms: C_4  and  C_5 
REMARK    4  A    between atoms: C_5  and  C_6 
REMARK    5  A    between atoms: C_6  and  C_7 
REMARK    6  A    between atoms: C_7  and  C_8 
REMARK    7  A    between atoms: C_8  and  C_9 
REMARK    8  A    between atoms: C_9  and  C_10 
REMARK    9  A    between atoms: C_10  and  C_12 
REMARK   10  A    between atoms: C_12  and  N_13 
REMARK   11  A    between atoms: C_15  and  C_16 
REMARK   12  A    between atoms: C_17  and  O_18 
REMARK   13  A    between atoms: C_24  and  C_25 
REMARK   14  A    between atoms: C_25  and  O_26 
REMARK   15  A    between atoms: O_26  and  P_27 
REMARK   16  A    between atoms: P_27  and  O_28 
REMARK   17  A    between atoms: P_27  and  O_29 
REMARK   18  A    between atoms: P_27  and  O_30 
ROOT
HETATM    1  C   UNK N   1      22.101  16.979   4.398  0.00  0.00     0.024 A 
HETATM    2  C   UNK N   1      22.240  16.460   5.706  0.00  0.00     0.100 A 
HETATM    3  C   UNK N   1      21.096  16.085   6.421  0.00  0.00     0.039 A 
HETATM    4  C   UNK N   1      21.214  15.544   7.804  0.00  0.00     0.071 C 
HETATM    5  N   UNK N   1      19.868  16.207   5.855  0.00  0.00    -0.367 N 
ATOM      6  HN  UNK N   1      19.044  15.937   6.392  1.00  0.00     0.165 HD
HETATM    7  C   UNK N   1      19.710  16.680   4.593  0.00  0.00     0.098 A 
HETATM    8  C   UNK N   1      20.816  17.076   3.839  0.00  0.00    -0.004 A 
ENDROOT
BRANCH   1   9
HETATM    9  C   UNK N   1      23.275  17.393   3.604  0.00  0.00     0.098 C 
HETATM   10  N   UNK N   1      23.990  18.395   3.963  0.00  0.00    -0.391 N 
ATOM     11  HN  UNK N   1      23.671  18.997   4.722  1.00  0.00     0.159 HD
BRANCH  10  12
HETATM   12  C   UNK N   1      25.231  18.677   3.307  0.00  0.00     0.197 C 
BRANCH  12  13
HETATM   13  C   UNK N   1      25.326  20.154   3.149  0.00  0.00     0.144 C 
HETATM   14  O   UNK N   1      24.566  20.739   2.389  0.00  0.00    -0.296 OA
BRANCH  13  15
HETATM   15  C   UNK N   1      26.295  20.918   3.989  0.00  0.00     0.080 C 
BRANCH  15  16
HETATM   16  C   UNK N   1      26.424  20.362   5.400  0.00  0.00     0.007 C 
BRANCH  16  17
HETATM   17  C   UNK N   1      27.833  19.875   5.725  0.00  0.00     0.000 C 
BRANCH  17  18
HETATM   18  C   UNK N   1      27.951  19.481   7.194  0.00  0.00     0.000 C 
BRANCH  18  19
HETATM   19  C   UNK N   1      28.640  18.133   7.336  0.00  0.00     0.000 C 
BRANCH  19  20
HETATM   20  C   UNK N   1      27.711  17.020   6.906  0.00  0.00     0.000 C 
BRANCH  20  21
HETATM   21  C   UNK N   1      28.439  16.134   5.919  0.00  0.00    -0.000 C 
BRANCH  21  22
HETATM   22  C   UNK N   1      27.725  16.175   4.588  0.00  0.00    -0.005 C 
HETATM   23  C   UNK N   1      28.567  16.951   3.597  0.00  0.00     0.005 C 
ENDBRANCH  21  22
ENDBRANCH  20  21
ENDBRANCH  19  20
ENDBRANCH  18  19
ENDBRANCH  17  18
ENDBRANCH  16  17
ENDBRANCH  15  16
ENDBRANCH  13  15
ENDBRANCH  12  13
ENDBRANCH  10  12
ENDBRANCH   1   9
BRANCH   2  24
HETATM   24  O   UNK N   1      23.455  16.309   6.266  0.00  0.00    -0.358 OA
HETATM   25  H   UNK N   1      23.648  15.744   6.989  0.00  0.00     0.217 HD
ENDBRANCH   2  24
BRANCH   8  26
HETATM   26  C   UNK N   1      20.587  17.597   2.450  0.00  0.00     0.220 C 
BRANCH  26  27
HETATM   27  O   UNK N   1      19.693  18.679   2.456  0.00  0.00    -0.299 OA
BRANCH  27  28
HETATM   28  P   UNK N   1      20.699  20.135   2.424  0.00  0.00     0.376 P 
BRANCH  28  29
HETATM   29  O   UNK N   1      21.695  21.586   2.408  0.00  0.00    -0.314 OA
HETATM   30  H   UNK N   1      22.162  21.859   1.604  0.00  0.00     0.221 HD
ENDBRANCH  28  29
BRANCH  28  31
HETATM   31  O   UNK N   1      20.512  20.297   4.161  0.00  0.00    -0.314 OA
HETATM   32  H   UNK N   1      21.003  20.632   4.928  0.00  0.00     0.221 HD
ENDBRANCH  28  31
BRANCH  28  33
HETATM   33  O   UNK N   1      20.836  20.009   0.666  0.00  0.00    -0.314 OA
HETATM   34  H   UNK N   1      21.472  19.770  -0.027  0.00  0.00     0.221 HD
ENDBRANCH  28  33
ENDBRANCH  27  28
ENDBRANCH  26  27
ENDBRANCH   8  26
TORSDOF 18
ENDMDL
MODEL 6
REMARK VINA RESULT:      -5.7      9.943     12.770
REMARK  18 active torsions:
REMARK  status: ('A' for Active; 'I' for Inactive)
REMARK    1  A    between atoms: C_2  and  C_3 
REMARK    2  A    between atoms: C_3  and  C_4 
REMARK    3  A    between atoms: C_4  and  C_5 
REMARK    4  A    between atoms: C_5  and  C_6 
REMARK    5  A    between atoms: C_6  and  C_7 
REMARK    6  A    between atoms: C_7  and  C_8 
REMARK    7  A    between atoms: C_8  and  C_9 
REMARK    8  A    between atoms: C_9  and  C_10 
REMARK    9  A    between atoms: C_10  and  C_12 
REMARK   10  A    between atoms: C_12  and  N_13 
REMARK   11  A    between atoms: C_15  and  C_16 
REMARK   12  A    between atoms: C_17  and  O_18 
REMARK   13  A    between atoms: C_24  and  C_25 
REMARK   14  A    between atoms: C_25  and  O_26 
REMARK   15  A    between atoms: O_26  and  P_27 
REMARK   16  A    between atoms: P_27  and  O_28 
REMARK   17  A    between atoms: P_27  and  O_29 
REMARK   18  A    between atoms: P_27  and  O_30 
ROOT
HETATM    1  C   UNK N   1      20.251  15.641   3.003  0.00  0.00     0.024 A 
HETATM    2  C   UNK N   1      19.857  14.411   2.427  0.00  0.00     0.100 A 
HETATM    3  C   UNK N   1      19.326  14.398   1.131  0.00  0.00     0.039 A 
HETATM    4  C   UNK N   1      18.894  13.117   0.504  0.00  0.00     0.071 C 
HETATM    5  N   UNK N   1      19.205  15.556   0.433  0.00  0.00    -0.367 N 
ATOM      6  HN  UNK N   1      18.808  15.532  -0.507  1.00  0.00     0.165 HD
HETATM    7  C   UNK N   1      19.598  16.746   0.955  0.00  0.00     0.098 A 
HETATM    8  C   UNK N   1      20.126  16.816   2.245  0.00  0.00    -0.004 A 
ENDROOT
BRANCH   1   9
HETATM    9  C   UNK N   1      20.813  15.707   4.367  0.00  0.00     0.098 C 
HETATM   10  N   UNK N   1      20.062  15.554   5.394  0.00  0.00    -0.391 N 
ATOM     11  HN  UNK N   1      19.049  15.521   5.279  1.00  0.00     0.159 HD
BRANCH  10  12
HETATM   12  C   UNK N   1      20.633  15.426   6.701  0.00  0.00     0.197 C 
BRANCH  12  13
HETATM   13  C   UNK N   1      21.138  14.032   6.832  0.00  0.00     0.144 C 
HETATM   14  O   UNK N   1      20.375  13.131   7.151  0.00  0.00    -0.296 OA
BRANCH  13  15
HETATM   15  C   UNK N   1      22.560  13.734   6.485  0.00  0.00     0.080 C 
BRANCH  15  16
HETATM   16  C   UNK N   1      23.502  14.886   6.804  0.00  0.00     0.007 C 
BRANCH  16  17
HETATM   17  C   UNK N   1      24.907  14.426   7.180  0.00  0.00     0.000 C 
BRANCH  17  18
HETATM   18  C   UNK N   1      24.863  13.121   7.970  0.00  0.00     0.000 C 
BRANCH  18  19
HETATM   19  C   UNK N   1      25.137  13.375   9.443  0.00  0.00     0.000 C 
BRANCH  19  20
HETATM   20  C   UNK N   1      24.204  12.552  10.301  0.00  0.00     0.000 C 
BRANCH  20  21
HETATM   21  C   UNK N   1      22.807  13.121  10.182  0.00  0.00    -0.000 C 
BRANCH  21  22
HETATM   22  C   UNK N   1      21.801  11.994  10.241  0.00  0.00    -0.005 C 
HETATM   23  C   UNK N   1      20.740  12.330  11.269  0.00  0.00     0.005 C 
ENDBRANCH  21  22
ENDBRANCH  20  21
ENDBRANCH  19  20
ENDBRANCH  18  19
ENDBRANCH  17  18
ENDBRANCH  16  17
ENDBRANCH  15  16
ENDBRANCH  13  15
ENDBRANCH  12  13
ENDBRANCH  10  12
ENDBRANCH   1   9
BRANCH   2  24
HETATM   24  O   UNK N   1      19.999  13.254   3.100  0.00  0.00    -0.358 OA
HETATM   25  H   UNK N   1      19.880  13.150   4.024  0.00  0.00     0.217 HD
ENDBRANCH   2  24
BRANCH   8  26
HETATM   26  C   UNK N   1      20.540  18.157   2.777  0.00  0.00     0.220 C 
BRANCH  26  27
HETATM   27  O   UNK N   1      20.153  19.189   1.909  0.00  0.00    -0.299 OA
BRANCH  27  28
HETATM   28  P   UNK N   1      21.150  20.584   2.345  0.00  0.00     0.376 P 
BRANCH  28  29
HETATM   29  O   UNK N   1      22.133  21.975   2.793  0.00  0.00    -0.314 OA
HETATM   30  H   UNK N   1      23.089  21.885   2.926  0.00  0.00     0.221 HD
ENDBRANCH  28  29
BRANCH  28  31
HETATM   31  O   UNK N   1      20.491  20.542   3.970  0.00  0.00    -0.314 OA
HETATM   32  H   UNK N   1      19.786  20.099   4.470  0.00  0.00     0.221 HD
ENDBRANCH  28  31
BRANCH  28  33
HETATM   33  O   UNK N   1      21.767  20.668   0.690  0.00  0.00    -0.314 OA
HETATM   34  H   UNK N   1      21.467  20.811  -0.221  0.00  0.00     0.221 HD
ENDBRANCH  28  33
ENDBRANCH  27  28
ENDBRANCH  26  27
ENDBRANCH   8  26
TORSDOF 18
ENDMDL
MODEL 7
REMARK VINA RESULT:      -5.7      6.557     10.633
REMARK  18 active torsions:
REMARK  status: ('A' for Active; 'I' for Inactive)
REMARK    1  A    between atoms: C_2  and  C_3 
REMARK    2  A    between atoms: C_3  and  C_4 
REMARK    3  A    between atoms: C_4  and  C_5 
REMARK    4  A    between atoms: C_5  and  C_6 
REMARK    5  A    between atoms: C_6  and  C_7 
REMARK    6  A    between atoms: C_7  and  C_8 
REMARK    7  A    between atoms: C_8  and  C_9 
REMARK    8  A    between atoms: C_9  and  C_10 
REMARK    9  A    between atoms: C_10  and  C_12 
REMARK   10  A    between atoms: C_12  and  N_13 
REMARK   11  A    between atoms: C_15  and  C_16 
REMARK   12  A    between atoms: C_17  and  O_18 
REMARK   13  A    between atoms: C_24  and  C_25 
REMARK   14  A    between atoms: C_25  and  O_26 
REMARK   15  A    between atoms: O_26  and  P_27 
REMARK   16  A    between atoms: P_27  and  O_28 
REMARK   17  A    between atoms: P_27  and  O_29 
REMARK   18  A    between atoms: P_27  and  O_30 
ROOT
HETATM    1  C   UNK N   1      23.565  17.927   3.964  0.00  0.00     0.024 A 
HETATM    2  C   UNK N   1      24.155  16.642   3.946  0.00  0.00     0.100 A 
HETATM    3  C   UNK N   1      23.341  15.515   3.775  0.00  0.00     0.039 A 
HETATM    4  C   UNK N   1      23.936  14.149   3.760  0.00  0.00     0.071 C 
HETATM    5  N   UNK N   1      22.001  15.661   3.615  0.00  0.00    -0.367 N 
ATOM      6  HN  UNK N   1      21.420  14.830   3.500  1.00  0.00     0.165 HD
HETATM    7  C   UNK N   1      21.414  16.885   3.606  0.00  0.00     0.098 A 
HETATM    8  C   UNK N   1      22.178  18.040   3.780  0.00  0.00    -0.004 A 
ENDROOT
BRANCH   1   9
HETATM    9  C   UNK N   1      24.379  19.145   4.146  0.00  0.00     0.098 C 
HETATM   10  N   UNK N   1      25.200  19.247   5.125  0.00  0.00    -0.391 N 
ATOM     11  HN  UNK N   1      25.195  18.543   5.863  1.00  0.00     0.159 HD
BRANCH  10  12
HETATM   12  C   UNK N   1      26.124  20.339   5.192  0.00  0.00     0.197 C 
BRANCH  12  13
HETATM   13  C   UNK N   1      27.164  19.981   6.194  0.00  0.00     0.144 C 
HETATM   14  O   UNK N   1      27.060  20.365   7.351  0.00  0.00    -0.296 OA
BRANCH  13  15
HETATM   15  C   UNK N   1      28.286  19.080   5.793  0.00  0.00     0.080 C 
BRANCH  15  16
HETATM   16  C   UNK N   1      28.156  17.678   6.372  0.00  0.00     0.007 C 
BRANCH  16  17
HETATM   17  C   UNK N   1      28.765  17.547   7.765  0.00  0.00     0.000 C 
BRANCH  17  18
HETATM   18  C   UNK N   1      30.278  17.366   7.688  0.00  0.00     0.000 C 
BRANCH  18  19
HETATM   19  C   UNK N   1      30.657  16.518   6.484  0.00  0.00     0.000 C 
BRANCH  19  20
HETATM   20  C   UNK N   1      31.864  17.103   5.788  0.00  0.00     0.000 C 
BRANCH  20  21
HETATM   21  C   UNK N   1      31.461  17.530   4.394  0.00  0.00    -0.000 C 
BRANCH  21  22
HETATM   22  C   UNK N   1      32.610  17.281   3.443  0.00  0.00    -0.005 C 
HETATM   23  C   UNK N   1      32.814  15.789   3.292  0.00  0.00     0.005 C 
ENDBRANCH  21  22
ENDBRANCH  20  21
ENDBRANCH  19  20
ENDBRANCH  18  19
ENDBRANCH  17  18
ENDBRANCH  16  17
ENDBRANCH  15  16
ENDBRANCH  13  15
ENDBRANCH  12  13
ENDBRANCH  10  12
ENDBRANCH   1   9
BRANCH   2  24
HETATM   24  O   UNK N   1      25.486  16.488   4.075  0.00  0.00    -0.358 OA
HETATM   25  H   UNK N   1      26.122  16.748   3.437  0.00  0.00     0.217 HD
ENDBRANCH   2  24
BRANCH   8  26
HETATM   26  C   UNK N   1      21.480  19.368   3.767  0.00  0.00     0.220 C 
BRANCH  26  27
HETATM   27  O   UNK N   1      20.335  19.332   2.956  0.00  0.00    -0.299 OA
BRANCH  27  28
HETATM   28  P   UNK N   1      20.759  20.222   1.486  0.00  0.00     0.376 P 
BRANCH  28  29
HETATM   29  O   UNK N   1      21.179  21.094   0.016  0.00  0.00    -0.314 OA
HETATM   30  H   UNK N   1      22.100  21.151  -0.282  0.00  0.00     0.221 HD
ENDBRANCH  28  29
BRANCH  28  31
HETATM   31  O   UNK N   1      20.337  18.820   0.520  0.00  0.00    -0.314 OA
HETATM   32  H   UNK N   1      19.551  18.314   0.258  0.00  0.00     0.221 HD
ENDBRANCH  28  31
BRANCH  28  33
HETATM   33  O   UNK N   1      21.245  21.614   2.463  0.00  0.00    -0.314 OA
HETATM   34  H   UNK N   1      21.827  21.851   3.202  0.00  0.00     0.221 HD
ENDBRANCH  28  33
ENDBRANCH  27  28
ENDBRANCH  26  27
ENDBRANCH   8  26
TORSDOF 18
ENDMDL
MODEL 8
REMARK VINA RESULT:      -5.6      6.980     11.318
REMARK  18 active torsions:
REMARK  status: ('A' for Active; 'I' for Inactive)
REMARK    1  A    between atoms: C_2  and  C_3 
REMARK    2  A    between atoms: C_3  and  C_4 
REMARK    3  A    between atoms: C_4  and  C_5 
REMARK    4  A    between atoms: C_5  and  C_6 
REMARK    5  A    between atoms: C_6  and  C_7 
REMARK    6  A    between atoms: C_7  and  C_8 
REMARK    7  A    between atoms: C_8  and  C_9 
REMARK    8  A    between atoms: C_9  and  C_10 
REMARK    9  A    between atoms: C_10  and  C_12 
REMARK   10  A    between atoms: C_12  and  N_13 
REMARK   11  A    between atoms: C_15  and  C_16 
REMARK   12  A    between atoms: C_17  and  O_18 
REMARK   13  A    between atoms: C_24  and  C_25 
REMARK   14  A    between atoms: C_25  and  O_26 
REMARK   15  A    between atoms: O_26  and  P_27 
REMARK   16  A    between atoms: P_27  and  O_28 
REMARK   17  A    between atoms: P_27  and  O_29 
REMARK   18  A    between atoms: P_27  and  O_30 
ROOT
HETATM    1  C   UNK N   1      21.923  18.822   3.484  0.00  0.00     0.024 A 
HETATM    2  C   UNK N   1      21.784  19.998   2.712  0.00  0.00     0.100 A 
HETATM    3  C   UNK N   1      20.723  20.102   1.803  0.00  0.00     0.039 A 
HETATM    4  C   UNK N   1      20.559  21.327   0.971  0.00  0.00     0.071 C 
HETATM    5  N   UNK N   1      19.831  19.086   1.679  0.00  0.00    -0.367 N 
ATOM      6  HN  UNK N   1      19.069  19.173   1.007  1.00  0.00     0.165 HD
HETATM    7  C   UNK N   1      19.930  17.957   2.426  0.00  0.00     0.098 A 
HETATM    8  C   UNK N   1      20.973  17.799   3.340  0.00  0.00    -0.004 A 
ENDROOT
BRANCH   1   9
HETATM    9  C   UNK N   1      23.026  18.662   4.453  0.00  0.00     0.098 C 
HETATM   10  N   UNK N   1      24.244  18.841   4.095  0.00  0.00    -0.391 N 
ATOM     11  HN  UNK N   1      24.469  18.960   3.108  1.00  0.00     0.159 HD
BRANCH  10  12
HETATM   12  C   UNK N   1      25.292  18.876   5.071  0.00  0.00     0.197 C 
BRANCH  12  13
HETATM   13  C   UNK N   1      26.533  19.312   4.374  0.00  0.00     0.144 C 
HETATM   14  O   UNK N   1      26.471  20.117   3.455  0.00  0.00    -0.296 OA
BRANCH  13  15
HETATM   15  C   UNK N   1      27.857  18.824   4.865  0.00  0.00     0.080 C 
BRANCH  15  16
HETATM   16  C   UNK N   1      27.776  18.174   6.239  0.00  0.00     0.007 C 
BRANCH  16  17
HETATM   17  C   UNK N   1      28.558  18.933   7.308  0.00  0.00     0.000 C 
BRANCH  17  18
HETATM   18  C   UNK N   1      28.222  18.416   8.703  0.00  0.00     0.000 C 
BRANCH  18  19
HETATM   19  C   UNK N   1      29.489  18.158   9.500  0.00  0.00     0.000 C 
BRANCH  19  20
HETATM   20  C   UNK N   1      30.442  17.291   8.708  0.00  0.00     0.000 C 
BRANCH  20  21
HETATM   21  C   UNK N   1      31.753  18.029   8.551  0.00  0.00    -0.000 C 
BRANCH  21  22
HETATM   22  C   UNK N   1      32.459  17.537   7.308  0.00  0.00    -0.005 C 
HETATM   23  C   UNK N   1      33.946  17.784   7.451  0.00  0.00     0.005 C 
ENDBRANCH  21  22
ENDBRANCH  20  21
ENDBRANCH  19  20
ENDBRANCH  18  19
ENDBRANCH  17  18
ENDBRANCH  16  17
ENDBRANCH  15  16
ENDBRANCH  13  15
ENDBRANCH  12  13
ENDBRANCH  10  12
ENDBRANCH   1   9
BRANCH   2  24
HETATM   24  O   UNK N   1      22.646  21.023   2.848  0.00  0.00    -0.358 OA
HETATM   25  H   UNK N   1      23.397  21.023   3.410  0.00  0.00     0.217 HD
ENDBRANCH   2  24
BRANCH   8  26
HETATM   26  C   UNK N   1      21.039  16.529   4.137  0.00  0.00     0.220 C 
BRANCH  26  27
HETATM   27  O   UNK N   1      20.113  16.542   5.191  0.00  0.00    -0.299 OA
BRANCH  27  28
HETATM   28  P   UNK N   1      19.098  15.112   4.958  0.00  0.00     0.376 P 
BRANCH  28  29
HETATM   29  O   UNK N   1      18.076  13.695   4.737  0.00  0.00    -0.314 OA
HETATM   30  H   UNK N   1      17.452  13.643   3.998  0.00  0.00     0.221 HD
ENDBRANCH  28  29
BRANCH  28  31
HETATM   31  O   UNK N   1      17.783  15.912   5.801  0.00  0.00    -0.314 OA
HETATM   32  H   UNK N   1      17.106  16.588   5.639  0.00  0.00     0.221 HD
ENDBRANCH  28  31
BRANCH  28  33
HETATM   33  O   UNK N   1      20.441  14.280   4.165  0.00  0.00    -0.314 OA
HETATM   34  H   UNK N   1      20.662  13.437   3.739  0.00  0.00     0.221 HD
ENDBRANCH  28  33
ENDBRANCH  27  28
ENDBRANCH  26  27
ENDBRANCH   8  26
TORSDOF 18
ENDMDL
MODEL 9
REMARK VINA RESULT:      -5.6      8.842     11.574
REMARK  18 active torsions:
REMARK  status: ('A' for Active; 'I' for Inactive)
REMARK    1  A    between atoms: C_2  and  C_3 
REMARK    2  A    between atoms: C_3  and  C_4 
REMARK    3  A    between atoms: C_4  and  C_5 
REMARK    4  A    between atoms: C_5  and  C_6 
REMARK    5  A    between atoms: C_6  and  C_7 
REMARK    6  A    between atoms: C_7  and  C_8 
REMARK    7  A    between atoms: C_8  and  C_9 
REMARK    8  A    between atoms: C_9  and  C_10 
REMARK    9  A    between atoms: C_10  and  C_12 
REMARK   10  A    between atoms: C_12  and  N_13 
REMARK   11  A    between atoms: C_15  and  C_16 
REMARK   12  A    between atoms: C_17  and  O_18 
REMARK   13  A    between atoms: C_24  and  C_25 
REMARK   14  A    between atoms: C_25  and  O_26 
REMARK   15  A    between atoms: O_26  and  P_27 
REMARK   16  A    between atoms: P_27  and  O_28 
REMARK   17  A    between atoms: P_27  and  O_29 
REMARK   18  A    between atoms: P_27  and  O_30 
ROOT
HETATM    1  C   UNK N   1      21.999  16.533   4.342  0.00  0.00     0.024 A 
HETATM    2  C   UNK N   1      21.816  15.581   5.371  0.00  0.00     0.100 A 
HETATM    3  C   UNK N   1      21.442  16.015   6.650  0.00  0.00     0.039 A 
HETATM    4  C   UNK N   1      21.252  15.034   7.754  0.00  0.00     0.071 C 
HETATM    5  N   UNK N   1      21.244  17.337   6.889  0.00  0.00    -0.367 N 
ATOM      6  HN  UNK N   1      20.980  17.638   7.827  1.00  0.00     0.165 HD
HETATM    7  C   UNK N   1      21.390  18.267   5.911  0.00  0.00     0.098 A 
HETATM    8  C   UNK N   1      21.770  17.889   4.622  0.00  0.00    -0.004 A 
ENDROOT
BRANCH   1   9
HETATM    9  C   UNK N   1      22.397  16.126   2.979  0.00  0.00     0.098 C 
HETATM   10  N   UNK N   1      21.956  15.039   2.463  0.00  0.00    -0.391 N 
ATOM     11  HN  UNK N   1      21.436  14.379   3.042  1.00  0.00     0.159 HD
BRANCH  10  12
HETATM   12  C   UNK N   1      22.185  14.743   1.081  0.00  0.00     0.197 C 
BRANCH  12  13
HETATM   13  C   UNK N   1      23.308  13.768   1.016  0.00  0.00     0.144 C 
HETATM   14  O   UNK N   1      23.566  13.200  -0.037  0.00  0.00    -0.296 OA
BRANCH  13  15
HETATM   15  C   UNK N   1      24.165  13.557   2.221  0.00  0.00     0.080 C 
BRANCH  15  16
HETATM   16  C   UNK N   1      25.623  13.924   1.983  0.00  0.00     0.007 C 
BRANCH  16  17
HETATM   17  C   UNK N   1      25.830  15.411   1.713  0.00  0.00     0.000 C 
BRANCH  17  18
HETATM   18  C   UNK N   1      26.749  16.035   2.758  0.00  0.00     0.000 C 
BRANCH  18  19
HETATM   19  C   UNK N   1      25.971  16.393   4.013  0.00  0.00     0.000 C 
BRANCH  19  20
HETATM   20  C   UNK N   1      25.515  17.833   3.958  0.00  0.00     0.000 C 
BRANCH  20  21
HETATM   21  C   UNK N   1      26.728  18.720   3.783  0.00  0.00    -0.000 C 
BRANCH  21  22
HETATM   22  C   UNK N   1      26.295  20.168   3.799  0.00  0.00    -0.005 C 
HETATM   23  C   UNK N   1      25.318  20.406   2.667  0.00  0.00     0.005 C 
ENDBRANCH  21  22
ENDBRANCH  20  21
ENDBRANCH  19  20
ENDBRANCH  18  19
ENDBRANCH  17  18
ENDBRANCH  16  17
ENDBRANCH  15  16
ENDBRANCH  13  15
ENDBRANCH  12  13
ENDBRANCH  10  12
ENDBRANCH   1   9
BRANCH   2  24
HETATM   24  O   UNK N   1      21.983  14.266   5.137  0.00  0.00    -0.358 OA
HETATM   25  H   UNK N   1      21.839  13.844   4.313  0.00  0.00     0.217 HD
ENDBRANCH   2  24
BRANCH   8  26
HETATM   26  C   UNK N   1      21.922  18.958   3.579  0.00  0.00     0.220 C 
BRANCH  26  27
HETATM   27  O   UNK N   1      20.719  19.654   3.387  0.00  0.00    -0.299 OA
BRANCH  27  28
HETATM   28  P   UNK N   1      20.693  20.105   1.676  0.00  0.00     0.376 P 
BRANCH  28  29
HETATM   29  O   UNK N   1      20.667  20.570  -0.022  0.00  0.00    -0.314 OA
HETATM   30  H   UNK N   1      21.489  20.636  -0.531  0.00  0.00     0.221 HD
ENDBRANCH  28  29
BRANCH  28  31
HETATM   31  O   UNK N   1      21.150  21.744   2.105  0.00  0.00    -0.314 OA
HETATM   32  H   UNK N   1      21.026  22.379   2.828  0.00  0.00     0.221 HD
ENDBRANCH  28  31
BRANCH  28  33
HETATM   33  O   UNK N   1      20.169  18.472   1.247  0.00  0.00    -0.314 OA
HETATM   34  H   UNK N   1      19.924  17.935   0.477  0.00  0.00     0.221 HD
ENDBRANCH  28  33
ENDBRANCH  27  28
ENDBRANCH  26  27
ENDBRANCH   8  26
TORSDOF 18
ENDMDL
