REMARK  18 active torsions:
REMARK  status: ('A' for Active; 'I' for Inactive)
REMARK    1  A    between atoms: C_2  and  C_3 
REMARK    2  A    between atoms: C_3  and  C_4 
REMARK    3  A    between atoms: C_4  and  C_5 
REMARK    4  A    between atoms: C_5  and  C_6 
REMARK    5  A    between atoms: C_6  and  C_7 
REMARK    6  A    between atoms: C_7  and  C_8 
REMARK    7  A    between atoms: C_8  and  C_9 
REMARK    8  A    between atoms: C_9  and  C_10 
REMARK    9  A    between atoms: C_10  and  C_12 
REMARK   10  A    between atoms: C_12  and  N_13 
REMARK   11  A    between atoms: C_15  and  C_16 
REMARK   12  A    between atoms: C_17  and  O_18 
REMARK   13  A    between atoms: C_24  and  C_25 
REMARK   14  A    between atoms: C_25  and  O_26 
REMARK   15  A    between atoms: O_26  and  P_27 
REMARK   16  A    between atoms: P_27  and  O_28 
REMARK   17  A    between atoms: P_27  and  O_29 
REMARK   18  A    between atoms: P_27  and  O_30 
ROOT
HETATM    1  C   UNK N   1       4.198   0.583  -0.148  0.00  0.00     0.024 A 
HETATM    2  C   UNK N   1       4.178   1.974   0.104  0.00  0.00     0.100 A 
HETATM    3  C   UNK N   1       5.306   2.745  -0.205  0.00  0.00     0.039 A 
HETATM    4  C   UNK N   1       5.314   4.211   0.059  0.00  0.00     0.071 C 
HETATM    5  N   UNK N   1       6.401   2.159  -0.754  0.00  0.00    -0.367 N 
ATOM      6  HN  UNK N   1       7.218   2.732  -0.966  1.00  0.00     0.165 HD
HETATM    7  C   UNK N   1       6.436   0.830  -1.027  0.00  0.00     0.098 A 
HETATM    8  C   UNK N   1       5.342   0.015  -0.731  0.00  0.00    -0.004 A 
ENDROOT
BRANCH   1   9
HETATM    9  C   UNK N   1       3.036  -0.273   0.164  0.00  0.00     0.098 C 
HETATM   10  N   UNK N   1       2.103   0.143   0.938  0.00  0.00    -0.391 N 
ATOM     11  HN  UNK N   1       2.225   1.015   1.453  1.00  0.00     0.159 HD
BRANCH  10  12
HETATM   12  C   UNK N   1       0.891  -0.605   1.086  0.00  0.00     0.197 C 
BRANCH  12  13
HETATM   13  C   UNK N   1      -0.037  -0.166   0.008  0.00  0.00     0.144 C 
HETATM   14  O   UNK N   1      -0.383   1.005  -0.064  0.00  0.00    -0.296 OA
BRANCH  13  15
HETATM   15  C   UNK N   1      -0.469  -1.149  -1.030  0.00  0.00     0.080 C 
BRANCH  15  16
HETATM   16  C   UNK N   1      -1.981  -1.212  -1.194  0.00  0.00     0.007 C 
BRANCH  16  17
HETATM   17  C   UNK N   1      -2.716  -1.469   0.118  0.00  0.00     0.000 C 
BRANCH  17  18
HETATM   18  C   UNK N   1      -3.235  -0.167   0.720  0.00  0.00     0.000 C 
BRANCH  18  19
HETATM   19  C   UNK N   1      -4.139   0.557  -0.264  0.00  0.00     0.000 C 
BRANCH  19  20
HETATM   20  C   UNK N   1      -5.450   0.920   0.395  0.00  0.00     0.000 C 
BRANCH  20  21
HETATM   21  C   UNK N   1      -6.578   0.272  -0.378  0.00  0.00    -0.000 C 
BRANCH  21  22
HETATM   22  C   UNK N   1      -7.885   0.522   0.339  0.00  0.00    -0.005 C 
HETATM   23  C   UNK N   1      -8.854  -0.593   0.006  0.00  0.00     0.005 C 
ENDBRANCH  21  22
ENDBRANCH  20  21
ENDBRANCH  19  20
ENDBRANCH  18  19
ENDBRANCH  17  18
ENDBRANCH  16  17
ENDBRANCH  15  16
ENDBRANCH  13  15
ENDBRANCH  12  13
ENDBRANCH  10  12
ENDBRANCH   1   9
BRANCH   2  24
HETATM   24  O   UNK N   1       3.087   2.569   0.622  0.00  0.00    -0.358 OA
HETATM   25  H   UNK N   1       3.066   3.434   0.983  0.00  0.00     0.217 HD
ENDBRANCH   2  24
BRANCH   8  26
HETATM   26  C   UNK N   1       5.434  -1.449  -1.048  0.00  0.00     0.220 C 
BRANCH  26  27
HETATM   27  O   UNK N   1       5.670  -2.205   0.110  0.00  0.00    -0.299 OA
BRANCH  27  28
HETATM   28  P   UNK N   1       7.414  -2.114   0.397  0.00  0.00     0.376 P 
BRANCH  28  29
HETATM   29  O   UNK N   1       9.151  -2.037   0.673  0.00  0.00    -0.314 OA
HETATM   30  H   UNK N   1       9.666  -2.844   0.825  0.00  0.00     0.221 HD
ENDBRANCH  28  29
BRANCH  28  31
HETATM   31  O   UNK N   1       7.680  -3.300  -0.868  0.00  0.00    -0.314 OA
HETATM   32  H   UNK N   1       7.186  -3.756  -1.568  0.00  0.00     0.221 HD
ENDBRANCH  28  31
BRANCH  28  33
HETATM   33  O   UNK N   1       7.143  -0.967   1.715  0.00  0.00    -0.314 OA
HETATM   34  H   UNK N   1       7.613  -0.524   2.439  0.00  0.00     0.221 HD
ENDBRANCH  28  33
ENDBRANCH  27  28
ENDBRANCH  26  27
ENDBRANCH   8  26
TORSDOF 18
