MODEL 1
REMARK VINA RESULT:      -7.6      0.000      0.000
REMARK  5 active torsions:
REMARK  status: ('A' for Active; 'I' for Inactive)
REMARK    1  A    between atoms: C_2  and  C_7 
REMARK    2  A    between atoms: O_10  and  C_20 
REMARK       I    between atoms: C_17  and  N_18 
REMARK    3  A    between atoms: C_17  and  C_21 
REMARK    4  A    between atoms: N_18  and  C_19 
REMARK    5  A    between atoms: C_19  and  C_20 
ROOT
HETATM    1  C   UNK N   1      21.658  14.695   7.933  0.00  0.00     0.044 A 
HETATM    2  C   UNK N   1      22.223  13.415   8.132  0.00  0.00    -0.005 A 
HETATM    3  C   UNK N   1      22.628  12.701   6.940  0.00  0.00     0.060 A 
HETATM    4  C   UNK N   1      22.484  13.274   5.673  0.00  0.00     0.062 A 
HETATM    5  C   UNK N   1      22.964  12.355   4.757  0.00  0.00     0.260 A 
HETATM    6  C   UNK N   1      23.180  11.435   6.704  0.00  0.00     0.260 A 
HETATM    7  O   UNK N   1      23.008  12.498   3.550  0.00  0.00    -0.267 OA
HETATM    8  O   UNK N   1      23.434  10.585   7.533  0.00  0.00    -0.267 OA
HETATM    9  N   UNK N   1      23.387  11.227   5.376  0.00  0.00    -0.289 N 
HETATM   10  C   UNK N   1      21.052  16.529   4.980  0.00  0.00     0.121 A 
HETATM   11  C   UNK N   1      21.643  15.375   4.441  0.00  0.00     0.057 A 
HETATM   12 Br   UNK N   1      21.968  15.029   2.581  0.00  0.00    -0.047 Br
HETATM   13  N   UNK N   1      20.993  16.418   6.330  0.00  0.00    -0.345 N 
HETATM   14  C   UNK N   1      20.454  17.383   7.279  0.00  0.00     0.156 C 
HETATM   15  C   UNK N   1      21.521  15.224   6.651  0.00  0.00     0.048 A 
HETATM   16  C   UNK N   1      21.927  14.550   5.528  0.00  0.00     0.027 A 
HETATM   17  H   UNK N   1      23.768  10.423   4.953  0.00  0.00     0.172 HD
ENDROOT
BRANCH  10  18
HETATM   18  C   UNK N   1      20.539  17.697   4.214  0.00  0.00     0.269 C 
HETATM   19  O   UNK N   1      19.544  17.581   3.514  0.00  0.00    -0.266 OA
HETATM   20  N   UNK N   1      21.190  18.882   4.275  0.00  0.00    -0.354 N 
HETATM   21  H   UNK N   1      21.974  18.959   4.865  0.00  0.00     0.162 HD
BRANCH  20  22
HETATM   22  C   UNK N   1      20.780  20.034   3.513  0.00  0.00     0.149 C 
BRANCH  22  23
HETATM   23  C   UNK N   1      21.892  20.435   2.561  0.00  0.00     0.183 C 
BRANCH  23  24
HETATM   24  O   UNK N   1      22.289  21.750   2.803  0.00  0.00    -0.399 OA
HETATM   25  H   UNK N   1      22.260  22.606   2.346  0.00  0.00     0.209 HD
ENDBRANCH  23  24
ENDBRANCH  22  23
ENDBRANCH  20  22
ENDBRANCH  10  18
BRANCH   2  26
HETATM   26  C   UNK N   1      22.402  12.928   9.557  0.00  0.00    -0.003 A 
HETATM   27  C   UNK N   1      23.681  12.784  10.196  0.00  0.00     0.045 A 
HETATM   28  C   UNK N   1      23.756  12.281  11.500  0.00  0.00     0.024 A 
HETATM   29 Cl   UNK N   1      25.226  13.218   9.469  0.00  0.00    -0.083 Cl
HETATM   30  C   UNK N   1      22.610  11.910  12.194  0.00  0.00     0.002 A 
HETATM   31  C   UNK N   1      21.367  12.045  11.591  0.00  0.00     0.001 A 
HETATM   32  C   UNK N   1      21.273  12.543  10.293  0.00  0.00     0.014 A 
ENDBRANCH   2  26
TORSDOF 5
ENDMDL
MODEL 2
REMARK VINA RESULT:      -7.6      7.222      7.871
REMARK  5 active torsions:
REMARK  status: ('A' for Active; 'I' for Inactive)
REMARK    1  A    between atoms: C_2  and  C_7 
REMARK    2  A    between atoms: O_10  and  C_20 
REMARK       I    between atoms: C_17  and  N_18 
REMARK    3  A    between atoms: C_17  and  C_21 
REMARK    4  A    between atoms: N_18  and  C_19 
REMARK    5  A    between atoms: C_19  and  C_20 
ROOT
HETATM    1  C   UNK N   1      29.083  17.686   5.992  0.00  0.00     0.044 A 
HETATM    2  C   UNK N   1      30.099  16.705   6.039  0.00  0.00    -0.005 A 
HETATM    3  C   UNK N   1      29.736  15.384   5.574  0.00  0.00     0.060 A 
HETATM    4  C   UNK N   1      28.454  15.119   5.085  0.00  0.00     0.062 A 
HETATM    5  C   UNK N   1      28.428  13.785   4.718  0.00  0.00     0.260 A 
HETATM    6  C   UNK N   1      30.416  14.161   5.489  0.00  0.00     0.260 A 
HETATM    7  O   UNK N   1      27.482  13.188   4.243  0.00  0.00    -0.267 OA
HETATM    8  O   UNK N   1      31.553  13.933   5.848  0.00  0.00    -0.267 OA
HETATM    9  N   UNK N   1      29.620  13.190   4.965  0.00  0.00    -0.289 N 
HETATM   10  C   UNK N   1      25.732  17.502   4.901  0.00  0.00     0.121 A 
HETATM   11  C   UNK N   1      26.151  16.188   4.645  0.00  0.00     0.057 A 
HETATM   12 Br   UNK N   1      25.079  14.780   3.900  0.00  0.00    -0.047 Br
HETATM   13  N   UNK N   1      26.764  18.212   5.422  0.00  0.00    -0.345 N 
HETATM   14  C   UNK N   1      26.764  19.609   5.834  0.00  0.00     0.156 C 
HETATM   15  C   UNK N   1      27.813  17.377   5.508  0.00  0.00     0.048 A 
HETATM   16  C   UNK N   1      27.484  16.127   5.049  0.00  0.00     0.027 A 
HETATM   17  H   UNK N   1      29.862  12.250   4.798  0.00  0.00     0.172 HD
ENDROOT
BRANCH  10  18
HETATM   18  C   UNK N   1      24.371  18.055   4.670  0.00  0.00     0.269 C 
HETATM   19  O   UNK N   1      24.163  18.797   3.721  0.00  0.00    -0.266 OA
HETATM   20  N   UNK N   1      23.366  17.754   5.526  0.00  0.00    -0.354 N 
HETATM   21  H   UNK N   1      23.549  17.135   6.269  0.00  0.00     0.162 HD
BRANCH  20  22
HETATM   22  C   UNK N   1      22.041  18.303   5.393  0.00  0.00     0.149 C 
BRANCH  22  23
HETATM   23  C   UNK N   1      21.173  17.816   6.540  0.00  0.00     0.183 C 
BRANCH  23  24
HETATM   24  O   UNK N   1      20.861  18.874   7.396  0.00  0.00    -0.399 OA
HETATM   25  H   UNK N   1      21.062  19.820   7.473  0.00  0.00     0.209 HD
ENDBRANCH  23  24
ENDBRANCH  22  23
ENDBRANCH  20  22
ENDBRANCH  10  18
BRANCH   2  26
HETATM   26  C   UNK N   1      31.476  17.127   6.517  0.00  0.00    -0.003 A 
HETATM   27  C   UNK N   1      32.609  17.279   5.647  0.00  0.00     0.045 A 
HETATM   28  C   UNK N   1      33.856  17.626   6.180  0.00  0.00     0.024 A 
HETATM   29 Cl   UNK N   1      32.571  17.084   3.896  0.00  0.00    -0.083 Cl
HETATM   30  C   UNK N   1      34.023  17.822   7.547  0.00  0.00     0.002 A 
HETATM   31  C   UNK N   1      32.937  17.679   8.400  0.00  0.00     0.001 A 
HETATM   32  C   UNK N   1      31.688  17.334   7.886  0.00  0.00     0.014 A 
ENDBRANCH   2  26
TORSDOF 5
ENDMDL
MODEL 3
REMARK VINA RESULT:      -7.4      9.452     11.133
REMARK  5 active torsions:
REMARK  status: ('A' for Active; 'I' for Inactive)
REMARK    1  A    between atoms: C_2  and  C_7 
REMARK    2  A    between atoms: O_10  and  C_20 
REMARK       I    between atoms: C_17  and  N_18 
REMARK    3  A    between atoms: C_17  and  C_21 
REMARK    4  A    between atoms: N_18  and  C_19 
REMARK    5  A    between atoms: C_19  and  C_20 
ROOT
HETATM    1  C   UNK N   1      29.450  17.407   6.557  0.00  0.00     0.044 A 
HETATM    2  C   UNK N   1      28.846  16.911   5.381  0.00  0.00    -0.005 A 
HETATM    3  C   UNK N   1      29.705  16.166   4.485  0.00  0.00     0.060 A 
HETATM    4  C   UNK N   1      31.048  15.938   4.797  0.00  0.00     0.062 A 
HETATM    5  C   UNK N   1      31.586  15.200   3.758  0.00  0.00     0.260 A 
HETATM    6  C   UNK N   1      29.515  15.554   3.238  0.00  0.00     0.260 A 
HETATM    7  O   UNK N   1      32.733  14.806   3.674  0.00  0.00    -0.267 OA
HETATM    8  O   UNK N   1      28.495  15.546   2.579  0.00  0.00    -0.267 OA
HETATM    9  N   UNK N   1      30.659  14.964   2.799  0.00  0.00    -0.289 N 
HETATM   10  C   UNK N   1      32.759  17.140   7.756  0.00  0.00     0.121 A 
HETATM   11  C   UNK N   1      32.864  16.405   6.566  0.00  0.00     0.057 A 
HETATM   12 Br   UNK N   1      34.445  15.544   5.899  0.00  0.00    -0.047 Br
HETATM   13  N   UNK N   1      31.487  17.591   7.897  0.00  0.00    -0.345 N 
HETATM   14  C   UNK N   1      30.946  18.397   8.984  0.00  0.00     0.156 C 
HETATM   15  C   UNK N   1      30.797  17.168   6.826  0.00  0.00     0.048 A 
HETATM   16  C   UNK N   1      31.598  16.443   5.981  0.00  0.00     0.027 A 
HETATM   17  H   UNK N   1      30.786  14.467   1.958  0.00  0.00     0.172 HD
ENDROOT
BRANCH  10  18
HETATM   18  C   UNK N   1      33.856  17.419   8.720  0.00  0.00     0.269 C 
HETATM   19  O   UNK N   1      34.593  18.380   8.549  0.00  0.00    -0.266 OA
HETATM   20  N   UNK N   1      34.053  16.595   9.776  0.00  0.00    -0.354 N 
HETATM   21  H   UNK N   1      33.433  15.842   9.908  0.00  0.00     0.162 HD
BRANCH  20  22
HETATM   22  C   UNK N   1      35.133  16.775  10.712  0.00  0.00     0.149 C 
BRANCH  22  23
HETATM   23  C   UNK N   1      35.901  15.473  10.858  0.00  0.00     0.183 C 
BRANCH  23  24
HETATM   24  O   UNK N   1      37.267  15.691  10.671  0.00  0.00    -0.399 OA
HETATM   25  H   UNK N   1      38.056  15.820  11.220  0.00  0.00     0.209 HD
ENDBRANCH  23  24
ENDBRANCH  22  23
ENDBRANCH  20  22
ENDBRANCH  10  18
BRANCH   2  26
HETATM   26  C   UNK N   1      27.362  17.153   5.184  0.00  0.00    -0.003 A 
HETATM   27  C   UNK N   1      26.812  18.392   4.709  0.00  0.00     0.045 A 
HETATM   28  C   UNK N   1      25.424  18.544   4.603  0.00  0.00     0.024 A 
HETATM   29 Cl   UNK N   1      27.760  19.789   4.205  0.00  0.00    -0.083 Cl
HETATM   30  C   UNK N   1      24.560  17.513   4.957  0.00  0.00     0.002 A 
HETATM   31  C   UNK N   1      25.076  16.310   5.417  0.00  0.00     0.001 A 
HETATM   32  C   UNK N   1      26.455  16.141   5.529  0.00  0.00     0.014 A 
ENDBRANCH   2  26
TORSDOF 5
ENDMDL
MODEL 4
REMARK VINA RESULT:      -7.3     13.297     15.121
REMARK  5 active torsions:
REMARK  status: ('A' for Active; 'I' for Inactive)
REMARK    1  A    between atoms: C_2  and  C_7 
REMARK    2  A    between atoms: O_10  and  C_20 
REMARK       I    between atoms: C_17  and  N_18 
REMARK    3  A    between atoms: C_17  and  C_21 
REMARK    4  A    between atoms: N_18  and  C_19 
REMARK    5  A    between atoms: C_19  and  C_20 
ROOT
HETATM    1  C   UNK N   1      35.909  14.594  12.538  0.00  0.00     0.044 A 
HETATM    2  C   UNK N   1      36.411  13.677  13.488  0.00  0.00    -0.005 A 
HETATM    3  C   UNK N   1      36.929  12.431  12.964  0.00  0.00     0.060 A 
HETATM    4  C   UNK N   1      36.946  12.179  11.589  0.00  0.00     0.062 A 
HETATM    5  C   UNK N   1      37.500  10.923  11.415  0.00  0.00     0.260 A 
HETATM    6  C   UNK N   1      37.468  11.277  13.550  0.00  0.00     0.260 A 
HETATM    7  O   UNK N   1      37.684  10.360  10.353  0.00  0.00    -0.267 OA
HETATM    8  O   UNK N   1      37.602  11.058  14.737  0.00  0.00    -0.267 OA
HETATM    9  N   UNK N   1      37.818  10.363  12.606  0.00  0.00    -0.289 N 
HETATM   10  C   UNK N   1      35.694  14.406   9.021  0.00  0.00     0.121 A 
HETATM   11  C   UNK N   1      36.309  13.176   9.300  0.00  0.00     0.057 A 
HETATM   12 Br   UNK N   1      36.833  11.851   8.013  0.00  0.00    -0.047 Br
HETATM   13  N   UNK N   1      35.480  15.077  10.180  0.00  0.00    -0.345 N 
HETATM   14  C   UNK N   1      34.863  16.387  10.348  0.00  0.00     0.156 C 
HETATM   15  C   UNK N   1      35.934  14.299  11.177  0.00  0.00     0.048 A 
HETATM   16  C   UNK N   1      36.445  13.124  10.687  0.00  0.00     0.027 A 
HETATM   17  H   UNK N   1      38.222   9.477  12.758  0.00  0.00     0.172 HD
ENDROOT
BRANCH  10  18
HETATM   18  C   UNK N   1      35.305  14.913   7.678  0.00  0.00     0.269 C 
HETATM   19  O   UNK N   1      36.165  15.221   6.866  0.00  0.00    -0.266 OA
HETATM   20  N   UNK N   1      33.996  15.056   7.364  0.00  0.00    -0.354 N 
HETATM   21  H   UNK N   1      33.320  14.778   8.023  0.00  0.00     0.162 HD
BRANCH  20  22
HETATM   22  C   UNK N   1      33.553  15.596   6.104  0.00  0.00     0.149 C 
BRANCH  22  23
HETATM   23  C   UNK N   1      33.218  17.067   6.272  0.00  0.00     0.183 C 
BRANCH  23  24
HETATM   24  O   UNK N   1      34.387  17.826   6.350  0.00  0.00    -0.399 OA
HETATM   25  H   UNK N   1      34.653  18.752   6.233  0.00  0.00     0.209 HD
ENDBRANCH  23  24
ENDBRANCH  22  23
ENDBRANCH  20  22
ENDBRANCH  10  18
BRANCH   2  26
HETATM   26  C   UNK N   1      36.414  14.090  14.947  0.00  0.00    -0.003 A 
HETATM   27  C   UNK N   1      35.568  13.497  15.946  0.00  0.00     0.045 A 
HETATM   28  C   UNK N   1      35.602  13.974  17.261  0.00  0.00     0.024 A 
HETATM   29 Cl   UNK N   1      34.462  12.155  15.663  0.00  0.00    -0.083 Cl
HETATM   30  C   UNK N   1      36.441  15.022  17.624  0.00  0.00     0.002 A 
HETATM   31  C   UNK N   1      37.264  15.605  16.671  0.00  0.00     0.001 A 
HETATM   32  C   UNK N   1      37.243  15.144  15.356  0.00  0.00     0.014 A 
ENDBRANCH   2  26
TORSDOF 5
ENDMDL
MODEL 5
REMARK VINA RESULT:      -7.3      9.050      9.541
REMARK  5 active torsions:
REMARK  status: ('A' for Active; 'I' for Inactive)
REMARK    1  A    between atoms: C_2  and  C_7 
REMARK    2  A    between atoms: O_10  and  C_20 
REMARK       I    between atoms: C_17  and  N_18 
REMARK    3  A    between atoms: C_17  and  C_21 
REMARK    4  A    between atoms: N_18  and  C_19 
REMARK    5  A    between atoms: C_19  and  C_20 
ROOT
HETATM    1  C   UNK N   1      31.197  16.918   8.044  0.00  0.00     0.044 A 
HETATM    2  C   UNK N   1      32.390  16.186   7.856  0.00  0.00    -0.005 A 
HETATM    3  C   UNK N   1      32.587  15.607   6.544  0.00  0.00     0.060 A 
HETATM    4  C   UNK N   1      31.648  15.795   5.526  0.00  0.00     0.062 A 
HETATM    5  C   UNK N   1      32.124  15.131   4.409  0.00  0.00     0.260 A 
HETATM    6  C   UNK N   1      33.585  14.806   5.973  0.00  0.00     0.260 A 
HETATM    7  O   UNK N   1      31.582  15.071   3.323  0.00  0.00    -0.267 OA
HETATM    8  O   UNK N   1      34.576  14.373   6.526  0.00  0.00    -0.267 OA
HETATM    9  N   UNK N   1      33.305  14.520   4.674  0.00  0.00    -0.289 N 
HETATM   10  C   UNK N   1      28.539  17.628   5.834  0.00  0.00     0.121 A 
HETATM   11  C   UNK N   1      29.379  16.891   4.986  0.00  0.00     0.057 A 
HETATM   12 Br   UNK N   1      29.042  16.463   3.145  0.00  0.00    -0.047 Br
HETATM   13  N   UNK N   1      29.111  17.731   7.059  0.00  0.00    -0.345 N 
HETATM   14  C   UNK N   1      28.579  18.407   8.235  0.00  0.00     0.156 C 
HETATM   15  C   UNK N   1      30.281  17.071   7.005  0.00  0.00     0.048 A 
HETATM   16  C   UNK N   1      30.485  16.537   5.759  0.00  0.00     0.027 A 
HETATM   17  H   UNK N   1      33.848  13.982   4.053  0.00  0.00     0.172 HD
ENDROOT
BRANCH  10  18
HETATM   18  C   UNK N   1      27.211  18.199   5.482  0.00  0.00     0.269 C 
HETATM   19  O   UNK N   1      26.204  17.514   5.579  0.00  0.00    -0.266 OA
HETATM   20  N   UNK N   1      27.123  19.472   5.030  0.00  0.00    -0.354 N 
HETATM   21  H   UNK N   1      27.944  20.014   4.984  0.00  0.00     0.162 HD
BRANCH  20  22
HETATM   22  C   UNK N   1      25.878  20.066   4.617  0.00  0.00     0.149 C 
BRANCH  22  23
HETATM   23  C   UNK N   1      25.650  19.793   3.140  0.00  0.00     0.183 C 
BRANCH  23  24
HETATM   24  O   UNK N   1      25.844  20.956   2.395  0.00  0.00    -0.399 OA
HETATM   25  H   UNK N   1      25.310  21.566   1.862  0.00  0.00     0.209 HD
ENDBRANCH  23  24
ENDBRANCH  22  23
ENDBRANCH  20  22
ENDBRANCH  10  18
BRANCH   2  26
HETATM   26  C   UNK N   1      33.373  16.115   9.009  0.00  0.00    -0.003 A 
HETATM   27  C   UNK N   1      34.414  17.080   9.231  0.00  0.00     0.045 A 
HETATM   28  C   UNK N   1      35.307  16.910  10.295  0.00  0.00     0.024 A 
HETATM   29 Cl   UNK N   1      34.669  18.530   8.262  0.00  0.00    -0.083 Cl
HETATM   30  C   UNK N   1      35.211  15.814  11.146  0.00  0.00     0.002 A 
HETATM   31  C   UNK N   1      34.210  14.874  10.945  0.00  0.00     0.001 A 
HETATM   32  C   UNK N   1      33.312  15.026   9.890  0.00  0.00     0.014 A 
ENDBRANCH   2  26
TORSDOF 5
ENDMDL
MODEL 6
REMARK VINA RESULT:      -7.2     16.483     17.884
REMARK  5 active torsions:
REMARK  status: ('A' for Active; 'I' for Inactive)
REMARK    1  A    between atoms: C_2  and  C_7 
REMARK    2  A    between atoms: O_10  and  C_20 
REMARK       I    between atoms: C_17  and  N_18 
REMARK    3  A    between atoms: C_17  and  C_21 
REMARK    4  A    between atoms: N_18  and  C_19 
REMARK    5  A    between atoms: C_19  and  C_20 
ROOT
HETATM    1  C   UNK N   1      28.963  24.098  -4.994  0.00  0.00     0.044 A 
HETATM    2  C   UNK N   1      27.738  24.536  -5.544  0.00  0.00    -0.005 A 
HETATM    3  C   UNK N   1      27.141  23.675  -6.543  0.00  0.00     0.060 A 
HETATM    4  C   UNK N   1      27.746  22.469  -6.910  0.00  0.00     0.062 A 
HETATM    5  C   UNK N   1      26.935  21.885  -7.867  0.00  0.00     0.260 A 
HETATM    6  C   UNK N   1      25.986  23.755  -7.334  0.00  0.00     0.260 A 
HETATM    7  O   UNK N   1      27.131  20.821  -8.423  0.00  0.00    -0.267 OA
HETATM    8  O   UNK N   1      25.185  24.668  -7.361  0.00  0.00    -0.267 OA
HETATM    9  N   UNK N   1      25.861  22.664  -8.136  0.00  0.00    -0.289 N 
HETATM   10  C   UNK N   1      30.881  21.202  -5.612  0.00  0.00     0.121 A 
HETATM   11  C   UNK N   1      29.799  20.974  -6.475  0.00  0.00     0.057 A 
HETATM   12 Br   UNK N   1      29.563  19.453  -7.623  0.00  0.00    -0.047 Br
HETATM   13  N   UNK N   1      30.699  22.376  -4.959  0.00  0.00    -0.345 N 
HETATM   14  C   UNK N   1      31.580  22.994  -3.976  0.00  0.00     0.156 C 
HETATM   15  C   UNK N   1      29.539  22.895  -5.396  0.00  0.00     0.048 A 
HETATM   16  C   UNK N   1      28.956  22.075  -6.328  0.00  0.00     0.027 A 
HETATM   17  H   UNK N   1      25.137  22.479  -8.778  0.00  0.00     0.172 HD
ENDROOT
BRANCH  10  18
HETATM   18  C   UNK N   1      32.069  20.323  -5.435  0.00  0.00     0.269 C 
HETATM   19  O   UNK N   1      32.151  19.594  -4.457  0.00  0.00    -0.266 OA
HETATM   20  N   UNK N   1      33.069  20.350  -6.346  0.00  0.00    -0.354 N 
HETATM   21  H   UNK N   1      32.970  20.926  -7.138  0.00  0.00     0.162 HD
BRANCH  20  22
HETATM   22  C   UNK N   1      34.271  19.569  -6.203  0.00  0.00     0.149 C 
BRANCH  22  23
HETATM   23  C   UNK N   1      35.310  20.371  -5.439  0.00  0.00     0.183 C 
BRANCH  23  24
HETATM   24  O   UNK N   1      35.273  20.046  -4.082  0.00  0.00    -0.399 OA
HETATM   25  H   UNK N   1      35.733  19.447  -3.473  0.00  0.00     0.209 HD
ENDBRANCH  23  24
ENDBRANCH  22  23
ENDBRANCH  20  22
ENDBRANCH  10  18
BRANCH   2  26
HETATM   26  C   UNK N   1      27.135  25.822  -5.013  0.00  0.00    -0.003 A 
HETATM   27  C   UNK N   1      27.052  27.038  -5.775  0.00  0.00     0.045 A 
HETATM   28  C   UNK N   1      26.523  28.193  -5.189  0.00  0.00     0.024 A 
HETATM   29 Cl   UNK N   1      27.553  27.212  -7.456  0.00  0.00    -0.083 Cl
HETATM   30  C   UNK N   1      26.078  28.191  -3.871  0.00  0.00     0.002 A 
HETATM   31  C   UNK N   1      26.152  27.025  -3.122  0.00  0.00     0.001 A 
HETATM   32  C   UNK N   1      26.676  25.864  -3.690  0.00  0.00     0.014 A 
ENDBRANCH   2  26
TORSDOF 5
ENDMDL
MODEL 7
REMARK VINA RESULT:      -7.2     16.185     17.561
REMARK  5 active torsions:
REMARK  status: ('A' for Active; 'I' for Inactive)
REMARK    1  A    between atoms: C_2  and  C_7 
REMARK    2  A    between atoms: O_10  and  C_20 
REMARK       I    between atoms: C_17  and  N_18 
REMARK    3  A    between atoms: C_17  and  C_21 
REMARK    4  A    between atoms: N_18  and  C_19 
REMARK    5  A    between atoms: C_19  and  C_20 
ROOT
HETATM    1  C   UNK N   1      29.622  24.864  -4.772  0.00  0.00     0.044 A 
HETATM    2  C   UNK N   1      28.809  23.905  -5.416  0.00  0.00    -0.005 A 
HETATM    3  C   UNK N   1      27.425  24.273  -5.623  0.00  0.00     0.060 A 
HETATM    4  C   UNK N   1      26.944  25.524  -5.223  0.00  0.00     0.062 A 
HETATM    5  C   UNK N   1      25.603  25.570  -5.562  0.00  0.00     0.260 A 
HETATM    6  C   UNK N   1      26.314  23.619  -6.173  0.00  0.00     0.260 A 
HETATM    7  O   UNK N   1      24.846  26.502  -5.376  0.00  0.00    -0.267 OA
HETATM    8  O   UNK N   1      26.280  22.486  -6.610  0.00  0.00    -0.267 OA
HETATM    9  N   UNK N   1      25.208  24.409  -6.139  0.00  0.00    -0.289 N 
HETATM   10  C   UNK N   1      28.879  28.092  -3.555  0.00  0.00     0.121 A 
HETATM   11  C   UNK N   1      27.631  27.730  -4.083  0.00  0.00     0.057 A 
HETATM   12 Br   UNK N   1      26.039  28.805  -4.072  0.00  0.00    -0.047 Br
HETATM   13  N   UNK N   1      29.763  27.082  -3.752  0.00  0.00    -0.345 N 
HETATM   14  C   UNK N   1      31.165  27.038  -3.358  0.00  0.00     0.156 C 
HETATM   15  C   UNK N   1      29.100  26.095  -4.379  0.00  0.00     0.048 A 
HETATM   16  C   UNK N   1      27.792  26.445  -4.597  0.00  0.00     0.027 A 
HETATM   17  H   UNK N   1      24.307  24.185  -6.467  0.00  0.00     0.172 HD
ENDROOT
BRANCH  10  18
HETATM   18  C   UNK N   1      29.209  29.367  -2.862  0.00  0.00     0.269 C 
HETATM   19  O   UNK N   1      29.677  30.304  -3.492  0.00  0.00    -0.266 OA
HETATM   20  N   UNK N   1      29.011  29.480  -1.528  0.00  0.00    -0.354 N 
HETATM   21  H   UNK N   1      28.609  28.722  -1.045  0.00  0.00     0.162 HD
BRANCH  20  22
HETATM   22  C   UNK N   1      29.363  30.664  -0.787  0.00  0.00     0.149 C 
BRANCH  22  23
HETATM   23  C   UNK N   1      28.397  30.845   0.370  0.00  0.00     0.183 C 
BRANCH  23  24
HETATM   24  O   UNK N   1      28.757  30.023   1.438  0.00  0.00    -0.399 OA
HETATM   25  H   UNK N   1      29.545  29.544   1.743  0.00  0.00     0.209 HD
ENDBRANCH  23  24
ENDBRANCH  22  23
ENDBRANCH  20  22
ENDBRANCH  10  18
BRANCH   2  26
HETATM   26  C   UNK N   1      29.457  22.613  -5.876  0.00  0.00    -0.003 A 
HETATM   27  C   UNK N   1      30.061  21.662  -4.984  0.00  0.00     0.045 A 
HETATM   28  C   UNK N   1      30.680  20.518  -5.499  0.00  0.00     0.024 A 
HETATM   29 Cl   UNK N   1      30.076  21.796  -3.226  0.00  0.00    -0.083 Cl
HETATM   30  C   UNK N   1      30.728  20.282  -6.869  0.00  0.00     0.002 A 
HETATM   31  C   UNK N   1      30.149  21.191  -7.744  0.00  0.00     0.001 A 
HETATM   32  C   UNK N   1      29.529  22.337  -7.248  0.00  0.00     0.014 A 
ENDBRANCH   2  26
TORSDOF 5
ENDMDL
MODEL 8
REMARK VINA RESULT:      -7.1     11.558     14.592
REMARK  5 active torsions:
REMARK  status: ('A' for Active; 'I' for Inactive)
REMARK    1  A    between atoms: C_2  and  C_7 
REMARK    2  A    between atoms: O_10  and  C_20 
REMARK       I    between atoms: C_17  and  N_18 
REMARK    3  A    between atoms: C_17  and  C_21 
REMARK    4  A    between atoms: N_18  and  C_19 
REMARK    5  A    between atoms: C_19  and  C_20 
ROOT
HETATM    1  C   UNK N   1      33.550  14.133   7.236  0.00  0.00     0.044 A 
HETATM    2  C   UNK N   1      33.557  15.511   6.922  0.00  0.00    -0.005 A 
HETATM    3  C   UNK N   1      34.108  16.394   7.928  0.00  0.00     0.060 A 
HETATM    4  C   UNK N   1      34.622  15.890   9.125  0.00  0.00     0.062 A 
HETATM    5  C   UNK N   1      35.073  16.973   9.860  0.00  0.00     0.260 A 
HETATM    6  C   UNK N   1      34.264  17.783   8.023  0.00  0.00     0.260 A 
HETATM    7  O   UNK N   1      35.591  16.931  10.959  0.00  0.00    -0.267 OA
HETATM    8  O   UNK N   1      33.912  18.613   7.209  0.00  0.00    -0.267 OA
HETATM    9  N   UNK N   1      34.855  18.134   9.197  0.00  0.00    -0.289 N 
HETATM   10  C   UNK N   1      34.676  12.400  10.096  0.00  0.00     0.121 A 
HETATM   11  C   UNK N   1      35.011  13.715  10.452  0.00  0.00     0.057 A 
HETATM   12 Br   UNK N   1      35.851  14.270  12.088  0.00  0.00    -0.047 Br
HETATM   13  N   UNK N   1      34.103  12.397   8.866  0.00  0.00    -0.345 N 
HETATM   14  C   UNK N   1      33.604  11.249   8.121  0.00  0.00     0.156 C 
HETATM   15  C   UNK N   1      34.062  13.673   8.447  0.00  0.00     0.048 A 
HETATM   16  C   UNK N   1      34.601  14.515   9.386  0.00  0.00     0.027 A 
HETATM   17  H   UNK N   1      35.079  19.043   9.501  0.00  0.00     0.172 HD
ENDROOT
BRANCH  10  18
HETATM   18  C   UNK N   1      34.881  11.182  10.925  0.00  0.00     0.269 C 
HETATM   19  O   UNK N   1      35.732  10.362  10.610  0.00  0.00    -0.266 OA
HETATM   20  N   UNK N   1      34.109  10.970  12.016  0.00  0.00    -0.354 N 
HETATM   21  H   UNK N   1      33.448  11.656  12.266  0.00  0.00     0.162 HD
BRANCH  20  22
HETATM   22  C   UNK N   1      34.217   9.785  12.827  0.00  0.00     0.149 C 
BRANCH  22  23
HETATM   23  C   UNK N   1      34.262  10.174  14.294  0.00  0.00     0.183 C 
BRANCH  23  24
HETATM   24  O   UNK N   1      33.094  10.847  14.654  0.00  0.00    -0.399 OA
HETATM   25  H   UNK N   1      32.742  11.750  14.612  0.00  0.00     0.209 HD
ENDBRANCH  23  24
ENDBRANCH  22  23
ENDBRANCH  20  22
ENDBRANCH  10  18
BRANCH   2  26
HETATM   26  C   UNK N   1      33.044  15.934   5.559  0.00  0.00    -0.003 A 
HETATM   27  C   UNK N   1      31.799  16.621   5.354  0.00  0.00     0.045 A 
HETATM   28  C   UNK N   1      31.380  16.933   4.055  0.00  0.00     0.024 A 
HETATM   29 Cl   UNK N   1      30.715  17.151   6.639  0.00  0.00    -0.083 Cl
HETATM   30  C   UNK N   1      32.147  16.583   2.950  0.00  0.00     0.002 A 
HETATM   31  C   UNK N   1      33.353  15.920   3.131  0.00  0.00     0.001 A 
HETATM   32  C   UNK N   1      33.786  15.601   4.418  0.00  0.00     0.014 A 
ENDBRANCH   2  26
TORSDOF 5
ENDMDL
MODEL 9
REMARK VINA RESULT:      -7.0      8.593     11.001
REMARK  5 active torsions:
REMARK  status: ('A' for Active; 'I' for Inactive)
REMARK    1  A    between atoms: C_2  and  C_7 
REMARK    2  A    between atoms: O_10  and  C_20 
REMARK       I    between atoms: C_17  and  N_18 
REMARK    3  A    between atoms: C_17  and  C_21 
REMARK    4  A    between atoms: N_18  and  C_19 
REMARK    5  A    between atoms: C_19  and  C_20 
ROOT
HETATM    1  C   UNK N   1      29.519  17.644   6.316  0.00  0.00     0.044 A 
HETATM    2  C   UNK N   1      28.763  17.290   5.176  0.00  0.00    -0.005 A 
HETATM    3  C   UNK N   1      29.182  16.095   4.475  0.00  0.00     0.060 A 
HETATM    4  C   UNK N   1      30.261  15.333   4.932  0.00  0.00     0.062 A 
HETATM    5  C   UNK N   1      30.401  14.267   4.060  0.00  0.00     0.260 A 
HETATM    6  C   UNK N   1      28.739  15.439   3.319  0.00  0.00     0.260 A 
HETATM    7  O   UNK N   1      31.232  13.383   4.134  0.00  0.00    -0.267 OA
HETATM    8  O   UNK N   1      27.839  15.789   2.582  0.00  0.00    -0.267 OA
HETATM    9  N   UNK N   1      29.479  14.326   3.070  0.00  0.00    -0.289 N 
HETATM   10  C   UNK N   1      32.309  16.094   7.821  0.00  0.00     0.121 A 
HETATM   11  C   UNK N   1      32.069  15.204   6.763  0.00  0.00     0.057 A 
HETATM   12 Br   UNK N   1      33.072  13.615   6.367  0.00  0.00    -0.047 Br
HETATM   13  N   UNK N   1      31.395  17.095   7.786  0.00  0.00    -0.345 N 
HETATM   14  C   UNK N   1      31.283  18.230   8.693  0.00  0.00     0.156 C 
HETATM   15  C   UNK N   1      30.596  16.862   6.731  0.00  0.00     0.048 A 
HETATM   16  C   UNK N   1      30.973  15.720   6.073  0.00  0.00     0.027 A 
HETATM   17  H   UNK N   1      29.367  13.692   2.324  0.00  0.00     0.172 HD
ENDROOT
BRANCH  10  18
HETATM   18  C   UNK N   1      33.402  15.996   8.826  0.00  0.00     0.269 C 
HETATM   19  O   UNK N   1      34.497  16.487   8.590  0.00  0.00    -0.266 OA
HETATM   20  N   UNK N   1      33.190  15.343   9.992  0.00  0.00    -0.354 N 
HETATM   21  H   UNK N   1      32.293  14.979  10.172  0.00  0.00     0.162 HD
BRANCH  20  22
HETATM   22  C   UNK N   1      34.222  15.162  10.981  0.00  0.00     0.149 C 
BRANCH  22  23
HETATM   23  C   UNK N   1      34.568  13.688  11.088  0.00  0.00     0.183 C 
BRANCH  23  24
HETATM   24  O   UNK N   1      34.469  13.261  12.413  0.00  0.00    -0.399 OA
HETATM   25  H   UNK N   1      34.383  13.660  13.293  0.00  0.00     0.209 HD
ENDBRANCH  23  24
ENDBRANCH  22  23
ENDBRANCH  20  22
ENDBRANCH  10  18
BRANCH   2  26
HETATM   26  C   UNK N   1      27.565  18.149   4.820  0.00  0.00    -0.003 A 
HETATM   27  C   UNK N   1      26.203  17.730   4.997  0.00  0.00     0.045 A 
HETATM   28  C   UNK N   1      25.157  18.569   4.596  0.00  0.00     0.024 A 
HETATM   29 Cl   UNK N   1      25.703  16.203   5.722  0.00  0.00    -0.083 Cl
HETATM   30  C   UNK N   1      25.411  19.809   4.020  0.00  0.00     0.002 A 
HETATM   31  C   UNK N   1      26.723  20.229   3.843  0.00  0.00     0.001 A 
HETATM   32  C   UNK N   1      27.777  19.406   4.235  0.00  0.00     0.014 A 
ENDBRANCH   2  26
TORSDOF 5
ENDMDL
