REMARK  9 active torsions:
REMARK  status: ('A' for Active; 'I' for Inactive)
REMARK    1  A    between atoms: O_4  and  C_30 
REMARK    2  A    between atoms: O_5  and  C_28 
REMARK    3  A    between atoms: C_26  and  O_7 
REMARK    4  A    between atoms: N_8  and  C_29 
REMARK       I    between atoms: C_9  and  N_8 
REMARK    5  A    between atoms: C_10  and  C_9 
REMARK    6  A    between atoms: C_10  and  C_11 
REMARK    7  A    between atoms: C_12  and  C_11 
REMARK    8  A    between atoms: C_17  and  C_18 
REMARK    9  A    between atoms: C_27  and  C_26 
ROOT
HETATM    1  O   UNK N   1      -0.214   3.458  -1.323  0.00  0.00    -0.273 OA
HETATM    2  N   UNK N   1      -1.135   2.989   0.674  0.00  0.00    -0.323 N 
HETATM    3  C   UNK N   1      -0.070   3.133  -0.154  0.00  0.00     0.222 C 
HETATM    4  H   UNK N   1      -0.975   2.923   1.644  0.00  0.00     0.169 HD
ENDROOT
BRANCH   3   5
HETATM    5  C   UNK N   1       1.241   2.622   0.302  0.00  0.00     0.104 C 
BRANCH   5   6
HETATM    6  C   UNK N   1       1.007   1.186   0.791  0.00  0.00     0.027 C 
BRANCH   6   7
HETATM    7  C   UNK N   1       1.113  -0.018  -0.188  0.00  0.00     0.024 C 
HETATM    8  C   UNK N   1       1.538   0.425  -1.591  0.00  0.00     0.024 C 
HETATM    9  C   UNK N   1       2.155  -0.961   0.498  0.00  0.00     0.039 C 
HETATM   10  C   UNK N   1       1.982  -2.480   0.204  0.00  0.00    -0.030 C 
HETATM   11  C   UNK N   1       0.584  -2.937   0.578  0.00  0.00     0.017 C 
HETATM   12  C   UNK N   1       2.426  -2.804  -1.208  0.00  0.00     0.018 C 
HETATM   13  C   UNK N   1       3.027  -3.266   0.984  0.00  0.00     0.048 C 
HETATM   14  C   UNK N   1      -0.517  -2.152  -0.122  0.00  0.00     0.080 C 
HETATM   15  C   UNK N   1      -0.249  -0.687  -0.387  0.00  0.00     0.135 C 
HETATM   16  O   UNK N   1      -1.149  -0.043  -0.902  0.00  0.00    -0.297 OA
HETATM   17  C   UNK N   1       3.925  -2.477  -1.120  0.00  0.00     0.023 C 
HETATM   18  C   UNK N   1       4.040  -0.976  -1.238  0.00  0.00     0.040 C 
HETATM   19  C   UNK N   1       4.294  -2.693   0.370  0.00  0.00     0.062 C 
HETATM   20  C   UNK N   1       3.654  -0.584   0.183  0.00  0.00     0.129 C 
HETATM   21  O   UNK N   1       4.480  -1.415   0.955  0.00  0.00    -0.374 OA
HETATM   22  C   UNK N   1       5.515  -3.565   0.589  0.00  0.00     0.046 C 
BRANCH   9  23
ENDBRANCH   9  23
BRANCH  20  23
ENDBRANCH  20  23
ENDBRANCH   6   7
ENDBRANCH   5   6
ENDBRANCH   3   5
BRANCH   2  23
HETATM   23  C   UNK N   1      -2.462   2.930   0.202  0.00  0.00     0.102 A 
HETATM   24  C   UNK N   1      -3.170   1.749   0.450  0.00  0.00     0.112 A 
HETATM   25  C   UNK N   1      -4.431   1.538  -0.125  0.00  0.00     0.073 A 
HETATM   26  C   UNK N   1      -4.999   2.558  -0.907  0.00  0.00     0.024 A 
HETATM   27  C   UNK N   1      -4.314   3.760  -1.116  0.00  0.00     0.040 A 
HETATM   28  C   UNK N   1      -3.040   3.947  -0.581  0.00  0.00     0.095 A 
BRANCH  24  29
HETATM   29  O   UNK N   1      -2.596   0.796   1.214  0.00  0.00    -0.357 OA
HETATM   30  H   UNK N   1      -2.970   0.120   1.744  0.00  0.00     0.217 HD
ENDBRANCH  24  29
BRANCH  25  31
HETATM   31  C   UNK N   1      -5.147   0.245   0.030  0.00  0.00     0.179 C 
HETATM   32  O   UNK N   1      -6.222   0.071  -0.518  0.00  0.00    -0.646 OA
BRANCH  31  33
HETATM   33  O   UNK N   1      -4.598  -0.768   0.733  0.00  0.00    -0.773 OA
HETATM   34  H   UNK N   1      -5.017  -1.450   1.221  0.00  0.00     0.167 HD
ENDBRANCH  31  33
ENDBRANCH  25  31
BRANCH  28  35
HETATM   35  O   UNK N   1      -2.379   5.094  -0.817  0.00  0.00    -0.358 OA
HETATM   36  H   UNK N   1      -1.457   5.095  -0.982  0.00  0.00     0.217 HD
ENDBRANCH  28  35
ENDBRANCH   2  23
TORSDOF 9
