MODEL 1
REMARK VINA RESULT:      -5.2      0.000      0.000
REMARK  13 active torsions:
REMARK  status: ('A' for Active; 'I' for Inactive)
REMARK    1  A    between atoms: C_2  and  O_7 
REMARK    2  A    between atoms: C_2  and  C_3 
REMARK    3  A    between atoms: C_3  and  C_4 
REMARK    4  A    between atoms: C_4  and  C_5 
REMARK    5  A    between atoms: O_7  and  C_8 
REMARK    6  A    between atoms: C_8  and  C_9 
REMARK    7  A    between atoms: C_9  and  O_10 
REMARK    8  A    between atoms: C_9  and  C_13 
REMARK    9  A    between atoms: O_10  and  C_11 
REMARK   10  A    between atoms: C_13  and  O_14 
REMARK   11  A    between atoms: O_14  and  P_15 
REMARK   12  A    between atoms: P_15  and  O_16 
REMARK   13  A    between atoms: P_15  and  O_18 
ROOT
HETATM    1  C   UNK N   1      22.350  18.637   4.864  0.00  0.00     0.180 C 
ENDROOT
BRANCH   1   2
HETATM    2  C   UNK N   1      23.746  18.292   4.363  0.00  0.00     0.213 C 
BRANCH   2   3
HETATM    3  O   UNK N   1      24.624  19.324   4.604  0.00  0.00    -0.319 OA
BRANCH   3   4
HETATM    4  C   UNK N   1      25.179  20.037   3.593  0.00  0.00     0.258 C 
HETATM    5  O   UNK N   1      24.463  20.495   2.718  0.00  0.00    -0.265 OA
BRANCH   4   6
HETATM    6  C   UNK N   1      26.661  20.281   3.534  0.00  0.00     0.111 C 
BRANCH   6   7
HETATM    7  C   UNK N   1      27.275  20.088   4.911  0.00  0.00     0.009 C 
BRANCH   7   8
HETATM    8  C   UNK N   1      27.212  21.382   5.700  0.00  0.00    -0.004 C 
HETATM    9  C   UNK N   1      26.459  21.162   6.999  0.00  0.00     0.005 C 
ENDBRANCH   7   8
ENDBRANCH   6   7
ENDBRANCH   4   6
ENDBRANCH   3   4
ENDBRANCH   2   3
ENDBRANCH   1   2
BRANCH   1  10
HETATM   10  O   UNK N   1      21.896  17.583   5.635  0.00  0.00    -0.319 OA
BRANCH  10  11
HETATM   11  C   UNK N   1      21.082  17.717   6.713  0.00  0.00     0.398 C 
HETATM   12  O   UNK N   1      20.892  18.805   7.235  0.00  0.00    -0.276 OA
ENDBRANCH  10  11
ENDBRANCH   1  10
BRANCH   1  13
HETATM   13  C   UNK N   1      21.408  18.903   3.688  0.00  0.00     0.215 C 
BRANCH  13  14
HETATM   14  O   UNK N   1      20.903  20.206   3.756  0.00  0.00    -0.294 OA
BRANCH  14  15
HETATM   15  P   UNK N   1      20.597  20.661   2.108  0.00  0.00     0.390 P 
HETATM   16  O   UNK N   1      20.965  19.160   1.964  0.00  0.00    -0.632 OA
BRANCH  15  17
HETATM   17  O   UNK N   1      21.895  20.705   0.957  0.00  0.00    -0.307 OA
HETATM   18  H   UNK N   1      22.845  20.794   1.132  0.00  0.00     0.222 HD
ENDBRANCH  15  17
BRANCH  15  19
HETATM   19  O   UNK N   1      21.957  21.542   2.731  0.00  0.00    -0.307 OA
HETATM   20  H   UNK N   1      22.261  22.462   2.684  0.00  0.00     0.222 HD
ENDBRANCH  15  19
ENDBRANCH  14  15
ENDBRANCH  13  14
ENDBRANCH   1  13
TORSDOF 13
ENDMDL
MODEL 2
REMARK VINA RESULT:      -4.8     12.754     15.304
REMARK  13 active torsions:
REMARK  status: ('A' for Active; 'I' for Inactive)
REMARK    1  A    between atoms: C_2  and  O_7 
REMARK    2  A    between atoms: C_2  and  C_3 
REMARK    3  A    between atoms: C_3  and  C_4 
REMARK    4  A    between atoms: C_4  and  C_5 
REMARK    5  A    between atoms: O_7  and  C_8 
REMARK    6  A    between atoms: C_8  and  C_9 
REMARK    7  A    between atoms: C_9  and  O_10 
REMARK    8  A    between atoms: C_9  and  C_13 
REMARK    9  A    between atoms: O_10  and  C_11 
REMARK   10  A    between atoms: C_13  and  O_14 
REMARK   11  A    between atoms: O_14  and  P_15 
REMARK   12  A    between atoms: P_15  and  O_16 
REMARK   13  A    between atoms: P_15  and  O_18 
ROOT
HETATM    1  C   UNK N   1      36.012  15.928  10.731  0.00  0.00     0.180 C 
ENDROOT
BRANCH   1   2
HETATM    2  C   UNK N   1      34.939  16.134   9.670  0.00  0.00     0.213 C 
BRANCH   2   3
HETATM    3  O   UNK N   1      34.487  17.434   9.674  0.00  0.00    -0.319 OA
BRANCH   3   4
HETATM    4  C   UNK N   1      34.436  18.173   8.538  0.00  0.00     0.258 C 
HETATM    5  O   UNK N   1      35.271  19.043   8.349  0.00  0.00    -0.265 OA
BRANCH   4   6
HETATM    6  C   UNK N   1      33.374  17.937   7.502  0.00  0.00     0.111 C 
BRANCH   6   7
HETATM    7  C   UNK N   1      33.988  17.310   6.261  0.00  0.00     0.009 C 
BRANCH   7   8
HETATM    8  C   UNK N   1      32.905  16.700   5.391  0.00  0.00    -0.004 C 
HETATM    9  C   UNK N   1      32.545  17.653   4.265  0.00  0.00     0.005 C 
ENDBRANCH   7   8
ENDBRANCH   6   7
ENDBRANCH   4   6
ENDBRANCH   3   4
ENDBRANCH   2   3
ENDBRANCH   1   2
BRANCH   1  10
HETATM   10  O   UNK N   1      37.082  15.282  10.140  0.00  0.00    -0.319 OA
BRANCH  10  11
HETATM   11  C   UNK N   1      36.965  14.249   9.266  0.00  0.00     0.398 C 
HETATM   12  O   UNK N   1      37.158  13.095   9.618  0.00  0.00    -0.276 OA
ENDBRANCH  10  11
ENDBRANCH   1  10
BRANCH   1  13
HETATM   13  C   UNK N   1      35.460  15.117  11.903  0.00  0.00     0.215 C 
BRANCH  13  14
HETATM   14  O   UNK N   1      36.345  15.163  12.986  0.00  0.00    -0.294 OA
BRANCH  14  15
HETATM   15  P   UNK N   1      36.120  13.657  13.822  0.00  0.00     0.390 P 
HETATM   16  O   UNK N   1      36.678  14.569  14.947  0.00  0.00    -0.632 OA
BRANCH  15  17
HETATM   17  O   UNK N   1      37.491  12.755  14.384  0.00  0.00    -0.307 OA
HETATM   18  H   UNK N   1      37.712  12.511  15.297  0.00  0.00     0.222 HD
ENDBRANCH  15  17
BRANCH  15  19
HETATM   19  O   UNK N   1      37.308  13.477  12.568  0.00  0.00    -0.307 OA
HETATM   20  H   UNK N   1      37.413  13.817  11.666  0.00  0.00     0.222 HD
ENDBRANCH  15  19
ENDBRANCH  14  15
ENDBRANCH  13  14
ENDBRANCH   1  13
TORSDOF 13
ENDMDL
MODEL 3
REMARK VINA RESULT:      -4.7      1.229      1.801
REMARK  13 active torsions:
REMARK  status: ('A' for Active; 'I' for Inactive)
REMARK    1  A    between atoms: C_2  and  O_7 
REMARK    2  A    between atoms: C_2  and  C_3 
REMARK    3  A    between atoms: C_3  and  C_4 
REMARK    4  A    between atoms: C_4  and  C_5 
REMARK    5  A    between atoms: O_7  and  C_8 
REMARK    6  A    between atoms: C_8  and  C_9 
REMARK    7  A    between atoms: C_9  and  O_10 
REMARK    8  A    between atoms: C_9  and  C_13 
REMARK    9  A    between atoms: O_10  and  C_11 
REMARK   10  A    between atoms: C_13  and  O_14 
REMARK   11  A    between atoms: O_14  and  P_15 
REMARK   12  A    between atoms: P_15  and  O_16 
REMARK   13  A    between atoms: P_15  and  O_18 
ROOT
HETATM    1  C   UNK N   1      22.185  18.229   4.807  0.00  0.00     0.180 C 
ENDROOT
BRANCH   1   2
HETATM    2  C   UNK N   1      23.572  18.854   4.740  0.00  0.00     0.213 C 
BRANCH   2   3
HETATM    3  O   UNK N   1      23.922  19.136   3.439  0.00  0.00    -0.319 OA
BRANCH   3   4
HETATM    4  C   UNK N   1      24.735  20.177   3.130  0.00  0.00     0.258 C 
HETATM    5  O   UNK N   1      24.588  20.759   2.069  0.00  0.00    -0.265 OA
BRANCH   4   6
HETATM    6  C   UNK N   1      25.812  20.631   4.075  0.00  0.00     0.111 C 
BRANCH   6   7
HETATM    7  C   UNK N   1      27.115  19.914   3.762  0.00  0.00     0.009 C 
BRANCH   7   8
HETATM    8  C   UNK N   1      28.040  19.959   4.963  0.00  0.00    -0.004 C 
HETATM    9  C   UNK N   1      27.554  21.001   5.954  0.00  0.00     0.005 C 
ENDBRANCH   7   8
ENDBRANCH   6   7
ENDBRANCH   4   6
ENDBRANCH   3   4
ENDBRANCH   2   3
ENDBRANCH   1   2
BRANCH   1  10
HETATM   10  O   UNK N   1      22.332  16.854   4.791  0.00  0.00    -0.319 OA
BRANCH  10  11
HETATM   11  C   UNK N   1      22.136  16.075   3.696  0.00  0.00     0.398 C 
HETATM   12  O   UNK N   1      23.076  15.618   3.064  0.00  0.00    -0.276 OA
ENDBRANCH  10  11
ENDBRANCH   1  10
BRANCH   1  13
HETATM   13  C   UNK N   1      21.325  18.703   3.634  0.00  0.00     0.215 C 
BRANCH  13  14
HETATM   14  O   UNK N   1      21.014  20.060   3.777  0.00  0.00    -0.294 OA
BRANCH  14  15
HETATM   15  P   UNK N   1      20.533  20.585   2.194  0.00  0.00     0.390 P 
HETATM   16  O   UNK N   1      20.952  19.113   1.931  0.00  0.00    -0.632 OA
BRANCH  15  17
HETATM   17  O   UNK N   1      21.712  20.754   0.932  0.00  0.00    -0.307 OA
HETATM   18  H   UNK N   1      22.662  20.560   0.973  0.00  0.00     0.222 HD
ENDBRANCH  15  17
BRANCH  15  19
HETATM   19  O   UNK N   1      21.906  21.498   2.738  0.00  0.00    -0.307 OA
HETATM   20  H   UNK N   1      22.774  21.278   3.111  0.00  0.00     0.222 HD
ENDBRANCH  15  19
ENDBRANCH  14  15
ENDBRANCH  13  14
ENDBRANCH   1  13
TORSDOF 13
ENDMDL
MODEL 4
REMARK VINA RESULT:      -4.6      6.932      9.491
REMARK  13 active torsions:
REMARK  status: ('A' for Active; 'I' for Inactive)
REMARK    1  A    between atoms: C_2  and  O_7 
REMARK    2  A    between atoms: C_2  and  C_3 
REMARK    3  A    between atoms: C_3  and  C_4 
REMARK    4  A    between atoms: C_4  and  C_5 
REMARK    5  A    between atoms: O_7  and  C_8 
REMARK    6  A    between atoms: C_8  and  C_9 
REMARK    7  A    between atoms: C_9  and  O_10 
REMARK    8  A    between atoms: C_9  and  C_13 
REMARK    9  A    between atoms: O_10  and  C_11 
REMARK   10  A    between atoms: C_13  and  O_14 
REMARK   11  A    between atoms: O_14  and  P_15 
REMARK   12  A    between atoms: P_15  and  O_16 
REMARK   13  A    between atoms: P_15  and  O_18 
ROOT
HETATM    1  C   UNK N   1      32.090  17.302   7.943  0.00  0.00     0.180 C 
ENDROOT
BRANCH   1   2
HETATM    2  C   UNK N   1      31.039  18.110   8.691  0.00  0.00     0.213 C 
BRANCH   2   3
HETATM    3  O   UNK N   1      29.917  17.351   8.936  0.00  0.00    -0.319 OA
BRANCH   3   4
HETATM    4  C   UNK N   1      28.669  17.871   8.837  0.00  0.00     0.258 C 
HETATM    5  O   UNK N   1      27.774  17.421   9.533  0.00  0.00    -0.265 OA
BRANCH   4   6
HETATM    6  C   UNK N   1      28.368  18.999   7.892  0.00  0.00     0.111 C 
BRANCH   6   7
HETATM    7  C   UNK N   1      28.033  18.449   6.515  0.00  0.00     0.009 C 
BRANCH   7   8
HETATM    8  C   UNK N   1      27.794  19.586   5.540  0.00  0.00    -0.004 C 
HETATM    9  C   UNK N   1      27.543  20.876   6.298  0.00  0.00     0.005 C 
ENDBRANCH   7   8
ENDBRANCH   6   7
ENDBRANCH   4   6
ENDBRANCH   3   4
ENDBRANCH   2   3
ENDBRANCH   1   2
BRANCH   1  10
HETATM   10  O   UNK N   1      33.128  18.152   7.607  0.00  0.00    -0.319 OA
BRANCH  10  11
HETATM   11  C   UNK N   1      34.349  18.141   8.199  0.00  0.00     0.398 C 
HETATM   12  O   UNK N   1      35.002  19.166   8.331  0.00  0.00    -0.276 OA
ENDBRANCH  10  11
ENDBRANCH   1  10
BRANCH   1  13
HETATM   13  C   UNK N   1      31.484  16.656   6.696  0.00  0.00     0.215 C 
BRANCH  13  14
HETATM   14  O   UNK N   1      31.445  17.576   5.642  0.00  0.00    -0.294 OA
BRANCH  14  15
HETATM   15  P   UNK N   1      31.802  16.650   4.217  0.00  0.00     0.390 P 
HETATM   16  O   UNK N   1      33.046  17.572   4.320  0.00  0.00    -0.632 OA
BRANCH  15  17
HETATM   17  O   UNK N   1      31.827  17.415   2.660  0.00  0.00    -0.307 OA
HETATM   18  H   UNK N   1      31.854  16.992   1.787  0.00  0.00     0.222 HD
ENDBRANCH  15  17
BRANCH  15  19
HETATM   19  O   UNK N   1      30.377  17.611   3.968  0.00  0.00    -0.307 OA
HETATM   20  H   UNK N   1      30.190  18.561   3.907  0.00  0.00     0.222 HD
ENDBRANCH  15  19
ENDBRANCH  14  15
ENDBRANCH  13  14
ENDBRANCH   1  13
TORSDOF 13
ENDMDL
MODEL 5
REMARK VINA RESULT:      -4.6     10.743     12.233
REMARK  13 active torsions:
REMARK  status: ('A' for Active; 'I' for Inactive)
REMARK    1  A    between atoms: C_2  and  O_7 
REMARK    2  A    between atoms: C_2  and  C_3 
REMARK    3  A    between atoms: C_3  and  C_4 
REMARK    4  A    between atoms: C_4  and  C_5 
REMARK    5  A    between atoms: O_7  and  C_8 
REMARK    6  A    between atoms: C_8  and  C_9 
REMARK    7  A    between atoms: C_9  and  O_10 
REMARK    8  A    between atoms: C_9  and  C_13 
REMARK    9  A    between atoms: O_10  and  C_11 
REMARK   10  A    between atoms: C_13  and  O_14 
REMARK   11  A    between atoms: O_14  and  P_15 
REMARK   12  A    between atoms: P_15  and  O_16 
REMARK   13  A    between atoms: P_15  and  O_18 
ROOT
HETATM    1  C   UNK N   1      28.130  24.377  -4.887  0.00  0.00     0.180 C 
ENDROOT
BRANCH   1   2
HETATM    2  C   UNK N   1      27.332  24.970  -3.733  0.00  0.00     0.213 C 
BRANCH   2   3
HETATM    3  O   UNK N   1      27.496  26.335  -3.672  0.00  0.00    -0.319 OA
BRANCH   3   4
HETATM    4  C   UNK N   1      26.437  27.176  -3.580  0.00  0.00     0.258 C 
HETATM    5  O   UNK N   1      25.879  27.324  -2.505  0.00  0.00    -0.265 OA
BRANCH   4   6
HETATM    6  C   UNK N   1      25.940  27.936  -4.777  0.00  0.00     0.111 C 
BRANCH   6   7
HETATM    7  C   UNK N   1      25.021  27.056  -5.608  0.00  0.00     0.009 C 
BRANCH   7   8
HETATM    8  C   UNK N   1      25.627  26.808  -6.976  0.00  0.00    -0.004 C 
HETATM    9  C   UNK N   1      27.031  27.382  -7.033  0.00  0.00     0.005 C 
ENDBRANCH   7   8
ENDBRANCH   6   7
ENDBRANCH   4   6
ENDBRANCH   3   4
ENDBRANCH   2   3
ENDBRANCH   1   2
BRANCH   1  10
HETATM   10  O   UNK N   1      27.242  24.019  -5.884  0.00  0.00    -0.319 OA
BRANCH  10  11
HETATM   11  C   UNK N   1      26.070  23.368  -5.669  0.00  0.00     0.398 C 
HETATM   12  O   UNK N   1      25.159  23.415  -6.481  0.00  0.00    -0.276 OA
ENDBRANCH  10  11
ENDBRANCH   1  10
BRANCH   1  13
HETATM   13  C   UNK N   1      28.942  23.170  -4.414  0.00  0.00     0.215 C 
BRANCH  13  14
HETATM   14  O   UNK N   1      29.386  23.367  -3.102  0.00  0.00    -0.294 OA
BRANCH  14  15
HETATM   15  P   UNK N   1      31.076  22.968  -3.129  0.00  0.00     0.390 P 
HETATM   16  O   UNK N   1      30.446  21.748  -3.854  0.00  0.00    -0.632 OA
BRANCH  15  17
HETATM   17  O   UNK N   1      31.675  21.633  -2.197  0.00  0.00    -0.307 OA
HETATM   18  H   UNK N   1      31.577  20.685  -2.379  0.00  0.00     0.222 HD
ENDBRANCH  15  17
BRANCH  15  19
HETATM   19  O   UNK N   1      30.502  23.039  -1.491  0.00  0.00    -0.307 OA
HETATM   20  H   UNK N   1      29.943  23.649  -0.984  0.00  0.00     0.222 HD
ENDBRANCH  15  19
ENDBRANCH  14  15
ENDBRANCH  13  14
ENDBRANCH   1  13
TORSDOF 13
ENDMDL
MODEL 6
REMARK VINA RESULT:      -4.6     12.350     14.683
REMARK  13 active torsions:
REMARK  status: ('A' for Active; 'I' for Inactive)
REMARK    1  A    between atoms: C_2  and  O_7 
REMARK    2  A    between atoms: C_2  and  C_3 
REMARK    3  A    between atoms: C_3  and  C_4 
REMARK    4  A    between atoms: C_4  and  C_5 
REMARK    5  A    between atoms: O_7  and  C_8 
REMARK    6  A    between atoms: C_8  and  C_9 
REMARK    7  A    between atoms: C_9  and  O_10 
REMARK    8  A    between atoms: C_9  and  C_13 
REMARK    9  A    between atoms: O_10  and  C_11 
REMARK   10  A    between atoms: C_13  and  O_14 
REMARK   11  A    between atoms: O_14  and  P_15 
REMARK   12  A    between atoms: P_15  and  O_16 
REMARK   13  A    between atoms: P_15  and  O_18 
ROOT
HETATM    1  C   UNK N   1      34.974  14.978   9.949  0.00  0.00     0.180 C 
ENDROOT
BRANCH   1   2
HETATM    2  C   UNK N   1      34.471  16.391  10.215  0.00  0.00     0.213 C 
BRANCH   2   3
HETATM    3  O   UNK N   1      35.265  17.321   9.583  0.00  0.00    -0.319 OA
BRANCH   3   4
HETATM    4  C   UNK N   1      34.754  18.201   8.686  0.00  0.00     0.258 C 
HETATM    5  O   UNK N   1      35.330  19.258   8.488  0.00  0.00    -0.265 OA
BRANCH   4   6
HETATM    6  C   UNK N   1      33.495  17.896   7.925  0.00  0.00     0.111 C 
BRANCH   6   7
HETATM    7  C   UNK N   1      33.822  17.621   6.466  0.00  0.00     0.009 C 
BRANCH   7   8
HETATM    8  C   UNK N   1      32.584  17.146   5.732  0.00  0.00    -0.004 C 
HETATM    9  C   UNK N   1      32.650  17.566   4.275  0.00  0.00     0.005 C 
ENDBRANCH   7   8
ENDBRANCH   6   7
ENDBRANCH   4   6
ENDBRANCH   3   4
ENDBRANCH   2   3
ENDBRANCH   1   2
BRANCH   1  10
HETATM   10  O   UNK N   1      34.502  14.157  10.958  0.00  0.00    -0.319 OA
BRANCH  10  11
HETATM   11  C   UNK N   1      35.201  13.842  12.078  0.00  0.00     0.398 C 
HETATM   12  O   UNK N   1      34.637  13.638  13.143  0.00  0.00    -0.276 OA
ENDBRANCH  10  11
ENDBRANCH   1  10
BRANCH   1  13
HETATM   13  C   UNK N   1      36.502  14.953   9.890  0.00  0.00     0.215 C 
BRANCH  13  14
HETATM   14  O   UNK N   1      36.933  14.271   8.746  0.00  0.00    -0.294 OA
BRANCH  14  15
HETATM   15  P   UNK N   1      38.415  13.495   9.212  0.00  0.00     0.390 P 
HETATM   16  O   UNK N   1      37.352  12.465   9.679  0.00  0.00    -0.632 OA
BRANCH  15  17
HETATM   17  O   UNK N   1      38.807  13.293  10.890  0.00  0.00    -0.307 OA
HETATM   18  H   UNK N   1      38.212  13.354  11.654  0.00  0.00     0.222 HD
ENDBRANCH  15  17
BRANCH  15  19
HETATM   19  O   UNK N   1      38.215  14.982  10.086  0.00  0.00    -0.307 OA
HETATM   20  H   UNK N   1      38.325  15.257  11.010  0.00  0.00     0.222 HD
ENDBRANCH  15  19
ENDBRANCH  14  15
ENDBRANCH  13  14
ENDBRANCH   1  13
TORSDOF 13
ENDMDL
MODEL 7
REMARK VINA RESULT:      -4.6      1.869      3.712
REMARK  13 active torsions:
REMARK  status: ('A' for Active; 'I' for Inactive)
REMARK    1  A    between atoms: C_2  and  O_7 
REMARK    2  A    between atoms: C_2  and  C_3 
REMARK    3  A    between atoms: C_3  and  C_4 
REMARK    4  A    between atoms: C_4  and  C_5 
REMARK    5  A    between atoms: O_7  and  C_8 
REMARK    6  A    between atoms: C_8  and  C_9 
REMARK    7  A    between atoms: C_9  and  O_10 
REMARK    8  A    between atoms: C_9  and  C_13 
REMARK    9  A    between atoms: O_10  and  C_11 
REMARK   10  A    between atoms: C_13  and  O_14 
REMARK   11  A    between atoms: O_14  and  P_15 
REMARK   12  A    between atoms: P_15  and  O_16 
REMARK   13  A    between atoms: P_15  and  O_18 
ROOT
HETATM    1  C   UNK N   1      22.171  18.572   3.559  0.00  0.00     0.180 C 
ENDROOT
BRANCH   1   2
HETATM    2  C   UNK N   1      23.629  18.709   3.975  0.00  0.00     0.213 C 
BRANCH   2   3
HETATM    3  O   UNK N   1      24.051  20.015   3.866  0.00  0.00    -0.319 OA
BRANCH   3   4
HETATM    4  C   UNK N   1      25.037  20.375   3.008  0.00  0.00     0.258 C 
HETATM    5  O   UNK N   1      24.748  20.750   1.884  0.00  0.00    -0.265 OA
BRANCH   4   6
HETATM    6  C   UNK N   1      26.482  20.329   3.418  0.00  0.00     0.111 C 
BRANCH   6   7
HETATM    7  C   UNK N   1      26.626  20.770   4.866  0.00  0.00     0.009 C 
BRANCH   7   8
HETATM    8  C   UNK N   1      27.900  20.203   5.462  0.00  0.00    -0.004 C 
HETATM    9  C   UNK N   1      28.280  18.917   4.751  0.00  0.00     0.005 C 
ENDBRANCH   7   8
ENDBRANCH   6   7
ENDBRANCH   4   6
ENDBRANCH   3   4
ENDBRANCH   2   3
ENDBRANCH   1   2
BRANCH   1  10
HETATM   10  O   UNK N   1      21.515  19.741   3.899  0.00  0.00    -0.319 OA
BRANCH  10  11
HETATM   11  C   UNK N   1      20.824  20.515   3.023  0.00  0.00     0.398 C 
HETATM   12  O   UNK N   1      21.396  21.177   2.171  0.00  0.00    -0.276 OA
ENDBRANCH  10  11
ENDBRANCH   1  10
BRANCH   1  13
HETATM   13  C   UNK N   1      21.528  17.364   4.241  0.00  0.00     0.215 C 
BRANCH  13  14
HETATM   14  O   UNK N   1      20.622  17.784   5.222  0.00  0.00    -0.294 OA
BRANCH  14  15
HETATM   15  P   UNK N   1      21.169  17.041   6.694  0.00  0.00     0.390 P 
HETATM   16  O   UNK N   1      19.745  16.442   6.541  0.00  0.00    -0.632 OA
BRANCH  15  17
HETATM   17  O   UNK N   1      20.429  17.453   8.208  0.00  0.00    -0.307 OA
HETATM   18  H   UNK N   1      20.866  17.660   9.050  0.00  0.00     0.222 HD
ENDBRANCH  15  17
BRANCH  15  19
HETATM   19  O   UNK N   1      21.064  18.763   6.892  0.00  0.00    -0.307 OA
HETATM   20  H   UNK N   1      21.320  19.393   7.585  0.00  0.00     0.222 HD
ENDBRANCH  15  19
ENDBRANCH  14  15
ENDBRANCH  13  14
ENDBRANCH   1  13
TORSDOF 13
ENDMDL
MODEL 8
REMARK VINA RESULT:      -4.5      3.764      5.462
REMARK  13 active torsions:
REMARK  status: ('A' for Active; 'I' for Inactive)
REMARK    1  A    between atoms: C_2  and  O_7 
REMARK    2  A    between atoms: C_2  and  C_3 
REMARK    3  A    between atoms: C_3  and  C_4 
REMARK    4  A    between atoms: C_4  and  C_5 
REMARK    5  A    between atoms: O_7  and  C_8 
REMARK    6  A    between atoms: C_8  and  C_9 
REMARK    7  A    between atoms: C_9  and  O_10 
REMARK    8  A    between atoms: C_9  and  C_13 
REMARK    9  A    between atoms: O_10  and  C_11 
REMARK   10  A    between atoms: C_13  and  O_14 
REMARK   11  A    between atoms: O_14  and  P_15 
REMARK   12  A    between atoms: P_15  and  O_16 
REMARK   13  A    between atoms: P_15  and  O_18 
ROOT
HETATM    1  C   UNK N   1      19.977  16.985   3.102  0.00  0.00     0.180 C 
ENDROOT
BRANCH   1   2
HETATM    2  C   UNK N   1      20.678  16.565   4.387  0.00  0.00     0.213 C 
BRANCH   2   3
HETATM    3  O   UNK N   1      21.135  17.664   5.079  0.00  0.00    -0.319 OA
BRANCH   3   4
HETATM    4  C   UNK N   1      21.091  17.722   6.433  0.00  0.00     0.258 C 
HETATM    5  O   UNK N   1      21.022  18.808   6.985  0.00  0.00    -0.265 OA
BRANCH   4   6
HETATM    6  C   UNK N   1      21.116  16.473   7.267  0.00  0.00     0.111 C 
BRANCH   6   7
HETATM    7  C   UNK N   1      20.319  16.684   8.544  0.00  0.00     0.009 C 
BRANCH   7   8
HETATM    8  C   UNK N   1      18.832  16.650   8.247  0.00  0.00    -0.004 C 
HETATM    9  C   UNK N   1      18.058  17.277   9.391  0.00  0.00     0.005 C 
ENDBRANCH   7   8
ENDBRANCH   6   7
ENDBRANCH   4   6
ENDBRANCH   3   4
ENDBRANCH   2   3
ENDBRANCH   1   2
BRANCH   1  10
HETATM   10  O   UNK N   1      20.672  16.444   2.036  0.00  0.00    -0.319 OA
BRANCH  10  11
HETATM   11  C   UNK N   1      21.677  15.539   2.157  0.00  0.00     0.398 C 
HETATM   12  O   UNK N   1      21.902  14.719   1.280  0.00  0.00    -0.276 OA
ENDBRANCH  10  11
ENDBRANCH   1  10
BRANCH   1  13
HETATM   13  C   UNK N   1      19.911  18.509   2.999  0.00  0.00     0.215 C 
BRANCH  13  14
HETATM   14  O   UNK N   1      20.896  18.980   2.124  0.00  0.00    -0.294 OA
BRANCH  14  15
HETATM   15  P   UNK N   1      20.728  20.709   2.137  0.00  0.00     0.390 P 
HETATM   16  O   UNK N   1      21.772  20.496   1.008  0.00  0.00    -0.632 OA
BRANCH  15  17
HETATM   17  O   UNK N   1      22.044  21.712   2.656  0.00  0.00    -0.307 OA
HETATM   18  H   UNK N   1      22.029  22.425   3.315  0.00  0.00     0.222 HD
ENDBRANCH  15  17
BRANCH  15  19
HETATM   19  O   UNK N   1      21.378  20.157   3.650  0.00  0.00    -0.307 OA
HETATM   20  H   UNK N   1      21.851  20.573   4.388  0.00  0.00     0.222 HD
ENDBRANCH  15  19
ENDBRANCH  14  15
ENDBRANCH  13  14
ENDBRANCH   1  13
TORSDOF 13
ENDMDL
MODEL 9
REMARK VINA RESULT:      -4.4      6.226      7.583
REMARK  13 active torsions:
REMARK  status: ('A' for Active; 'I' for Inactive)
REMARK    1  A    between atoms: C_2  and  O_7 
REMARK    2  A    between atoms: C_2  and  C_3 
REMARK    3  A    between atoms: C_3  and  C_4 
REMARK    4  A    between atoms: C_4  and  C_5 
REMARK    5  A    between atoms: O_7  and  C_8 
REMARK    6  A    between atoms: C_8  and  C_9 
REMARK    7  A    between atoms: C_9  and  O_10 
REMARK    8  A    between atoms: C_9  and  C_13 
REMARK    9  A    between atoms: O_10  and  C_11 
REMARK   10  A    between atoms: C_13  and  O_14 
REMARK   11  A    between atoms: O_14  and  P_15 
REMARK   12  A    between atoms: P_15  and  O_16 
REMARK   13  A    between atoms: P_15  and  O_18 
ROOT
HETATM    1  C   UNK N   1      20.264  16.206   8.282  0.00  0.00     0.180 C 
ENDROOT
BRANCH   1   2
HETATM    2  C   UNK N   1      20.573  14.898   8.998  0.00  0.00     0.213 C 
BRANCH   2   3
HETATM    3  O   UNK N   1      21.571  14.206   8.349  0.00  0.00    -0.319 OA
BRANCH   3   4
HETATM    4  C   UNK N   1      21.581  12.851   8.299  0.00  0.00     0.258 C 
HETATM    5  O   UNK N   1      20.875  12.275   7.487  0.00  0.00    -0.265 OA
BRANCH   4   6
HETATM    6  C   UNK N   1      22.451  12.043   9.220  0.00  0.00     0.111 C 
BRANCH   6   7
HETATM    7  C   UNK N   1      23.631  12.880   9.687  0.00  0.00     0.009 C 
BRANCH   7   8
HETATM    8  C   UNK N   1      24.293  12.228  10.886  0.00  0.00    -0.004 C 
HETATM    9  C   UNK N   1      23.253  11.909  11.945  0.00  0.00     0.005 C 
ENDBRANCH   7   8
ENDBRANCH   6   7
ENDBRANCH   4   6
ENDBRANCH   3   4
ENDBRANCH   2   3
ENDBRANCH   1   2
BRANCH   1  10
HETATM   10  O   UNK N   1      19.624  17.045   9.176  0.00  0.00    -0.319 OA
BRANCH  10  11
HETATM   11  C   UNK N   1      19.597  18.398   9.071  0.00  0.00     0.398 C 
HETATM   12  O   UNK N   1      20.363  18.993   8.328  0.00  0.00    -0.276 OA
ENDBRANCH  10  11
ENDBRANCH   1  10
BRANCH   1  13
HETATM   13  C   UNK N   1      19.395  15.951   7.049  0.00  0.00     0.215 C 
BRANCH  13  14
HETATM   14  O   UNK N   1      20.167  16.030   5.885  0.00  0.00    -0.294 OA
BRANCH  14  15
HETATM   15  P   UNK N   1      19.182  15.329   4.638  0.00  0.00     0.390 P 
HETATM   16  O   UNK N   1      18.114  15.918   5.599  0.00  0.00    -0.632 OA
BRANCH  15  17
HETATM   17  O   UNK N   1      18.190  13.948   4.980  0.00  0.00    -0.307 OA
HETATM   18  H   UNK N   1      17.681  13.763   5.785  0.00  0.00     0.222 HD
ENDBRANCH  15  17
BRANCH  15  19
HETATM   19  O   UNK N   1      20.089  14.093   5.454  0.00  0.00    -0.307 OA
HETATM   20  H   UNK N   1      21.017  13.978   5.713  0.00  0.00     0.222 HD
ENDBRANCH  15  19
ENDBRANCH  14  15
ENDBRANCH  13  14
ENDBRANCH   1  13
TORSDOF 13
ENDMDL
