MODEL 1
REMARK VINA RESULT:      -5.4      0.000      0.000
REMARK  14 active torsions:
REMARK  status: ('A' for Active; 'I' for Inactive)
REMARK    1  A    between atoms: O_1  and  C_3 
REMARK    2  A    between atoms: C_3  and  C_4 
REMARK    3  A    between atoms: C_4  and  C_5 
REMARK    4  A    between atoms: C_5  and  C_6 
REMARK    5  A    between atoms: C_6  and  C_7 
REMARK    6  A    between atoms: C_6  and  C_10 
REMARK    7  A    between atoms: C_7  and  O_9 
REMARK    8  A    between atoms: C_10  and  C_11 
REMARK    9  A    between atoms: C_11  and  C_12 
REMARK   10  A    between atoms: C_11  and  C_15 
REMARK   11  A    between atoms: C_12  and  O_14 
REMARK   12  A    between atoms: C_15  and  C_16 
REMARK   13  A    between atoms: C_16  and  C_18 
REMARK   14  A    between atoms: C_18  and  O_19 
ROOT
HETATM    1  C   UNK N   1      30.364  17.521   7.386  0.00  0.00     0.030 C 
ENDROOT
BRANCH   1   2
HETATM    2  C   UNK N   1      31.264  16.301   7.057  0.00  0.00     0.085 C 
BRANCH   2   3
HETATM    3  C   UNK N   1      32.550  16.408   7.893  0.00  0.00     0.025 C 
BRANCH   3   4
HETATM    4  C   UNK N   1      32.870  17.835   8.334  0.00  0.00     0.111 C 
BRANCH   4   5
HETATM    5  C   UNK N   1      34.164  18.293   7.743  0.00  0.00     0.139 C 
HETATM    6  O   UNK N   1      34.879  19.069   8.355  0.00  0.00    -0.650 OA
BRANCH   5   7
HETATM    7  O   UNK N   1      34.556  17.826   6.543  0.00  0.00    -0.776 OA
HETATM    8  H   UNK N   1      35.353  18.117   6.146  0.00  0.00     0.167 HD
ENDBRANCH   5   7
ENDBRANCH   4   5
ENDBRANCH   3   4
ENDBRANCH   2   3
BRANCH   2   9
HETATM    9  C   UNK N   1      31.596  16.126   5.584  0.00  0.00     0.143 C 
HETATM   10  O   UNK N   1      32.754  16.022   5.222  0.00  0.00    -0.650 OA
BRANCH   9  11
HETATM   11  O   UNK N   1      30.626  16.155   4.649  0.00  0.00    -0.776 OA
HETATM   12  H   UNK N   1      29.749  16.379   4.890  0.00  0.00     0.167 HD
ENDBRANCH   9  11
ENDBRANCH   2   9
ENDBRANCH   1   2
BRANCH   1  13
HETATM   13  C   UNK N   1      28.906  17.297   7.845  0.00  0.00     0.085 C 
BRANCH  13  14
HETATM   14  C   UNK N   1      28.627  18.056   9.120  0.00  0.00     0.143 C 
HETATM   15  O   UNK N   1      29.549  18.514   9.767  0.00  0.00    -0.650 OA
BRANCH  14  16
HETATM   16  O   UNK N   1      27.359  18.261   9.538  0.00  0.00    -0.776 OA
HETATM   17  H   UNK N   1      26.744  17.697   9.965  0.00  0.00     0.167 HD
ENDBRANCH  14  16
ENDBRANCH  13  14
BRANCH  13  18
HETATM   18  C   UNK N   1      27.926  17.634   6.702  0.00  0.00     0.030 C 
BRANCH  18  19
HETATM   19  C   UNK N   1      28.152  18.948   5.911  0.00  0.00     0.080 C 
HETATM   20  C   UNK N   1      27.204  20.058   6.330  0.00  0.00     0.021 C 
BRANCH  19  21
HETATM   21  C   UNK N   1      28.089  18.788   4.411  0.00  0.00     0.143 C 
HETATM   22  O   UNK N   1      28.249  17.702   3.885  0.00  0.00    -0.650 OA
BRANCH  21  23
HETATM   23  O   UNK N   1      27.874  19.876   3.640  0.00  0.00    -0.776 OA
HETATM   24  H   UNK N   1      27.617  20.687   4.033  0.00  0.00     0.167 HD
ENDBRANCH  21  23
ENDBRANCH  19  21
ENDBRANCH  18  19
ENDBRANCH  13  18
ENDBRANCH   1  13
TORSDOF 14
ENDMDL
MODEL 2
REMARK VINA RESULT:      -5.4      2.797      4.808
REMARK  14 active torsions:
REMARK  status: ('A' for Active; 'I' for Inactive)
REMARK    1  A    between atoms: O_1  and  C_3 
REMARK    2  A    between atoms: C_3  and  C_4 
REMARK    3  A    between atoms: C_4  and  C_5 
REMARK    4  A    between atoms: C_5  and  C_6 
REMARK    5  A    between atoms: C_6  and  C_7 
REMARK    6  A    between atoms: C_6  and  C_10 
REMARK    7  A    between atoms: C_7  and  O_9 
REMARK    8  A    between atoms: C_10  and  C_11 
REMARK    9  A    between atoms: C_11  and  C_12 
REMARK   10  A    between atoms: C_11  and  C_15 
REMARK   11  A    between atoms: C_12  and  O_14 
REMARK   12  A    between atoms: C_15  and  C_16 
REMARK   13  A    between atoms: C_16  and  C_18 
REMARK   14  A    between atoms: C_18  and  O_19 
ROOT
HETATM    1  C   UNK N   1      32.787  16.056   7.929  0.00  0.00     0.030 C 
ENDROOT
BRANCH   1   2
HETATM    2  C   UNK N   1      32.698  14.865   8.919  0.00  0.00     0.085 C 
BRANCH   2   3
HETATM    3  C   UNK N   1      33.550  15.196  10.154  0.00  0.00     0.025 C 
BRANCH   3   4
HETATM    4  C   UNK N   1      35.048  15.003   9.928  0.00  0.00     0.111 C 
BRANCH   4   5
HETATM    5  C   UNK N   1      35.826  16.105  10.573  0.00  0.00     0.139 C 
HETATM    6  O   UNK N   1      35.268  17.136  10.910  0.00  0.00    -0.650 OA
BRANCH   5   7
HETATM    7  O   UNK N   1      37.141  15.947  10.812  0.00  0.00    -0.776 OA
HETATM    8  H   UNK N   1      37.475  15.910  11.686  0.00  0.00     0.167 HD
ENDBRANCH   5   7
ENDBRANCH   4   5
ENDBRANCH   3   4
ENDBRANCH   2   3
BRANCH   2   9
HETATM    9  C   UNK N   1      33.097  13.517   8.339  0.00  0.00     0.143 C 
HETATM   10  O   UNK N   1      32.787  12.486   8.908  0.00  0.00    -0.650 OA
BRANCH   9  11
HETATM   11  O   UNK N   1      33.861  13.441   7.231  0.00  0.00    -0.776 OA
HETATM   12  H   UNK N   1      34.649  12.933   7.238  0.00  0.00     0.167 HD
ENDBRANCH   9  11
ENDBRANCH   2   9
ENDBRANCH   1   2
BRANCH   1  13
HETATM   13  C   UNK N   1      32.970  17.491   8.473  0.00  0.00     0.085 C 
BRANCH  13  14
HETATM   14  C   UNK N   1      34.127  18.177   7.786  0.00  0.00     0.143 C 
HETATM   15  O   UNK N   1      34.335  17.977   6.605  0.00  0.00    -0.650 OA
BRANCH  14  16
HETATM   16  O   UNK N   1      34.921  19.036   8.462  0.00  0.00    -0.776 OA
HETATM   17  H   UNK N   1      34.980  19.971   8.449  0.00  0.00     0.167 HD
ENDBRANCH  14  16
ENDBRANCH  13  14
BRANCH  13  18
HETATM   18  C   UNK N   1      31.645  18.275   8.373  0.00  0.00     0.030 C 
BRANCH  18  19
HETATM   19  C   UNK N   1      30.317  17.478   8.452  0.00  0.00     0.080 C 
HETATM   20  C   UNK N   1      29.558  17.466   7.137  0.00  0.00     0.021 C 
BRANCH  19  21
HETATM   21  C   UNK N   1      29.388  17.928   9.552  0.00  0.00     0.143 C 
HETATM   22  O   UNK N   1      29.664  18.876  10.264  0.00  0.00    -0.650 OA
BRANCH  21  23
HETATM   23  O   UNK N   1      28.239  17.250   9.764  0.00  0.00    -0.776 OA
HETATM   24  H   UNK N   1      28.229  16.512  10.342  0.00  0.00     0.167 HD
ENDBRANCH  21  23
ENDBRANCH  19  21
ENDBRANCH  18  19
ENDBRANCH  13  18
ENDBRANCH   1  13
TORSDOF 14
ENDMDL
MODEL 3
REMARK VINA RESULT:      -5.4      4.522      6.943
REMARK  14 active torsions:
REMARK  status: ('A' for Active; 'I' for Inactive)
REMARK    1  A    between atoms: O_1  and  C_3 
REMARK    2  A    between atoms: C_3  and  C_4 
REMARK    3  A    between atoms: C_4  and  C_5 
REMARK    4  A    between atoms: C_5  and  C_6 
REMARK    5  A    between atoms: C_6  and  C_7 
REMARK    6  A    between atoms: C_6  and  C_10 
REMARK    7  A    between atoms: C_7  and  O_9 
REMARK    8  A    between atoms: C_10  and  C_11 
REMARK    9  A    between atoms: C_11  and  C_12 
REMARK   10  A    between atoms: C_11  and  C_15 
REMARK   11  A    between atoms: C_12  and  O_14 
REMARK   12  A    between atoms: C_15  and  C_16 
REMARK   13  A    between atoms: C_16  and  C_18 
REMARK   14  A    between atoms: C_18  and  O_19 
ROOT
HETATM    1  C   UNK N   1      33.715  14.940   9.978  0.00  0.00     0.030 C 
ENDROOT
BRANCH   1   2
HETATM    2  C   UNK N   1      35.098  14.810  10.667  0.00  0.00     0.085 C 
BRANCH   2   3
HETATM    3  C   UNK N   1      34.898  14.133  12.032  0.00  0.00     0.025 C 
BRANCH   3   4
HETATM    4  C   UNK N   1      36.195  13.614  12.649  0.00  0.00     0.111 C 
BRANCH   4   5
HETATM    5  C   UNK N   1      36.097  13.590  14.141  0.00  0.00     0.139 C 
HETATM    6  O   UNK N   1      35.016  13.436  14.684  0.00  0.00    -0.650 OA
BRANCH   5   7
HETATM    7  O   UNK N   1      37.210  13.708  14.888  0.00  0.00    -0.776 OA
HETATM    8  H   UNK N   1      37.696  14.509  14.913  0.00  0.00     0.167 HD
ENDBRANCH   5   7
ENDBRANCH   4   5
ENDBRANCH   3   4
ENDBRANCH   2   3
BRANCH   2   9
HETATM    9  C   UNK N   1      35.862  16.115  10.825  0.00  0.00     0.143 C 
HETATM   10  O   UNK N   1      35.264  17.171  10.929  0.00  0.00    -0.650 OA
BRANCH   9  11
HETATM   11  O   UNK N   1      37.210  16.137  10.779  0.00  0.00    -0.776 OA
HETATM   12  H   UNK N   1      37.658  16.918  10.521  0.00  0.00     0.167 HD
ENDBRANCH   9  11
ENDBRANCH   2   9
ENDBRANCH   1   2
BRANCH   1  13
HETATM   13  C   UNK N   1      33.582  14.646   8.467  0.00  0.00     0.085 C 
BRANCH  13  14
HETATM   14  C   UNK N   1      32.819  13.362   8.240  0.00  0.00     0.143 C 
HETATM   15  O   UNK N   1      32.587  12.987   7.107  0.00  0.00    -0.650 OA
BRANCH  14  16
HETATM   16  O   UNK N   1      32.416  12.605   9.284  0.00  0.00    -0.776 OA
HETATM   17  H   UNK N   1      31.678  12.038   9.394  0.00  0.00     0.167 HD
ENDBRANCH  14  16
ENDBRANCH  13  14
BRANCH  13  18
HETATM   18  C   UNK N   1      32.972  15.860   7.736  0.00  0.00     0.030 C 
BRANCH  18  19
HETATM   19  C   UNK N   1      33.167  17.264   8.365  0.00  0.00     0.080 C 
HETATM   20  C   UNK N   1      31.872  18.052   8.459  0.00  0.00     0.021 C 
BRANCH  19  21
HETATM   21  C   UNK N   1      34.209  18.112   7.678  0.00  0.00     0.143 C 
HETATM   22  O   UNK N   1      34.426  18.005   6.486  0.00  0.00    -0.650 OA
BRANCH  21  23
HETATM   23  O   UNK N   1      34.932  18.989   8.409  0.00  0.00    -0.776 OA
HETATM   24  H   UNK N   1      35.298  19.750   8.003  0.00  0.00     0.167 HD
ENDBRANCH  21  23
ENDBRANCH  19  21
ENDBRANCH  18  19
ENDBRANCH  13  18
ENDBRANCH   1  13
TORSDOF 14
ENDMDL
MODEL 4
REMARK VINA RESULT:      -5.4      9.461     11.391
REMARK  14 active torsions:
REMARK  status: ('A' for Active; 'I' for Inactive)
REMARK    1  A    between atoms: O_1  and  C_3 
REMARK    2  A    between atoms: C_3  and  C_4 
REMARK    3  A    between atoms: C_4  and  C_5 
REMARK    4  A    between atoms: C_5  and  C_6 
REMARK    5  A    between atoms: C_6  and  C_7 
REMARK    6  A    between atoms: C_6  and  C_10 
REMARK    7  A    between atoms: C_7  and  O_9 
REMARK    8  A    between atoms: C_10  and  C_11 
REMARK    9  A    between atoms: C_11  and  C_12 
REMARK   10  A    between atoms: C_11  and  C_15 
REMARK   11  A    between atoms: C_12  and  O_14 
REMARK   12  A    between atoms: C_15  and  C_16 
REMARK   13  A    between atoms: C_16  and  C_18 
REMARK   14  A    between atoms: C_18  and  O_19 
ROOT
HETATM    1  C   UNK N   1      19.899  15.929   2.987  0.00  0.00     0.030 C 
ENDROOT
BRANCH   1   2
HETATM    2  C   UNK N   1      20.498  17.035   2.080  0.00  0.00     0.085 C 
BRANCH   2   3
HETATM    3  C   UNK N   1      20.236  18.398   2.739  0.00  0.00     0.025 C 
BRANCH   3   4
HETATM    4  C   UNK N   1      21.506  19.211   2.980  0.00  0.00     0.111 C 
BRANCH   4   5
HETATM    5  C   UNK N   1      21.488  20.471   2.176  0.00  0.00     0.139 C 
HETATM    6  O   UNK N   1      21.427  20.422   0.958  0.00  0.00    -0.650 OA
BRANCH   5   7
HETATM    7  O   UNK N   1      21.509  21.664   2.797  0.00  0.00    -0.776 OA
HETATM    8  H   UNK N   1      21.276  22.451   2.346  0.00  0.00     0.167 HD
ENDBRANCH   5   7
ENDBRANCH   4   5
ENDBRANCH   3   4
ENDBRANCH   2   3
BRANCH   2   9
HETATM    9  C   UNK N   1      19.997  17.030   0.644  0.00  0.00     0.143 C 
HETATM   10  O   UNK N   1      19.318  16.107   0.232  0.00  0.00    -0.650 OA
BRANCH   9  11
HETATM   11  O   UNK N   1      20.353  18.005  -0.216  0.00  0.00    -0.776 OA
HETATM   12  H   UNK N   1      20.689  17.785  -1.062  0.00  0.00     0.167 HD
ENDBRANCH   9  11
ENDBRANCH   2   9
ENDBRANCH   1   2
BRANCH   1  13
HETATM   13  C   UNK N   1      19.894  16.116   4.521  0.00  0.00     0.085 C 
BRANCH  13  14
HETATM   14  C   UNK N   1      18.689  15.442   5.135  0.00  0.00     0.143 C 
HETATM   15  O   UNK N   1      18.009  16.040   5.946  0.00  0.00    -0.650 OA
BRANCH  14  16
HETATM   16  O   UNK N   1      18.339  14.189   4.771  0.00  0.00    -0.776 OA
HETATM   17  H   UNK N   1      17.570  13.853   4.355  0.00  0.00     0.167 HD
ENDBRANCH  14  16
ENDBRANCH  13  14
BRANCH  13  18
HETATM   18  C   UNK N   1      21.234  15.646   5.122  0.00  0.00     0.030 C 
BRANCH  18  19
HETATM   19  C   UNK N   1      21.614  16.146   6.540  0.00  0.00     0.080 C 
HETATM   20  C   UNK N   1      21.293  15.134   7.627  0.00  0.00     0.021 C 
BRANCH  19  21
HETATM   21  C   UNK N   1      21.006  17.476   6.912  0.00  0.00     0.143 C 
HETATM   22  O   UNK N   1      21.476  18.522   6.503  0.00  0.00    -0.650 OA
BRANCH  21  23
HETATM   23  O   UNK N   1      19.934  17.505   7.735  0.00  0.00    -0.776 OA
HETATM   24  H   UNK N   1      19.071  17.583   7.380  0.00  0.00     0.167 HD
ENDBRANCH  21  23
ENDBRANCH  19  21
ENDBRANCH  18  19
ENDBRANCH  13  18
ENDBRANCH   1  13
TORSDOF 14
ENDMDL
MODEL 5
REMARK VINA RESULT:      -5.3     10.633     13.881
REMARK  14 active torsions:
REMARK  status: ('A' for Active; 'I' for Inactive)
REMARK    1  A    between atoms: O_1  and  C_3 
REMARK    2  A    between atoms: C_3  and  C_4 
REMARK    3  A    between atoms: C_4  and  C_5 
REMARK    4  A    between atoms: C_5  and  C_6 
REMARK    5  A    between atoms: C_6  and  C_7 
REMARK    6  A    between atoms: C_6  and  C_10 
REMARK    7  A    between atoms: C_7  and  O_9 
REMARK    8  A    between atoms: C_10  and  C_11 
REMARK    9  A    between atoms: C_11  and  C_12 
REMARK   10  A    between atoms: C_11  and  C_15 
REMARK   11  A    between atoms: C_12  and  O_14 
REMARK   12  A    between atoms: C_15  and  C_16 
REMARK   13  A    between atoms: C_16  and  C_18 
REMARK   14  A    between atoms: C_18  and  O_19 
ROOT
HETATM    1  C   UNK N   1      29.744  24.112  -3.947  0.00  0.00     0.030 C 
ENDROOT
BRANCH   1   2
HETATM    2  C   UNK N   1      28.255  23.950  -4.351  0.00  0.00     0.085 C 
BRANCH   2   3
HETATM    3  C   UNK N   1      27.987  24.837  -5.578  0.00  0.00     0.025 C 
BRANCH   3   4
HETATM    4  C   UNK N   1      27.381  24.077  -6.756  0.00  0.00     0.111 C 
BRANCH   4   5
HETATM    5  C   UNK N   1      25.964  24.496  -6.983  0.00  0.00     0.139 C 
HETATM    6  O   UNK N   1      25.135  24.366  -6.097  0.00  0.00    -0.650 OA
BRANCH   5   7
HETATM    7  O   UNK N   1      25.608  25.048  -8.157  0.00  0.00    -0.776 OA
HETATM    8  H   UNK N   1      25.288  25.927  -8.204  0.00  0.00     0.167 HD
ENDBRANCH   5   7
ENDBRANCH   4   5
ENDBRANCH   3   4
ENDBRANCH   2   3
BRANCH   2   9
HETATM    9  C   UNK N   1      27.253  24.250  -3.247  0.00  0.00     0.143 C 
HETATM   10  O   UNK N   1      27.309  23.654  -2.186  0.00  0.00    -0.650 OA
BRANCH   9  11
HETATM   11  O   UNK N   1      26.245  25.123  -3.447  0.00  0.00    -0.776 OA
HETATM   12  H   UNK N   1      26.040  25.411  -4.314  0.00  0.00     0.167 HD
ENDBRANCH   9  11
ENDBRANCH   2   9
ENDBRANCH   1   2
BRANCH   1  13
HETATM   13  C   UNK N   1      30.665  22.872  -3.906  0.00  0.00     0.085 C 
BRANCH  13  14
HETATM   14  C   UNK N   1      31.038  22.532  -2.483  0.00  0.00     0.143 C 
HETATM   15  O   UNK N   1      32.012  21.840  -2.260  0.00  0.00    -0.650 OA
BRANCH  14  16
HETATM   16  O   UNK N   1      30.317  23.015  -1.446  0.00  0.00    -0.776 OA
HETATM   17  H   UNK N   1      30.086  23.890  -1.202  0.00  0.00     0.167 HD
ENDBRANCH  14  16
ENDBRANCH  13  14
BRANCH  13  18
HETATM   18  C   UNK N   1      30.018  21.698  -4.669  0.00  0.00     0.030 C 
BRANCH  18  19
HETATM   19  C   UNK N   1      30.825  21.040  -5.818  0.00  0.00     0.080 C 
HETATM   20  C   UNK N   1      29.946  20.271  -6.789  0.00  0.00     0.021 C 
BRANCH  19  21
HETATM   21  C   UNK N   1      31.946  20.143  -5.354  0.00  0.00     0.143 C 
HETATM   22  O   UNK N   1      32.944  19.978  -6.030  0.00  0.00    -0.650 OA
BRANCH  21  23
HETATM   23  O   UNK N   1      31.826  19.493  -4.175  0.00  0.00    -0.776 OA
HETATM   24  H   UNK N   1      31.904  19.964  -3.369  0.00  0.00     0.167 HD
ENDBRANCH  21  23
ENDBRANCH  19  21
ENDBRANCH  18  19
ENDBRANCH  13  18
ENDBRANCH   1  13
TORSDOF 14
ENDMDL
MODEL 6
REMARK VINA RESULT:      -5.3      1.478      3.868
REMARK  14 active torsions:
REMARK  status: ('A' for Active; 'I' for Inactive)
REMARK    1  A    between atoms: O_1  and  C_3 
REMARK    2  A    between atoms: C_3  and  C_4 
REMARK    3  A    between atoms: C_4  and  C_5 
REMARK    4  A    between atoms: C_5  and  C_6 
REMARK    5  A    between atoms: C_6  and  C_7 
REMARK    6  A    between atoms: C_6  and  C_10 
REMARK    7  A    between atoms: C_7  and  O_9 
REMARK    8  A    between atoms: C_10  and  C_11 
REMARK    9  A    between atoms: C_11  and  C_12 
REMARK   10  A    between atoms: C_11  and  C_15 
REMARK   11  A    between atoms: C_12  and  O_14 
REMARK   12  A    between atoms: C_15  and  C_16 
REMARK   13  A    between atoms: C_16  and  C_18 
REMARK   14  A    between atoms: C_18  and  O_19 
ROOT
HETATM    1  C   UNK N   1      28.941  17.183   6.861  0.00  0.00     0.030 C 
ENDROOT
BRANCH   1   2
HETATM    2  C   UNK N   1      29.642  17.748   8.124  0.00  0.00     0.085 C 
BRANCH   2   3
HETATM    3  C   UNK N   1      30.978  17.011   8.307  0.00  0.00     0.025 C 
BRANCH   3   4
HETATM    4  C   UNK N   1      32.192  17.938   8.283  0.00  0.00     0.111 C 
BRANCH   4   5
HETATM    5  C   UNK N   1      33.056  17.646   7.098  0.00  0.00     0.139 C 
HETATM    6  O   UNK N   1      32.626  16.977   6.173  0.00  0.00    -0.650 OA
BRANCH   5   7
HETATM    7  O   UNK N   1      34.303  18.149   7.037  0.00  0.00    -0.776 OA
HETATM    8  H   UNK N   1      34.931  17.817   6.426  0.00  0.00     0.167 HD
ENDBRANCH   5   7
ENDBRANCH   4   5
ENDBRANCH   3   4
ENDBRANCH   2   3
BRANCH   2   9
HETATM    9  C   UNK N   1      28.817  17.683   9.400  0.00  0.00     0.143 C 
HETATM   10  O   UNK N   1      29.269  17.155  10.400  0.00  0.00    -0.650 OA
BRANCH   9  11
HETATM   11  O   UNK N   1      27.549  18.140   9.427  0.00  0.00    -0.776 OA
HETATM   12  H   UNK N   1      26.985  17.916  10.140  0.00  0.00     0.167 HD
ENDBRANCH   9  11
ENDBRANCH   2   9
ENDBRANCH   1   2
BRANCH   1  13
HETATM   13  C   UNK N   1      28.636  18.120   5.671  0.00  0.00     0.085 C 
BRANCH  13  14
HETATM   14  C   UNK N   1      29.352  17.652   4.427  0.00  0.00     0.143 C 
HETATM   15  O   UNK N   1      28.734  17.075   3.553  0.00  0.00    -0.650 OA
BRANCH  14  16
HETATM   16  O   UNK N   1      30.671  17.892   4.258  0.00  0.00    -0.776 OA
HETATM   17  H   UNK N   1      31.427  17.365   4.426  0.00  0.00     0.167 HD
ENDBRANCH  14  16
ENDBRANCH  13  14
BRANCH  13  18
HETATM   18  C   UNK N   1      27.112  18.269   5.484  0.00  0.00     0.030 C 
BRANCH  18  19
HETATM   19  C   UNK N   1      26.519  19.701   5.431  0.00  0.00     0.080 C 
HETATM   20  C   UNK N   1      26.768  20.394   4.102  0.00  0.00     0.021 C 
BRANCH  19  21
HETATM   21  C   UNK N   1      26.978  20.604   6.550  0.00  0.00     0.143 C 
HETATM   22  O   UNK N   1      27.638  21.602   6.326  0.00  0.00    -0.650 OA
BRANCH  21  23
HETATM   23  O   UNK N   1      26.670  20.283   7.826  0.00  0.00    -0.776 OA
HETATM   24  H   UNK N   1      25.805  19.995   8.042  0.00  0.00     0.167 HD
ENDBRANCH  21  23
ENDBRANCH  19  21
ENDBRANCH  18  19
ENDBRANCH  13  18
ENDBRANCH   1  13
TORSDOF 14
ENDMDL
MODEL 7
REMARK VINA RESULT:      -5.2     10.622     13.532
REMARK  14 active torsions:
REMARK  status: ('A' for Active; 'I' for Inactive)
REMARK    1  A    between atoms: O_1  and  C_3 
REMARK    2  A    between atoms: C_3  and  C_4 
REMARK    3  A    between atoms: C_4  and  C_5 
REMARK    4  A    between atoms: C_5  and  C_6 
REMARK    5  A    between atoms: C_6  and  C_7 
REMARK    6  A    between atoms: C_6  and  C_10 
REMARK    7  A    between atoms: C_7  and  O_9 
REMARK    8  A    between atoms: C_10  and  C_11 
REMARK    9  A    between atoms: C_11  and  C_12 
REMARK   10  A    between atoms: C_11  and  C_15 
REMARK   11  A    between atoms: C_12  and  O_14 
REMARK   12  A    between atoms: C_15  and  C_16 
REMARK   13  A    between atoms: C_16  and  C_18 
REMARK   14  A    between atoms: C_18  and  O_19 
ROOT
HETATM    1  C   UNK N   1      29.645  24.453  -3.682  0.00  0.00     0.030 C 
ENDROOT
BRANCH   1   2
HETATM    2  C   UNK N   1      28.214  24.444  -4.281  0.00  0.00     0.085 C 
BRANCH   2   3
HETATM    3  C   UNK N   1      27.954  25.811  -4.933  0.00  0.00     0.025 C 
BRANCH   3   4
HETATM    4  C   UNK N   1      28.169  26.988  -3.984  0.00  0.00     0.111 C 
BRANCH   4   5
HETATM    5  C   UNK N   1      26.897  27.748  -3.787  0.00  0.00     0.139 C 
HETATM    6  O   UNK N   1      26.615  28.678  -4.525  0.00  0.00    -0.650 OA
BRANCH   5   7
HETATM    7  O   UNK N   1      26.044  27.387  -2.811  0.00  0.00    -0.776 OA
HETATM    8  H   UNK N   1      25.978  27.878  -2.016  0.00  0.00     0.167 HD
ENDBRANCH   5   7
ENDBRANCH   4   5
ENDBRANCH   3   4
ENDBRANCH   2   3
BRANCH   2   9
HETATM    9  C   UNK N   1      27.107  24.103  -3.295  0.00  0.00     0.143 C 
HETATM   10  O   UNK N   1      25.947  24.362  -3.558  0.00  0.00    -0.650 OA
BRANCH   9  11
HETATM   11  O   UNK N   1      27.396  23.577  -2.088  0.00  0.00    -0.776 OA
HETATM   12  H   UNK N   1      28.152  23.034  -1.981  0.00  0.00     0.167 HD
ENDBRANCH   9  11
ENDBRANCH   2   9
ENDBRANCH   1   2
BRANCH   1  13
HETATM   13  C   UNK N   1      30.516  23.179  -3.760  0.00  0.00     0.085 C 
BRANCH  13  14
HETATM   14  C   UNK N   1      30.925  22.729  -2.378  0.00  0.00     0.143 C 
HETATM   15  O   UNK N   1      30.281  23.083  -1.410  0.00  0.00    -0.650 OA
BRANCH  14  16
HETATM   16  O   UNK N   1      31.986  21.909  -2.205  0.00  0.00    -0.776 OA
HETATM   17  H   UNK N   1      32.041  20.988  -2.043  0.00  0.00     0.167 HD
ENDBRANCH  14  16
ENDBRANCH  13  14
BRANCH  13  18
HETATM   18  C   UNK N   1      29.794  22.085  -4.574  0.00  0.00     0.030 C 
BRANCH  18  19
HETATM   19  C   UNK N   1      30.546  21.450  -5.772  0.00  0.00     0.080 C 
HETATM   20  C   UNK N   1      29.609  20.939  -6.852  0.00  0.00     0.021 C 
BRANCH  19  21
HETATM   21  C   UNK N   1      31.502  20.347  -5.389  0.00  0.00     0.143 C 
HETATM   22  O   UNK N   1      32.316  19.913  -6.183  0.00  0.00    -0.650 OA
BRANCH  21  23
HETATM   23  O   UNK N   1      31.435  19.816  -4.148  0.00  0.00    -0.776 OA
HETATM   24  H   UNK N   1      30.658  19.919  -3.635  0.00  0.00     0.167 HD
ENDBRANCH  21  23
ENDBRANCH  19  21
ENDBRANCH  18  19
ENDBRANCH  13  18
ENDBRANCH   1  13
TORSDOF 14
ENDMDL
MODEL 8
REMARK VINA RESULT:      -5.2      2.061      4.327
REMARK  14 active torsions:
REMARK  status: ('A' for Active; 'I' for Inactive)
REMARK    1  A    between atoms: O_1  and  C_3 
REMARK    2  A    between atoms: C_3  and  C_4 
REMARK    3  A    between atoms: C_4  and  C_5 
REMARK    4  A    between atoms: C_5  and  C_6 
REMARK    5  A    between atoms: C_6  and  C_7 
REMARK    6  A    between atoms: C_6  and  C_10 
REMARK    7  A    between atoms: C_7  and  O_9 
REMARK    8  A    between atoms: C_10  and  C_11 
REMARK    9  A    between atoms: C_11  and  C_12 
REMARK   10  A    between atoms: C_11  and  C_15 
REMARK   11  A    between atoms: C_12  and  O_14 
REMARK   12  A    between atoms: C_15  and  C_16 
REMARK   13  A    between atoms: C_16  and  C_18 
REMARK   14  A    between atoms: C_18  and  O_19 
ROOT
HETATM    1  C   UNK N   1      32.731  16.136   7.481  0.00  0.00     0.030 C 
ENDROOT
BRANCH   1   2
HETATM    2  C   UNK N   1      33.254  17.586   7.308  0.00  0.00     0.085 C 
BRANCH   2   3
HETATM    3  C   UNK N   1      33.702  17.768   5.849  0.00  0.00     0.025 C 
BRANCH   3   4
HETATM    4  C   UNK N   1      33.375  16.571   4.959  0.00  0.00     0.111 C 
BRANCH   4   5
HETATM    5  C   UNK N   1      32.693  17.015   3.705  0.00  0.00     0.139 C 
HETATM    6  O   UNK N   1      32.937  16.463   2.644  0.00  0.00    -0.650 OA
BRANCH   5   7
HETATM    7  O   UNK N   1      31.785  18.007   3.750  0.00  0.00    -0.776 OA
HETATM    8  H   UNK N   1      30.931  17.868   4.111  0.00  0.00     0.167 HD
ENDBRANCH   5   7
ENDBRANCH   4   5
ENDBRANCH   3   4
ENDBRANCH   2   3
BRANCH   2   9
HETATM    9  C   UNK N   1      34.369  17.985   8.263  0.00  0.00     0.143 C 
HETATM   10  O   UNK N   1      34.857  19.100   8.208  0.00  0.00    -0.650 OA
BRANCH   9  11
HETATM   11  O   UNK N   1      34.885  17.095   9.133  0.00  0.00    -0.776 OA
HETATM   12  H   UNK N   1      34.322  16.646   9.734  0.00  0.00     0.167 HD
ENDBRANCH   9  11
ENDBRANCH   2   9
ENDBRANCH   1   2
BRANCH   1  13
HETATM   13  C   UNK N   1      31.529  15.861   8.412  0.00  0.00     0.085 C 
BRANCH  13  14
HETATM   14  C   UNK N   1      31.995  15.284   9.727  0.00  0.00     0.143 C 
HETATM   15  O   UNK N   1      33.129  14.859   9.835  0.00  0.00    -0.650 OA
BRANCH  14  16
HETATM   16  O   UNK N   1      31.174  15.262  10.801  0.00  0.00    -0.776 OA
HETATM   17  H   UNK N   1      30.723  14.559  11.225  0.00  0.00     0.167 HD
ENDBRANCH  14  16
ENDBRANCH  13  14
BRANCH  13  18
HETATM   18  C   UNK N   1      30.671  17.133   8.568  0.00  0.00     0.030 C 
BRANCH  18  19
HETATM   19  C   UNK N   1      29.309  17.191   7.829  0.00  0.00     0.080 C 
HETATM   20  C   UNK N   1      29.461  17.289   6.321  0.00  0.00     0.021 C 
BRANCH  19  21
HETATM   21  C   UNK N   1      28.392  18.293   8.302  0.00  0.00     0.143 C 
HETATM   22  O   UNK N   1      28.373  19.378   7.752  0.00  0.00    -0.650 OA
BRANCH  21  23
HETATM   23  O   UNK N   1      27.597  18.075   9.373  0.00  0.00    -0.776 OA
HETATM   24  H   UNK N   1      27.009  18.743   9.665  0.00  0.00     0.167 HD
ENDBRANCH  21  23
ENDBRANCH  19  21
ENDBRANCH  18  19
ENDBRANCH  13  18
ENDBRANCH   1  13
TORSDOF 14
ENDMDL
MODEL 9
REMARK VINA RESULT:      -5.2      1.454      5.080
REMARK  14 active torsions:
REMARK  status: ('A' for Active; 'I' for Inactive)
REMARK    1  A    between atoms: O_1  and  C_3 
REMARK    2  A    between atoms: C_3  and  C_4 
REMARK    3  A    between atoms: C_4  and  C_5 
REMARK    4  A    between atoms: C_5  and  C_6 
REMARK    5  A    between atoms: C_6  and  C_7 
REMARK    6  A    between atoms: C_6  and  C_10 
REMARK    7  A    between atoms: C_7  and  O_9 
REMARK    8  A    between atoms: C_10  and  C_11 
REMARK    9  A    between atoms: C_11  and  C_12 
REMARK   10  A    between atoms: C_11  and  C_15 
REMARK   11  A    between atoms: C_12  and  O_14 
REMARK   12  A    between atoms: C_15  and  C_16 
REMARK   13  A    between atoms: C_16  and  C_18 
REMARK   14  A    between atoms: C_18  and  O_19 
ROOT
HETATM    1  C   UNK N   1      29.780  17.232   7.047  0.00  0.00     0.030 C 
ENDROOT
BRANCH   1   2
HETATM    2  C   UNK N   1      29.649  17.943   5.674  0.00  0.00     0.085 C 
BRANCH   2   3
HETATM    3  C   UNK N   1      28.156  18.175   5.389  0.00  0.00     0.025 C 
BRANCH   3   4
HETATM    4  C   UNK N   1      27.819  19.628   5.062  0.00  0.00     0.111 C 
BRANCH   4   5
HETATM    5  C   UNK N   1      27.490  20.388   6.307  0.00  0.00     0.139 C 
HETATM    6  O   UNK N   1      27.547  21.607   6.316  0.00  0.00    -0.650 OA
BRANCH   5   7
HETATM    7  O   UNK N   1      27.102  19.728   7.413  0.00  0.00    -0.776 OA
HETATM    8  H   UNK N   1      27.259  18.809   7.511  0.00  0.00     0.167 HD
ENDBRANCH   5   7
ENDBRANCH   4   5
ENDBRANCH   3   4
ENDBRANCH   2   3
BRANCH   2   9
HETATM    9  C   UNK N   1      30.309  17.221   4.511  0.00  0.00     0.143 C 
HETATM   10  O   UNK N   1      31.418  16.735   4.638  0.00  0.00    -0.650 OA
BRANCH   9  11
HETATM   11  O   UNK N   1      29.714  17.170   3.302  0.00  0.00    -0.776 OA
HETATM   12  H   UNK N   1      28.788  17.042   3.241  0.00  0.00     0.167 HD
ENDBRANCH   9  11
ENDBRANCH   2   9
ENDBRANCH   1   2
BRANCH   1  13
HETATM   13  C   UNK N   1      29.992  18.070   8.327  0.00  0.00     0.085 C 
BRANCH  13  14
HETATM   14  C   UNK N   1      29.150  17.533   9.460  0.00  0.00     0.143 C 
HETATM   15  O   UNK N   1      27.944  17.683   9.442  0.00  0.00    -0.650 OA
BRANCH  14  16
HETATM   16  O   UNK N   1      29.719  16.860  10.484  0.00  0.00    -0.776 OA
HETATM   17  H   UNK N   1      30.106  17.154  11.285  0.00  0.00     0.167 HD
ENDBRANCH  14  16
ENDBRANCH  13  14
BRANCH  13  18
HETATM   18  C   UNK N   1      31.494  18.160   8.666  0.00  0.00     0.030 C 
BRANCH  18  19
HETATM   19  C   UNK N   1      32.472  17.230   7.901  0.00  0.00     0.080 C 
HETATM   20  C   UNK N   1      32.940  16.052   8.737  0.00  0.00     0.021 C 
BRANCH  19  21
HETATM   21  C   UNK N   1      33.677  17.935   7.328  0.00  0.00     0.143 C 
HETATM   22  O   UNK N   1      34.385  18.642   8.021  0.00  0.00    -0.650 OA
BRANCH  21  23
HETATM   23  O   UNK N   1      33.958  17.797   6.013  0.00  0.00    -0.776 OA
HETATM   24  H   UNK N   1      34.826  17.573   5.739  0.00  0.00     0.167 HD
ENDBRANCH  21  23
ENDBRANCH  19  21
ENDBRANCH  18  19
ENDBRANCH  13  18
ENDBRANCH   1  13
TORSDOF 14
ENDMDL
