REMARK  14 active torsions:
REMARK  status: ('A' for Active; 'I' for Inactive)
REMARK    1  A    between atoms: O_1  and  C_3 
REMARK    2  A    between atoms: C_3  and  C_4 
REMARK    3  A    between atoms: C_4  and  C_5 
REMARK    4  A    between atoms: C_5  and  C_6 
REMARK    5  A    between atoms: C_6  and  C_7 
REMARK    6  A    between atoms: C_6  and  C_10 
REMARK    7  A    between atoms: C_7  and  O_9 
REMARK    8  A    between atoms: C_10  and  C_11 
REMARK    9  A    between atoms: C_11  and  C_12 
REMARK   10  A    between atoms: C_11  and  C_15 
REMARK   11  A    between atoms: C_12  and  O_14 
REMARK   12  A    between atoms: C_15  and  C_16 
REMARK   13  A    between atoms: C_16  and  C_18 
REMARK   14  A    between atoms: C_18  and  O_19 
ROOT
HETATM    1  C   UNK N   1      -0.596  -0.699  -0.413  0.00  0.00     0.030 C 
ENDROOT
BRANCH   1   2
HETATM    2  C   UNK N   1      -1.457  -0.205   0.779  0.00  0.00     0.085 C 
BRANCH   2   3
HETATM    3  C   UNK N   1      -2.617  -1.193   0.981  0.00  0.00     0.025 C 
BRANCH   3   4
HETATM    4  C   UNK N   1      -3.517  -1.332  -0.245  0.00  0.00     0.111 C 
BRANCH   4   5
HETATM    5  C   UNK N   1      -4.953  -1.422   0.161  0.00  0.00     0.139 C 
HETATM    6  O   UNK N   1      -5.499  -0.475   0.703  0.00  0.00    -0.650 OA
BRANCH   5   7
HETATM    7  O   UNK N   1      -5.655  -2.540  -0.099  0.00  0.00    -0.776 OA
HETATM    8  H   UNK N   1      -6.574  -2.506  -0.279  0.00  0.00     0.167 HD
ENDBRANCH   5   7
ENDBRANCH   4   5
ENDBRANCH   3   4
ENDBRANCH   2   3
BRANCH   2   9
HETATM    9  C   UNK N   1      -1.982   1.216   0.647  0.00  0.00     0.143 C 
HETATM   10  O   UNK N   1      -1.210   2.157   0.613  0.00  0.00    -0.650 OA
BRANCH   9  11
HETATM   11  O   UNK N   1      -3.307   1.465   0.639  0.00  0.00    -0.776 OA
HETATM   12  H   UNK N   1      -3.618   2.349   0.633  0.00  0.00     0.167 HD
ENDBRANCH   9  11
ENDBRANCH   2   9
ENDBRANCH   1   2
BRANCH   1  13
HETATM   13  C   UNK N   1       0.850  -0.181  -0.580  0.00  0.00     0.085 C 
BRANCH  13  14
HETATM   14  C   UNK N   1       0.850   1.270  -1.000  0.00  0.00     0.143 C 
HETATM   15  O   UNK N   1       0.300   1.602  -2.032  0.00  0.00    -0.650 OA
BRANCH  14  16
HETATM   16  O   UNK N   1       1.430   2.213  -0.225  0.00  0.00    -0.776 OA
HETATM   17  H   UNK N   1       2.197   2.192   0.313  0.00  0.00     0.167 HD
ENDBRANCH  14  16
ENDBRANCH  13  14
BRANCH  13  18
HETATM   18  C   UNK N   1       1.667  -0.450   0.700  0.00  0.00     0.030 C 
BRANCH  18  19
HETATM   19  C   UNK N   1       3.213  -0.494   0.584  0.00  0.00     0.080 C 
HETATM   20  C   UNK N   1       3.783   0.708  -0.149  0.00  0.00     0.021 C 
BRANCH  19  21
HETATM   21  C   UNK N   1       3.752  -1.755  -0.046  0.00  0.00     0.143 C 
HETATM   22  O   UNK N   1       3.006  -2.621  -0.464  0.00  0.00    -0.650 OA
BRANCH  21  23
HETATM   23  O   UNK N   1       5.089  -1.934  -0.124  0.00  0.00    -0.776 OA
HETATM   24  H   UNK N   1       5.445  -2.799  -0.178  0.00  0.00     0.167 HD
ENDBRANCH  21  23
ENDBRANCH  19  21
ENDBRANCH  18  19
ENDBRANCH  13  18
ENDBRANCH   1  13
TORSDOF 14
