MODEL 1
REMARK VINA RESULT:      -6.9      0.000      0.000
REMARK  3 active torsions:
REMARK  status: ('A' for Active; 'I' for Inactive)
REMARK    1  A    between atoms: C_6  and  C_7 
REMARK    2  A    between atoms: C_12  and  C_13 
REMARK    3  A    between atoms: C_13  and  N_14 
ROOT
HETATM    1  C   UNK N   1      35.524  12.862  15.300  0.00  0.00    -0.026 A 
HETATM    2  C   UNK N   1      34.765  12.139  14.363  0.00  0.00     0.013 A 
HETATM    3  C   UNK N   1      34.871  12.430  12.993  0.00  0.00     0.010 A 
HETATM    4  C   UNK N   1      36.380  13.870  14.845  0.00  0.00     0.013 A 
HETATM    5  C   UNK N   1      36.481  14.154  13.490  0.00  0.00     0.010 A 
HETATM    6  C   UNK N   1      35.733  13.443  12.548  0.00  0.00    -0.040 A 
ENDROOT
BRANCH   6   7
HETATM    7  C   UNK N   1      35.822  13.730  11.064  0.00  0.00     0.167 C 
BRANCH   7   8
HETATM    8  N   UNK N   1      35.260  15.006  10.588  0.00  0.00    -0.347 N 
HETATM    9  C   UNK N   1      34.271  15.094   9.686  0.00  0.00     0.109 A 
HETATM   10  C   UNK N   1      34.003  16.434   9.480  0.00  0.00     0.106 A 
HETATM   11  N   UNK N   1      34.829  17.162  10.257  0.00  0.00    -0.361 N 
HETATM   12  C   UNK N   1      35.586  16.270  10.923  0.00  0.00     0.182 A 
ATOM     13  HN  UNK N   1      34.872  18.179  10.325  1.00  0.00     0.166 HD
ENDBRANCH   7   8
ENDBRANCH   6   7
BRANCH   1  14
HETATM   14  C   UNK N   1      35.441  12.586  16.753  0.00  0.00    -0.026 A 
HETATM   15  C   UNK N   1      35.215  13.642  17.653  0.00  0.00     0.012 A 
HETATM   16  C   UNK N   1      35.134  13.403  19.025  0.00  0.00     0.001 A 
HETATM   17  C   UNK N   1      35.277  12.104  19.515  0.00  0.00     0.000 A 
HETATM   18  C   UNK N   1      35.503  11.044  18.630  0.00  0.00     0.001 A 
HETATM   19  C   UNK N   1      35.584  11.283  17.254  0.00  0.00     0.012 A 
ENDBRANCH   1  14
TORSDOF 3
ENDMDL
MODEL 2
REMARK VINA RESULT:      -6.6      1.725      2.252
REMARK  3 active torsions:
REMARK  status: ('A' for Active; 'I' for Inactive)
REMARK    1  A    between atoms: C_6  and  C_7 
REMARK    2  A    between atoms: C_12  and  C_13 
REMARK    3  A    between atoms: C_13  and  N_14 
ROOT
HETATM    1  C   UNK N   1      35.341  12.495  15.864  0.00  0.00    -0.026 A 
HETATM    2  C   UNK N   1      34.627  11.770  14.894  0.00  0.00     0.013 A 
HETATM    3  C   UNK N   1      34.656  12.173  13.549  0.00  0.00     0.010 A 
HETATM    4  C   UNK N   1      36.075  13.617  15.467  0.00  0.00     0.013 A 
HETATM    5  C   UNK N   1      36.101  14.011  14.137  0.00  0.00     0.010 A 
HETATM    6  C   UNK N   1      35.397  13.300  13.162  0.00  0.00    -0.040 A 
ENDROOT
BRANCH   6   7
HETATM    7  C   UNK N   1      35.406  13.705  11.704  0.00  0.00     0.167 C 
BRANCH   7   8
HETATM    8  N   UNK N   1      36.712  13.747  11.022  0.00  0.00    -0.347 N 
HETATM    9  C   UNK N   1      37.664  12.816  11.178  0.00  0.00     0.109 A 
HETATM   10  C   UNK N   1      38.743  13.177  10.393  0.00  0.00     0.106 A 
HETATM   11  N   UNK N   1      38.447  14.328   9.759  0.00  0.00    -0.361 N 
HETATM   12  C   UNK N   1      37.204  14.657  10.157  0.00  0.00     0.182 A 
ATOM     13  HN  UNK N   1      39.042  14.844   9.110  1.00  0.00     0.166 HD
ENDBRANCH   7   8
ENDBRANCH   6   7
BRANCH   1  14
HETATM   14  C   UNK N   1      35.335  12.103  17.293  0.00  0.00    -0.026 A 
HETATM   15  C   UNK N   1      35.183  13.086  18.287  0.00  0.00     0.012 A 
HETATM   16  C   UNK N   1      35.175  12.739  19.638  0.00  0.00     0.001 A 
HETATM   17  C   UNK N   1      35.319  11.402  20.013  0.00  0.00     0.000 A 
HETATM   18  C   UNK N   1      35.472  10.414  19.034  0.00  0.00     0.001 A 
HETATM   19  C   UNK N   1      35.480  10.762  17.679  0.00  0.00     0.012 A 
ENDBRANCH   1  14
TORSDOF 3
ENDMDL
MODEL 3
REMARK VINA RESULT:      -6.3      1.096      2.130
REMARK  3 active torsions:
REMARK  status: ('A' for Active; 'I' for Inactive)
REMARK    1  A    between atoms: C_6  and  C_7 
REMARK    2  A    between atoms: C_12  and  C_13 
REMARK    3  A    between atoms: C_13  and  N_14 
ROOT
HETATM    1  C   UNK N   1      35.576  12.954  15.431  0.00  0.00    -0.026 A 
HETATM    2  C   UNK N   1      36.381  14.033  15.024  0.00  0.00     0.013 A 
HETATM    3  C   UNK N   1      36.462  14.382  13.667  0.00  0.00     0.010 A 
HETATM    4  C   UNK N   1      34.862  12.240  14.463  0.00  0.00     0.013 A 
HETATM    5  C   UNK N   1      34.945  12.588  13.122  0.00  0.00     0.010 A 
HETATM    6  C   UNK N   1      35.742  13.658  12.705  0.00  0.00    -0.040 A 
ENDROOT
BRANCH   6   7
HETATM    7  C   UNK N   1      35.852  14.061  11.250  0.00  0.00     0.167 C 
BRANCH   7   8
HETATM    8  N   UNK N   1      34.617  14.037  10.446  0.00  0.00    -0.347 N 
HETATM    9  C   UNK N   1      34.330  13.082   9.550  0.00  0.00     0.109 A 
HETATM   10  C   UNK N   1      33.102  13.380   8.990  0.00  0.00     0.106 A 
HETATM   11  N   UNK N   1      32.642  14.518   9.546  0.00  0.00    -0.361 N 
HETATM   12  C   UNK N   1      33.582  14.900  10.430  0.00  0.00     0.182 A 
ATOM     13  HN  UNK N   1      31.762  14.991   9.339  1.00  0.00     0.166 HD
ENDBRANCH   7   8
ENDBRANCH   6   7
BRANCH   1  14
HETATM   14  C   UNK N   1      35.464  12.555  16.853  0.00  0.00    -0.026 A 
HETATM   15  C   UNK N   1      35.627  11.206  17.215  0.00  0.00     0.012 A 
HETATM   16  C   UNK N   1      35.526  10.809  18.548  0.00  0.00     0.001 A 
HETATM   17  C   UNK N   1      35.259  11.757  19.538  0.00  0.00     0.000 A 
HETATM   18  C   UNK N   1      35.095  13.102  19.191  0.00  0.00     0.001 A 
HETATM   19  C   UNK N   1      35.197  13.501  17.854  0.00  0.00     0.012 A 
ENDBRANCH   1  14
TORSDOF 3
ENDMDL
MODEL 4
REMARK VINA RESULT:      -6.2      1.803      3.488
REMARK  3 active torsions:
REMARK  status: ('A' for Active; 'I' for Inactive)
REMARK    1  A    between atoms: C_6  and  C_7 
REMARK    2  A    between atoms: C_12  and  C_13 
REMARK    3  A    between atoms: C_13  and  N_14 
ROOT
HETATM    1  C   UNK N   1      35.382  11.443  17.677  0.00  0.00    -0.026 A 
HETATM    2  C   UNK N   1      35.082  12.817  17.702  0.00  0.00     0.013 A 
HETATM    3  C   UNK N   1      35.507  13.650  16.655  0.00  0.00     0.010 A 
HETATM    4  C   UNK N   1      36.106  10.926  16.598  0.00  0.00     0.013 A 
HETATM    5  C   UNK N   1      36.523  11.755  15.566  0.00  0.00     0.010 A 
HETATM    6  C   UNK N   1      36.233  13.122  15.577  0.00  0.00    -0.040 A 
ENDROOT
BRANCH   6   7
HETATM    7  C   UNK N   1      36.675  14.049  14.466  0.00  0.00     0.167 C 
BRANCH   7   8
HETATM    8  N   UNK N   1      35.889  14.035  13.220  0.00  0.00    -0.347 N 
HETATM    9  C   UNK N   1      35.881  15.040  12.332  0.00  0.00     0.109 A 
HETATM   10  C   UNK N   1      35.039  14.684  11.295  0.00  0.00     0.106 A 
HETATM   11  N   UNK N   1      34.536  13.461  11.552  0.00  0.00    -0.361 N 
HETATM   12  C   UNK N   1      35.068  13.085  12.730  0.00  0.00     0.182 A 
ATOM     13  HN  UNK N   1      33.886  12.930  10.972  1.00  0.00     0.166 HD
ENDBRANCH   7   8
ENDBRANCH   6   7
BRANCH   1  14
HETATM   14  C   UNK N   1      34.951  10.530  18.762  0.00  0.00    -0.026 A 
HETATM   15  C   UNK N   1      34.420   9.268  18.443  0.00  0.00     0.012 A 
HETATM   16  C   UNK N   1      34.009   8.394  19.449  0.00  0.00     0.001 A 
HETATM   17  C   UNK N   1      34.124   8.770  20.789  0.00  0.00     0.000 A 
HETATM   18  C   UNK N   1      34.652  10.023  21.119  0.00  0.00     0.001 A 
HETATM   19  C   UNK N   1      35.064  10.900  20.110  0.00  0.00     0.012 A 
ENDBRANCH   1  14
TORSDOF 3
ENDMDL
MODEL 5
REMARK VINA RESULT:      -6.2      9.973     14.039
REMARK  3 active torsions:
REMARK  status: ('A' for Active; 'I' for Inactive)
REMARK    1  A    between atoms: C_6  and  C_7 
REMARK    2  A    between atoms: C_12  and  C_13 
REMARK    3  A    between atoms: C_13  and  N_14 
ROOT
HETATM    1  C   UNK N   1      27.614  18.877   6.018  0.00  0.00    -0.026 A 
HETATM    2  C   UNK N   1      27.006  20.141   6.116  0.00  0.00     0.013 A 
HETATM    3  C   UNK N   1      26.088  20.560   5.140  0.00  0.00     0.010 A 
HETATM    4  C   UNK N   1      27.289  18.051   4.937  0.00  0.00     0.013 A 
HETATM    5  C   UNK N   1      26.381  18.470   3.975  0.00  0.00     0.010 A 
HETATM    6  C   UNK N   1      25.769  19.723   4.060  0.00  0.00    -0.040 A 
ENDROOT
BRANCH   6   7
HETATM    7  C   UNK N   1      24.776  20.207   3.026  0.00  0.00     0.167 C 
BRANCH   7   8
HETATM    8  N   UNK N   1      23.353  19.901   3.259  0.00  0.00    -0.347 N 
HETATM    9  C   UNK N   1      22.343  20.578   2.695  0.00  0.00     0.109 A 
HETATM   10  C   UNK N   1      21.158  20.020   3.137  0.00  0.00     0.106 A 
HETATM   11  N   UNK N   1      21.449  19.002   3.971  0.00  0.00    -0.361 N 
HETATM   12  C   UNK N   1      22.792  18.948   4.030  0.00  0.00     0.182 A 
ATOM     13  HN  UNK N   1      20.786  18.397   4.457  1.00  0.00     0.166 HD
ENDBRANCH   7   8
ENDBRANCH   6   7
BRANCH   1  14
HETATM   14  C   UNK N   1      28.587  18.397   7.027  0.00  0.00    -0.026 A 
HETATM   15  C   UNK N   1      28.484  18.833   8.360  0.00  0.00     0.012 A 
HETATM   16  C   UNK N   1      29.390  18.394   9.325  0.00  0.00     0.001 A 
HETATM   17  C   UNK N   1      30.412  17.512   8.970  0.00  0.00     0.000 A 
HETATM   18  C   UNK N   1      30.526  17.070   7.647  0.00  0.00     0.001 A 
HETATM   19  C   UNK N   1      29.617  17.511   6.679  0.00  0.00     0.012 A 
ENDBRANCH   1  14
TORSDOF 3
ENDMDL
MODEL 6
REMARK VINA RESULT:      -6.2      6.491     11.880
REMARK  3 active torsions:
REMARK  status: ('A' for Active; 'I' for Inactive)
REMARK    1  A    between atoms: C_6  and  C_7 
REMARK    2  A    between atoms: C_12  and  C_13 
REMARK    3  A    between atoms: C_13  and  N_14 
ROOT
HETATM    1  C   UNK N   1      28.967  18.113   6.138  0.00  0.00    -0.026 A 
HETATM    2  C   UNK N   1      29.037  17.970   7.535  0.00  0.00     0.013 A 
HETATM    3  C   UNK N   1      30.049  17.190   8.115  0.00  0.00     0.010 A 
HETATM    4  C   UNK N   1      29.919  17.467   5.342  0.00  0.00     0.013 A 
HETATM    5  C   UNK N   1      30.918  16.697   5.920  0.00  0.00     0.010 A 
HETATM    6  C   UNK N   1      31.000  16.546   7.307  0.00  0.00    -0.040 A 
ENDROOT
BRANCH   6   7
HETATM    7  C   UNK N   1      32.078  15.713   7.966  0.00  0.00     0.167 C 
BRANCH   7   8
HETATM    8  N   UNK N   1      33.228  16.430   8.544  0.00  0.00    -0.347 N 
HETATM    9  C   UNK N   1      34.026  15.917   9.492  0.00  0.00     0.109 A 
HETATM   10  C   UNK N   1      34.990  16.861   9.792  0.00  0.00     0.106 A 
HETATM   11  N   UNK N   1      34.779  17.949   9.025  0.00  0.00    -0.361 N 
HETATM   12  C   UNK N   1      33.700  17.663   8.273  0.00  0.00     0.182 A 
ATOM     13  HN  UNK N   1      35.325  18.810   9.016  1.00  0.00     0.166 HD
ENDBRANCH   7   8
ENDBRANCH   6   7
BRANCH   1  14
HETATM   14  C   UNK N   1      27.914  18.927   5.487  0.00  0.00    -0.026 A 
HETATM   15  C   UNK N   1      27.373  18.516   4.256  0.00  0.00     0.012 A 
HETATM   16  C   UNK N   1      26.381  19.268   3.627  0.00  0.00     0.001 A 
HETATM   17  C   UNK N   1      25.916  20.442   4.221  0.00  0.00     0.000 A 
HETATM   18  C   UNK N   1      26.446  20.863   5.446  0.00  0.00     0.001 A 
HETATM   19  C   UNK N   1      27.441  20.109   6.078  0.00  0.00     0.012 A 
ENDBRANCH   1  14
TORSDOF 3
ENDMDL
MODEL 7
REMARK VINA RESULT:      -6.1     19.428     21.783
REMARK  3 active torsions:
REMARK  status: ('A' for Active; 'I' for Inactive)
REMARK    1  A    between atoms: C_6  and  C_7 
REMARK    2  A    between atoms: C_12  and  C_13 
REMARK    3  A    between atoms: C_13  and  N_14 
ROOT
HETATM    1  C   UNK N   1      30.140  22.388  -3.890  0.00  0.00    -0.026 A 
HETATM    2  C   UNK N   1      29.552  22.821  -2.688  0.00  0.00     0.013 A 
HETATM    3  C   UNK N   1      28.415  23.644  -2.714  0.00  0.00     0.010 A 
HETATM    4  C   UNK N   1      29.575  22.791  -5.104  0.00  0.00     0.013 A 
HETATM    5  C   UNK N   1      28.451  23.604  -5.125  0.00  0.00     0.010 A 
HETATM    6  C   UNK N   1      27.856  24.042  -3.938  0.00  0.00    -0.040 A 
ENDROOT
BRANCH   6   7
HETATM    7  C   UNK N   1      26.630  24.929  -3.929  0.00  0.00     0.167 C 
BRANCH   7   8
HETATM    8  N   UNK N   1      26.834  26.362  -3.651  0.00  0.00    -0.347 N 
HETATM    9  C   UNK N   1      27.926  27.045  -4.025  0.00  0.00     0.109 A 
HETATM   10  C   UNK N   1      27.775  28.352  -3.600  0.00  0.00     0.106 A 
HETATM   11  N   UNK N   1      26.591  28.463  -2.967  0.00  0.00    -0.361 N 
HETATM   12  C   UNK N   1      26.035  27.238  -3.011  0.00  0.00     0.182 A 
ATOM     13  HN  UNK N   1      26.197  29.303  -2.543  1.00  0.00     0.166 HD
ENDBRANCH   7   8
ENDBRANCH   6   7
BRANCH   1  14
HETATM   14  C   UNK N   1      31.340  21.519  -3.904  0.00  0.00    -0.026 A 
HETATM   15  C   UNK N   1      32.316  21.659  -2.903  0.00  0.00     0.012 A 
HETATM   16  C   UNK N   1      33.454  20.851  -2.898  0.00  0.00     0.001 A 
HETATM   17  C   UNK N   1      33.629  19.892  -3.897  0.00  0.00     0.000 A 
HETATM   18  C   UNK N   1      32.666  19.742  -4.900  0.00  0.00     0.001 A 
HETATM   19  C   UNK N   1      31.525  20.553  -4.905  0.00  0.00     0.012 A 
ENDBRANCH   1  14
TORSDOF 3
ENDMDL
MODEL 8
REMARK VINA RESULT:      -6.0      3.383      3.893
REMARK  3 active torsions:
REMARK  status: ('A' for Active; 'I' for Inactive)
REMARK    1  A    between atoms: C_6  and  C_7 
REMARK    2  A    between atoms: C_12  and  C_13 
REMARK    3  A    between atoms: C_13  and  N_14 
ROOT
HETATM    1  C   UNK N   1      34.910  10.760  15.830  0.00  0.00    -0.026 A 
HETATM    2  C   UNK N   1      33.962  11.262  14.922  0.00  0.00     0.013 A 
HETATM    3  C   UNK N   1      33.835  10.690  13.646  0.00  0.00     0.010 A 
HETATM    4  C   UNK N   1      35.719   9.687  15.442  0.00  0.00     0.013 A 
HETATM    5  C   UNK N   1      35.590   9.125  14.180  0.00  0.00     0.010 A 
HETATM    6  C   UNK N   1      34.652   9.614  13.266  0.00  0.00    -0.040 A 
ENDROOT
BRANCH   6   7
HETATM    7  C   UNK N   1      34.488   9.021  11.883  0.00  0.00     0.167 C 
BRANCH   7   8
HETATM    8  N   UNK N   1      33.856   9.868  10.856  0.00  0.00    -0.347 N 
HETATM    9  C   UNK N   1      34.487  10.866  10.221  0.00  0.00     0.109 A 
HETATM   10  C   UNK N   1      33.595  11.436   9.333  0.00  0.00     0.106 A 
HETATM   11  N   UNK N   1      32.420  10.784   9.428  0.00  0.00    -0.361 N 
HETATM   12  C   UNK N   1      32.603   9.832  10.362  0.00  0.00     0.182 A 
ATOM     13  HN  UNK N   1      31.567  10.973   8.900  1.00  0.00     0.166 HD
ENDBRANCH   7   8
ENDBRANCH   6   7
BRANCH   1  14
HETATM   14  C   UNK N   1      35.075  11.335  17.186  0.00  0.00    -0.026 A 
HETATM   15  C   UNK N   1      35.040  12.730  17.362  0.00  0.00     0.012 A 
HETATM   16  C   UNK N   1      35.193  13.292  18.629  0.00  0.00     0.001 A 
HETATM   17  C   UNK N   1      35.384  12.466  19.738  0.00  0.00     0.000 A 
HETATM   18  C   UNK N   1      35.421  11.077  19.577  0.00  0.00     0.001 A 
HETATM   19  C   UNK N   1      35.267  10.513  18.306  0.00  0.00     0.012 A 
ENDBRANCH   1  14
TORSDOF 3
ENDMDL
MODEL 9
REMARK VINA RESULT:      -6.0     13.520     15.592
REMARK  3 active torsions:
REMARK  status: ('A' for Active; 'I' for Inactive)
REMARK    1  A    between atoms: C_6  and  C_7 
REMARK    2  A    between atoms: C_12  and  C_13 
REMARK    3  A    between atoms: C_13  and  N_14 
ROOT
HETATM    1  C   UNK N   1      21.468  13.878   8.709  0.00  0.00    -0.026 A 
HETATM    2  C   UNK N   1      21.314  13.344   7.417  0.00  0.00     0.013 A 
HETATM    3  C   UNK N   1      20.597  14.053   6.441  0.00  0.00     0.010 A 
HETATM    4  C   UNK N   1      20.897  15.121   9.000  0.00  0.00     0.013 A 
HETATM    5  C   UNK N   1      20.189  15.819   8.031  0.00  0.00     0.010 A 
HETATM    6  C   UNK N   1      20.029  15.300   6.744  0.00  0.00    -0.040 A 
ENDROOT
BRANCH   6   7
HETATM    7  C   UNK N   1      19.262  16.037   5.667  0.00  0.00     0.167 C 
BRANCH   7   8
HETATM    8  N   UNK N   1      20.049  16.736   4.635  0.00  0.00    -0.347 N 
HETATM    9  C   UNK N   1      21.043  17.593   4.910  0.00  0.00     0.109 A 
HETATM   10  C   UNK N   1      21.551  18.053   3.709  0.00  0.00     0.106 A 
HETATM   11  N   UNK N   1      20.865  17.475   2.704  0.00  0.00    -0.361 N 
HETATM   12  C   UNK N   1      19.955  16.677   3.292  0.00  0.00     0.182 A 
ATOM     13  HN  UNK N   1      21.007  17.614   1.703  1.00  0.00     0.166 HD
ENDBRANCH   7   8
ENDBRANCH   6   7
BRANCH   1  14
HETATM   14  C   UNK N   1      22.217  13.161   9.767  0.00  0.00    -0.026 A 
HETATM   15  C   UNK N   1      21.525  12.599  10.854  0.00  0.00     0.012 A 
HETATM   16  C   UNK N   1      22.210  11.920  11.861  0.00  0.00     0.001 A 
HETATM   17  C   UNK N   1      23.599  11.794  11.794  0.00  0.00     0.000 A 
HETATM   18  C   UNK N   1      24.300  12.348  10.718  0.00  0.00     0.001 A 
HETATM   19  C   UNK N   1      23.612  13.030   9.707  0.00  0.00     0.012 A 
ENDBRANCH   1  14
TORSDOF 3
ENDMDL
