MODEL 1
REMARK VINA RESULT:      -5.4      0.000      0.000
REMARK  7 active torsions:
REMARK  status: ('A' for Active; 'I' for Inactive)
REMARK    1  A    between atoms: C_1  and  C_2 
REMARK    2  A    between atoms: C_1  and  N_5 
REMARK    3  A    between atoms: C_1  and  C_6 
REMARK    4  A    between atoms: C_2  and  O_4 
REMARK    5  A    between atoms: C_6  and  S_7 
REMARK    6  A    between atoms: S_7  and  C_15 
REMARK    7  A    between atoms: C_9  and  C_15 
ROOT
HETATM    1  C   UNK N   1      21.122  19.451   3.732  0.00  0.00     0.109 C 
ENDROOT
BRANCH   1   2
HETATM    2  C   UNK N   1      20.569  19.151   2.346  0.00  0.00     0.182 C 
BRANCH   2   3
HETATM    3  C   UNK N   1      20.910  20.262   1.383  0.00  0.00     0.163 C 
HETATM    4  O   UNK N   1      21.423  21.292   1.777  0.00  0.00    -0.648 OA
BRANCH   3   5
HETATM    5  O   UNK N   1      20.640  20.115   0.068  0.00  0.00    -0.775 OA
HETATM    6  H   UNK N   1      19.885  19.695  -0.296  0.00  0.00     0.167 HD
ENDBRANCH   3   5
ENDBRANCH   2   3
BRANCH   2   7
HETATM    7  N   UNK N   1      19.124  19.000   2.448  0.00  0.00    -0.417 N 
HETATM    8  H   UNK N   1      18.438  19.033   1.692  0.00  0.00     0.150 HD
HETATM    9  H   UNK N   1      18.753  18.842   3.384  0.00  0.00     0.150 HD
ENDBRANCH   2   7
ENDBRANCH   1   2
BRANCH   1  10
HETATM   10  S   UNK N   1      21.992  18.010   4.442  0.00  0.00    -0.162 SA
BRANCH  10  11
HETATM   11  C   UNK N   1      21.267  18.306   6.085  0.00  0.00     0.112 C 
BRANCH  11  12
HETATM   12  C   UNK N   1      21.192  17.065   6.917  0.00  0.00    -0.049 A 
HETATM   13  C   UNK N   1      22.075  16.009   6.667  0.00  0.00     0.009 A 
HETATM   14  C   UNK N   1      22.073  14.881   7.496  0.00  0.00     0.019 A 
HETATM   15  C   UNK N   1      21.187  14.808   8.575  0.00  0.00     0.011 A 
HETATM   16 Br   UNK N   1      21.210  13.295   9.734  0.00  0.00    -0.051 Br
HETATM   17  C   UNK N   1      20.297  15.857   8.821  0.00  0.00     0.019 A 
HETATM   18  C   UNK N   1      20.305  16.986   7.999  0.00  0.00     0.009 A 
ENDBRANCH  11  12
ENDBRANCH  10  11
ENDBRANCH   1  10
TORSDOF 7
ENDMDL
MODEL 2
REMARK VINA RESULT:      -5.4      4.645      5.595
REMARK  7 active torsions:
REMARK  status: ('A' for Active; 'I' for Inactive)
REMARK    1  A    between atoms: C_1  and  C_2 
REMARK    2  A    between atoms: C_1  and  N_5 
REMARK    3  A    between atoms: C_1  and  C_6 
REMARK    4  A    between atoms: C_2  and  O_4 
REMARK    5  A    between atoms: C_6  and  S_7 
REMARK    6  A    between atoms: S_7  and  C_15 
REMARK    7  A    between atoms: C_9  and  C_15 
ROOT
HETATM    1  C   UNK N   1      21.175  19.630   3.509  0.00  0.00     0.109 C 
ENDROOT
BRANCH   1   2
HETATM    2  C   UNK N   1      20.668  19.431   2.087  0.00  0.00     0.182 C 
BRANCH   2   3
HETATM    3  C   UNK N   1      20.910  20.668   1.257  0.00  0.00     0.163 C 
HETATM    4  O   UNK N   1      21.071  20.590   0.054  0.00  0.00    -0.648 OA
BRANCH   3   5
HETATM    5  O   UNK N   1      20.952  21.878   1.854  0.00  0.00    -0.775 OA
HETATM    6  H   UNK N   1      20.358  22.587   1.705  0.00  0.00     0.167 HD
ENDBRANCH   3   5
ENDBRANCH   2   3
BRANCH   2   7
HETATM    7  N   UNK N   1      19.244  19.132   2.140  0.00  0.00    -0.417 N 
HETATM    8  H   UNK N   1      18.773  18.440   2.725  0.00  0.00     0.150 HD
HETATM    9  H   UNK N   1      18.646  19.678   1.521  0.00  0.00     0.150 HD
ENDBRANCH   2   7
ENDBRANCH   1   2
BRANCH   1  10
HETATM   10  S   UNK N   1      22.550  18.494   3.903  0.00  0.00    -0.162 SA
BRANCH  10  11
HETATM   11  C   UNK N   1      23.792  19.748   3.461  0.00  0.00     0.112 C 
BRANCH  11  12
HETATM   12  C   UNK N   1      25.196  19.272   3.668  0.00  0.00    -0.049 A 
HETATM   13  C   UNK N   1      26.207  20.198   3.945  0.00  0.00     0.009 A 
HETATM   14  C   UNK N   1      27.505  19.757   4.228  0.00  0.00     0.019 A 
HETATM   15  C   UNK N   1      27.792  18.388   4.233  0.00  0.00     0.011 A 
HETATM   16 Br   UNK N   1      29.546  17.779   4.661  0.00  0.00    -0.051 Br
HETATM   17  C   UNK N   1      26.786  17.461   3.948  0.00  0.00     0.019 A 
HETATM   18  C   UNK N   1      25.489  17.903   3.674  0.00  0.00     0.009 A 
ENDBRANCH  11  12
ENDBRANCH  10  11
ENDBRANCH   1  10
TORSDOF 7
ENDMDL
MODEL 3
REMARK VINA RESULT:      -5.3     16.447     17.664
REMARK  7 active torsions:
REMARK  status: ('A' for Active; 'I' for Inactive)
REMARK    1  A    between atoms: C_1  and  C_2 
REMARK    2  A    between atoms: C_1  and  N_5 
REMARK    3  A    between atoms: C_1  and  C_6 
REMARK    4  A    between atoms: C_2  and  O_4 
REMARK    5  A    between atoms: C_6  and  S_7 
REMARK    6  A    between atoms: S_7  and  C_15 
REMARK    7  A    between atoms: C_9  and  C_15 
ROOT
HETATM    1  C   UNK N   1      35.209  14.438  11.970  0.00  0.00     0.109 C 
ENDROOT
BRANCH   1   2
HETATM    2  C   UNK N   1      36.029  15.618  11.467  0.00  0.00     0.182 C 
BRANCH   2   3
HETATM    3  C   UNK N   1      35.181  16.534  10.617  0.00  0.00     0.163 C 
HETATM    4  O   UNK N   1      35.602  17.617  10.258  0.00  0.00    -0.648 OA
BRANCH   3   5
HETATM    5  O   UNK N   1      33.939  16.150  10.253  0.00  0.00    -0.775 OA
HETATM    6  H   UNK N   1      33.634  16.031   9.375  0.00  0.00     0.167 HD
ENDBRANCH   3   5
ENDBRANCH   2   3
BRANCH   2   7
HETATM    7  N   UNK N   1      37.149  15.105  10.689  0.00  0.00    -0.417 N 
HETATM    8  H   UNK N   1      37.934  15.632  10.304  0.00  0.00     0.150 HD
HETATM    9  H   UNK N   1      37.149  14.102  10.509  0.00  0.00     0.150 HD
ENDBRANCH   2   7
ENDBRANCH   1   2
BRANCH   1  10
HETATM   10  S   UNK N   1      36.270  13.114  12.645  0.00  0.00    -0.162 SA
BRANCH  10  11
HETATM   11  C   UNK N   1      36.405  13.958  14.252  0.00  0.00     0.112 C 
BRANCH  11  12
HETATM   12  C   UNK N   1      36.180  13.039  15.411  0.00  0.00    -0.049 A 
HETATM   13  C   UNK N   1      35.444  13.484  16.515  0.00  0.00     0.009 A 
HETATM   14  C   UNK N   1      35.152  12.605  17.563  0.00  0.00     0.019 A 
HETATM   15  C   UNK N   1      35.597  11.280  17.510  0.00  0.00     0.011 A 
HETATM   16 Br   UNK N   1      35.163  10.066  18.914  0.00  0.00    -0.051 Br
HETATM   17  C   UNK N   1      36.339  10.835  16.413  0.00  0.00     0.019 A 
HETATM   18  C   UNK N   1      36.624  11.711  15.363  0.00  0.00     0.009 A 
ENDBRANCH  11  12
ENDBRANCH  10  11
ENDBRANCH   1  10
TORSDOF 7
ENDMDL
MODEL 4
REMARK VINA RESULT:      -5.3     10.340     11.378
REMARK  7 active torsions:
REMARK  status: ('A' for Active; 'I' for Inactive)
REMARK    1  A    between atoms: C_1  and  C_2 
REMARK    2  A    between atoms: C_1  and  N_5 
REMARK    3  A    between atoms: C_1  and  C_6 
REMARK    4  A    between atoms: C_2  and  O_4 
REMARK    5  A    between atoms: C_6  and  S_7 
REMARK    6  A    between atoms: S_7  and  C_15 
REMARK    7  A    between atoms: C_9  and  C_15 
ROOT
HETATM    1  C   UNK N   1      31.892  17.936   8.400  0.00  0.00     0.109 C 
ENDROOT
BRANCH   1   2
HETATM    2  C   UNK N   1      33.292  17.413   8.691  0.00  0.00     0.182 C 
BRANCH   2   3
HETATM    3  C   UNK N   1      34.323  18.177   7.896  0.00  0.00     0.163 C 
HETATM    4  O   UNK N   1      35.005  19.036   8.424  0.00  0.00    -0.648 OA
BRANCH   3   5
HETATM    5  O   UNK N   1      34.490  17.911   6.583  0.00  0.00    -0.775 OA
HETATM    6  H   UNK N   1      35.119  17.321   6.217  0.00  0.00     0.167 HD
ENDBRANCH   3   5
ENDBRANCH   2   3
BRANCH   2   7
HETATM    7  N   UNK N   1      33.338  15.999   8.345  0.00  0.00    -0.417 N 
HETATM    8  H   UNK N   1      33.910  15.550   7.629  0.00  0.00     0.150 HD
HETATM    9  H   UNK N   1      32.728  15.384   8.883  0.00  0.00     0.150 HD
ENDBRANCH   2   7
ENDBRANCH   1   2
BRANCH   1  10
HETATM   10  S   UNK N   1      31.031  16.914   7.154  0.00  0.00    -0.162 SA
BRANCH  10  11
HETATM   11  C   UNK N   1      29.403  17.522   7.691  0.00  0.00     0.112 C 
BRANCH  11  12
HETATM   12  C   UNK N   1      28.677  18.265   6.614  0.00  0.00    -0.049 A 
HETATM   13  C   UNK N   1      28.662  17.756   5.311  0.00  0.00     0.009 A 
HETATM   14  C   UNK N   1      27.913  18.395   4.317  0.00  0.00     0.019 A 
HETATM   15  C   UNK N   1      27.179  19.545   4.625  0.00  0.00     0.011 A 
HETATM   16 Br   UNK N   1      26.121  20.394   3.286  0.00  0.00    -0.051 Br
HETATM   17  C   UNK N   1      27.200  20.061   5.923  0.00  0.00     0.019 A 
HETATM   18  C   UNK N   1      27.941  19.418   6.917  0.00  0.00     0.009 A 
ENDBRANCH  11  12
ENDBRANCH  10  11
ENDBRANCH   1  10
TORSDOF 7
ENDMDL
MODEL 5
REMARK VINA RESULT:      -5.2     14.713     15.755
REMARK  7 active torsions:
REMARK  status: ('A' for Active; 'I' for Inactive)
REMARK    1  A    between atoms: C_1  and  C_2 
REMARK    2  A    between atoms: C_1  and  N_5 
REMARK    3  A    between atoms: C_1  and  C_6 
REMARK    4  A    between atoms: C_2  and  O_4 
REMARK    5  A    between atoms: C_6  and  S_7 
REMARK    6  A    between atoms: S_7  and  C_15 
REMARK    7  A    between atoms: C_9  and  C_15 
ROOT
HETATM    1  C   UNK N   1      35.013  16.908  10.083  0.00  0.00     0.109 C 
ENDROOT
BRANCH   1   2
HETATM    2  C   UNK N   1      34.170  16.989   8.818  0.00  0.00     0.182 C 
BRANCH   2   3
HETATM    3  C   UNK N   1      34.596  18.161   7.967  0.00  0.00     0.163 C 
HETATM    4  O   UNK N   1      34.357  18.185   6.774  0.00  0.00    -0.648 OA
BRANCH   3   5
HETATM    5  O   UNK N   1      35.255  19.194   8.532  0.00  0.00    -0.775 OA
HETATM    6  H   UNK N   1      35.116  19.531   9.395  0.00  0.00     0.167 HD
ENDBRANCH   3   5
ENDBRANCH   2   3
BRANCH   2   7
HETATM    7  N   UNK N   1      32.772  17.129   9.201  0.00  0.00    -0.417 N 
HETATM    8  H   UNK N   1      32.386  17.187  10.144  0.00  0.00     0.150 HD
HETATM    9  H   UNK N   1      32.098  17.174   8.436  0.00  0.00     0.150 HD
ENDBRANCH   2   7
ENDBRANCH   1   2
BRANCH   1  10
HETATM   10  S   UNK N   1      35.868  15.300  10.225  0.00  0.00    -0.162 SA
BRANCH  10  11
HETATM   11  C   UNK N   1      34.716  14.732  11.514  0.00  0.00     0.112 C 
BRANCH  11  12
HETATM   12  C   UNK N   1      35.323  13.713  12.426  0.00  0.00    -0.049 A 
HETATM   13  C   UNK N   1      36.086  14.132  13.522  0.00  0.00     0.009 A 
HETATM   14  C   UNK N   1      36.583  13.191  14.431  0.00  0.00     0.019 A 
HETATM   15  C   UNK N   1      36.319  11.831  14.243  0.00  0.00     0.011 A 
HETATM   16 Br   UNK N   1      36.956  10.549  15.502  0.00  0.00    -0.051 Br
HETATM   17  C   UNK N   1      35.566  11.409  13.145  0.00  0.00     0.019 A 
HETATM   18  C   UNK N   1      35.063  12.349  12.242  0.00  0.00     0.009 A 
ENDBRANCH  11  12
ENDBRANCH  10  11
ENDBRANCH   1  10
TORSDOF 7
ENDMDL
MODEL 6
REMARK VINA RESULT:      -5.2     16.578     17.588
REMARK  7 active torsions:
REMARK  status: ('A' for Active; 'I' for Inactive)
REMARK    1  A    between atoms: C_1  and  C_2 
REMARK    2  A    between atoms: C_1  and  N_5 
REMARK    3  A    between atoms: C_1  and  C_6 
REMARK    4  A    between atoms: C_2  and  O_4 
REMARK    5  A    between atoms: C_6  and  S_7 
REMARK    6  A    between atoms: S_7  and  C_15 
REMARK    7  A    between atoms: C_9  and  C_15 
ROOT
HETATM    1  C   UNK N   1      35.181  13.720  11.710  0.00  0.00     0.109 C 
ENDROOT
BRANCH   1   2
HETATM    2  C   UNK N   1      35.418  15.116  12.267  0.00  0.00     0.182 C 
BRANCH   2   3
HETATM    3  C   UNK N   1      35.764  16.081  11.159  0.00  0.00     0.163 C 
HETATM    4  O   UNK N   1      36.861  16.059  10.635  0.00  0.00    -0.648 OA
BRANCH   3   5
HETATM    5  O   UNK N   1      34.849  16.984  10.746  0.00  0.00    -0.775 OA
HETATM    6  H   UNK N   1      33.937  16.982  10.962  0.00  0.00     0.167 HD
ENDBRANCH   3   5
ENDBRANCH   2   3
BRANCH   2   7
HETATM    7  N   UNK N   1      36.504  15.050  13.235  0.00  0.00    -0.417 N 
HETATM    8  H   UNK N   1      36.732  14.281  13.865  0.00  0.00     0.150 HD
HETATM    9  H   UNK N   1      37.108  15.870  13.289  0.00  0.00     0.150 HD
ENDBRANCH   2   7
ENDBRANCH   1   2
BRANCH   1  10
HETATM   10  S   UNK N   1      36.159  12.459  12.600  0.00  0.00    -0.162 SA
BRANCH  10  11
HETATM   11  C   UNK N   1      34.668  11.765  13.379  0.00  0.00     0.112 C 
BRANCH  11  12
HETATM   12  C   UNK N   1      34.773  11.690  14.869  0.00  0.00    -0.049 A 
HETATM   13  C   UNK N   1      34.653  10.453  15.511  0.00  0.00     0.009 A 
HETATM   14  C   UNK N   1      34.840  10.358  16.894  0.00  0.00     0.019 A 
HETATM   15  C   UNK N   1      35.144  11.503  17.638  0.00  0.00     0.011 A 
HETATM   16 Br   UNK N   1      35.443  11.374  19.516  0.00  0.00    -0.051 Br
HETATM   17  C   UNK N   1      35.255  12.742  17.002  0.00  0.00     0.019 A 
HETATM   18  C   UNK N   1      35.078  12.833  15.619  0.00  0.00     0.009 A 
ENDBRANCH  11  12
ENDBRANCH  10  11
ENDBRANCH   1  10
TORSDOF 7
ENDMDL
MODEL 7
REMARK VINA RESULT:      -5.0     17.079     18.363
REMARK  7 active torsions:
REMARK  status: ('A' for Active; 'I' for Inactive)
REMARK    1  A    between atoms: C_1  and  C_2 
REMARK    2  A    between atoms: C_1  and  N_5 
REMARK    3  A    between atoms: C_1  and  C_6 
REMARK    4  A    between atoms: C_2  and  O_4 
REMARK    5  A    between atoms: C_6  and  S_7 
REMARK    6  A    between atoms: S_7  and  C_15 
REMARK    7  A    between atoms: C_9  and  C_15 
ROOT
HETATM    1  C   UNK N   1      35.273  13.485  13.164  0.00  0.00     0.109 C 
ENDROOT
BRANCH   1   2
HETATM    2  C   UNK N   1      35.902  14.648  12.408  0.00  0.00     0.182 C 
BRANCH   2   3
HETATM    3  C   UNK N   1      34.941  15.199  11.382  0.00  0.00     0.163 C 
HETATM    4  O   UNK N   1      35.316  15.996  10.543  0.00  0.00    -0.648 OA
BRANCH   3   5
HETATM    5  O   UNK N   1      33.649  14.809  11.396  0.00  0.00    -0.775 OA
HETATM    6  H   UNK N   1      33.221  14.299  10.737  0.00  0.00     0.167 HD
ENDBRANCH   3   5
ENDBRANCH   2   3
BRANCH   2   7
HETATM    7  N   UNK N   1      37.115  14.174  11.757  0.00  0.00    -0.417 N 
HETATM    8  H   UNK N   1      37.527  14.509  10.885  0.00  0.00     0.150 HD
HETATM    9  H   UNK N   1      37.613  13.419  12.227  0.00  0.00     0.150 HD
ENDBRANCH   2   7
ENDBRANCH   1   2
BRANCH   1  10
HETATM   10  S   UNK N   1      36.381  12.846  14.468  0.00  0.00    -0.162 SA
BRANCH  10  11
HETATM   11  C   UNK N   1      35.226  13.350  15.780  0.00  0.00     0.112 C 
BRANCH  11  12
HETATM   12  C   UNK N   1      35.395  12.556  17.038  0.00  0.00    -0.049 A 
HETATM   13  C   UNK N   1      35.157  13.162  18.276  0.00  0.00     0.009 A 
HETATM   14  C   UNK N   1      35.225  12.406  19.452  0.00  0.00     0.019 A 
HETATM   15  C   UNK N   1      35.534  11.043  19.389  0.00  0.00     0.011 A 
HETATM   16 Br   UNK N   1      35.585   9.999  20.983  0.00  0.00    -0.051 Br
HETATM   17  C   UNK N   1      35.782  10.438  18.155  0.00  0.00     0.019 A 
HETATM   18  C   UNK N   1      35.706  11.192  16.981  0.00  0.00     0.009 A 
ENDBRANCH  11  12
ENDBRANCH  10  11
ENDBRANCH   1  10
TORSDOF 7
ENDMDL
MODEL 8
REMARK VINA RESULT:      -4.9     13.001     14.242
REMARK  7 active torsions:
REMARK  status: ('A' for Active; 'I' for Inactive)
REMARK    1  A    between atoms: C_1  and  C_2 
REMARK    2  A    between atoms: C_1  and  N_5 
REMARK    3  A    between atoms: C_1  and  C_6 
REMARK    4  A    between atoms: C_2  and  O_4 
REMARK    5  A    between atoms: C_6  and  S_7 
REMARK    6  A    between atoms: S_7  and  C_15 
REMARK    7  A    between atoms: C_9  and  C_15 
ROOT
HETATM    1  C   UNK N   1      35.354  15.760   9.379  0.00  0.00     0.109 C 
ENDROOT
BRANCH   1   2
HETATM    2  C   UNK N   1      35.665  14.647  10.370  0.00  0.00     0.182 C 
BRANCH   2   3
HETATM    3  C   UNK N   1      34.567  14.528  11.400  0.00  0.00     0.163 C 
HETATM    4  O   UNK N   1      34.773  13.987  12.470  0.00  0.00    -0.648 OA
BRANCH   3   5
HETATM    5  O   UNK N   1      33.340  15.022  11.131  0.00  0.00    -0.775 OA
HETATM    6  H   UNK N   1      33.023  15.871  11.370  0.00  0.00     0.167 HD
ENDBRANCH   3   5
ENDBRANCH   2   3
BRANCH   2   7
HETATM    7  N   UNK N   1      36.933  14.947  11.020  0.00  0.00    -0.417 N 
HETATM    8  H   UNK N   1      37.858  14.993  10.592  0.00  0.00     0.150 HD
HETATM    9  H   UNK N   1      36.892  15.134  12.022  0.00  0.00     0.150 HD
ENDBRANCH   2   7
ENDBRANCH   1   2
BRANCH   1  10
HETATM   10  S   UNK N   1      34.773  15.100   7.778  0.00  0.00    -0.162 SA
BRANCH  10  11
HETATM   11  C   UNK N   1      34.341  16.763   7.180  0.00  0.00     0.112 C 
BRANCH  11  12
HETATM   12  C   UNK N   1      32.887  17.079   7.344  0.00  0.00    -0.049 A 
HETATM   13  C   UNK N   1      31.959  16.564   6.432  0.00  0.00     0.009 A 
HETATM   14  C   UNK N   1      30.591  16.779   6.627  0.00  0.00     0.019 A 
HETATM   15  C   UNK N   1      30.149  17.511   7.734  0.00  0.00     0.011 A 
HETATM   16 Br   UNK N   1      28.284  17.770   8.029  0.00  0.00    -0.051 Br
HETATM   17  C   UNK N   1      31.074  18.035   8.641  0.00  0.00     0.019 A 
HETATM   18  C   UNK N   1      32.440  17.812   8.450  0.00  0.00     0.009 A 
ENDBRANCH  11  12
ENDBRANCH  10  11
ENDBRANCH   1  10
TORSDOF 7
ENDMDL
MODEL 9
REMARK VINA RESULT:      -4.7     12.900     14.135
REMARK  7 active torsions:
REMARK  status: ('A' for Active; 'I' for Inactive)
REMARK    1  A    between atoms: C_1  and  C_2 
REMARK    2  A    between atoms: C_1  and  N_5 
REMARK    3  A    between atoms: C_1  and  C_6 
REMARK    4  A    between atoms: C_2  and  O_4 
REMARK    5  A    between atoms: C_6  and  S_7 
REMARK    6  A    between atoms: S_7  and  C_15 
REMARK    7  A    between atoms: C_9  and  C_15 
ROOT
HETATM    1  C   UNK N   1      34.918  16.613   9.377  0.00  0.00     0.109 C 
ENDROOT
BRANCH   1   2
HETATM    2  C   UNK N   1      35.423  15.429  10.191  0.00  0.00     0.182 C 
BRANCH   2   3
HETATM    3  C   UNK N   1      34.309  14.840  11.023  0.00  0.00     0.163 C 
HETATM    4  O   UNK N   1      34.541  14.326  12.101  0.00  0.00    -0.648 OA
BRANCH   3   5
HETATM    5  O   UNK N   1      33.039  14.878  10.566  0.00  0.00    -0.775 OA
HETATM    6  H   UNK N   1      32.314  14.397  10.913  0.00  0.00     0.167 HD
ENDBRANCH   3   5
ENDBRANCH   2   3
BRANCH   2   7
HETATM    7  N   UNK N   1      36.505  15.887  11.051  0.00  0.00    -0.417 N 
HETATM    8  H   UNK N   1      37.025  16.762  10.987  0.00  0.00     0.150 HD
HETATM    9  H   UNK N   1      36.775  15.258  11.808  0.00  0.00     0.150 HD
ENDBRANCH   2   7
ENDBRANCH   1   2
BRANCH   1  10
HETATM   10  S   UNK N   1      34.714  16.185   7.613  0.00  0.00    -0.162 SA
BRANCH  10  11
HETATM   11  C   UNK N   1      33.718  17.676   7.304  0.00  0.00     0.112 C 
BRANCH  11  12
HETATM   12  C   UNK N   1      32.630  17.449   6.303  0.00  0.00    -0.049 A 
HETATM   13  C   UNK N   1      32.936  17.439   4.937  0.00  0.00     0.009 A 
HETATM   14  C   UNK N   1      31.943  17.139   3.998  0.00  0.00     0.019 A 
HETATM   15  C   UNK N   1      30.642  16.852   4.423  0.00  0.00     0.011 A 
HETATM   16 Br   UNK N   1      29.296  16.400   3.152  0.00  0.00    -0.051 Br
HETATM   17  C   UNK N   1      30.331  16.871   5.786  0.00  0.00     0.019 A 
HETATM   18  C   UNK N   1      31.325  17.162   6.723  0.00  0.00     0.009 A 
ENDBRANCH  11  12
ENDBRANCH  10  11
ENDBRANCH   1  10
TORSDOF 7
ENDMDL
