MODEL 1
REMARK VINA RESULT:      -7.1      0.000      0.000
REMARK  7 active torsions:
REMARK  status: ('A' for Active; 'I' for Inactive)
REMARK    1  A    between atoms: C_4  and  N_1 
REMARK    2  A    between atoms: C_2  and  C_4 
REMARK    3  A    between atoms: C_2  and  O_20 
REMARK    4  A    between atoms: C_4  and  C_5 
REMARK    5  A    between atoms: C_5  and  C_6 
REMARK    6  A    between atoms: C_11  and  C_12 
REMARK    7  A    between atoms: C_12  and  C_14 
ROOT
HETATM    1  C   UNK N   1      35.143  15.223  10.311  0.00  0.00    -0.056 A 
HETATM    2  C   UNK N   1      35.724  15.954  11.359  0.00  0.00     0.008 A 
HETATM    3  C   UNK N   1      34.912  13.856  10.468  0.00  0.00     0.008 A 
HETATM    4  C   UNK N   1      36.103  15.302  12.542  0.00  0.00     0.016 A 
HETATM    5  C   UNK N   1      35.326  13.208  11.618  0.00  0.00     0.016 A 
HETATM    6  C   UNK N   1      35.947  13.909  12.655  0.00  0.00     0.015 A 
ENDROOT
BRANCH   1   7
HETATM    7  C   UNK N   1      34.859  15.864   8.986  0.00  0.00     0.074 C 
BRANCH   7   8
HETATM    8  C   UNK N   1      34.148  17.221   9.168  0.00  0.00     0.177 C 
BRANCH   8   9
HETATM    9  N   UNK N   1      32.704  17.059   9.048  0.00  0.00    -0.417 N 
HETATM   10  H   UNK N   1      31.801  17.227   9.492  0.00  0.00     0.150 HD
HETATM   11  H   UNK N   1      32.523  16.588   8.161  0.00  0.00     0.150 HD
ENDBRANCH   8   9
BRANCH   8  12
HETATM   12  C   UNK N   1      34.650  18.231   8.179  0.00  0.00     0.163 C 
HETATM   13  O   UNK N   1      35.292  19.201   8.551  0.00  0.00    -0.648 OA
BRANCH  12  14
HETATM   14  O   UNK N   1      34.420  18.050   6.865  0.00  0.00    -0.775 OA
HETATM   15  H   UNK N   1      34.102  17.407   6.262  0.00  0.00     0.167 HD
ENDBRANCH  12  14
ENDBRANCH   8  12
ENDBRANCH   7   8
ENDBRANCH   1   7
BRANCH   6  16
HETATM   16  C   UNK N   1      36.510  13.172  13.816  0.00  0.00     0.192 C 
HETATM   17  O   UNK N   1      36.971  12.053  13.650  0.00  0.00    -0.287 OA
BRANCH  16  18
HETATM   18  C   UNK N   1      36.405  13.725  15.201  0.00  0.00     0.015 A 
HETATM   19  C   UNK N   1      35.461  13.212  16.103  0.00  0.00     0.015 A 
HETATM   20  C   UNK N   1      35.305  13.790  17.368  0.00  0.00     0.001 A 
HETATM   21  C   UNK N   1      36.075  14.898  17.736  0.00  0.00     0.000 A 
HETATM   22  C   UNK N   1      37.007  15.425  16.844  0.00  0.00     0.001 A 
HETATM   23  C   UNK N   1      37.166  14.843  15.588  0.00  0.00     0.015 A 
ENDBRANCH  16  18
ENDBRANCH   6  16
TORSDOF 7
ENDMDL
MODEL 2
REMARK VINA RESULT:      -6.9      2.904      4.223
REMARK  7 active torsions:
REMARK  status: ('A' for Active; 'I' for Inactive)
REMARK    1  A    between atoms: C_4  and  N_1 
REMARK    2  A    between atoms: C_2  and  C_4 
REMARK    3  A    between atoms: C_2  and  O_20 
REMARK    4  A    between atoms: C_4  and  C_5 
REMARK    5  A    between atoms: C_5  and  C_6 
REMARK    6  A    between atoms: C_11  and  C_12 
REMARK    7  A    between atoms: C_12  and  C_14 
ROOT
HETATM    1  C   UNK N   1      35.573  13.404  13.126  0.00  0.00    -0.056 A 
HETATM    2  C   UNK N   1      34.683  12.423  13.589  0.00  0.00     0.008 A 
HETATM    3  C   UNK N   1      36.416  14.053  14.029  0.00  0.00     0.008 A 
HETATM    4  C   UNK N   1      34.619  12.126  14.960  0.00  0.00     0.016 A 
HETATM    5  C   UNK N   1      36.320  13.789  15.384  0.00  0.00     0.016 A 
HETATM    6  C   UNK N   1      35.409  12.848  15.871  0.00  0.00     0.015 A 
ENDROOT
BRANCH   1   7
HETATM    7  C   UNK N   1      35.563  13.842  11.692  0.00  0.00     0.074 C 
BRANCH   7   8
HETATM    8  C   UNK N   1      34.896  15.225  11.540  0.00  0.00     0.177 C 
BRANCH   8   9
HETATM    9  N   UNK N   1      33.638  15.106  10.812  0.00  0.00    -0.417 N 
HETATM   10  H   UNK N   1      32.655  15.376  10.787  0.00  0.00     0.150 HD
HETATM   11  H   UNK N   1      33.812  14.514  10.000  0.00  0.00     0.150 HD
ENDBRANCH   8   9
BRANCH   8  12
HETATM   12  C   UNK N   1      35.814  16.194  10.854  0.00  0.00     0.163 C 
HETATM   13  O   UNK N   1      35.381  17.234  10.382  0.00  0.00    -0.648 OA
BRANCH  12  14
HETATM   14  O   UNK N   1      37.133  15.931  10.785  0.00  0.00    -0.775 OA
HETATM   15  H   UNK N   1      37.746  15.237  10.927  0.00  0.00     0.167 HD
ENDBRANCH  12  14
ENDBRANCH   8  12
ENDBRANCH   7   8
ENDBRANCH   1   7
BRANCH   6  16
HETATM   16  C   UNK N   1      35.224  12.685  17.336  0.00  0.00     0.192 C 
HETATM   17  O   UNK N   1      34.868  13.641  18.007  0.00  0.00    -0.287 OA
BRANCH  16  18
HETATM   18  C   UNK N   1      35.590  11.405  18.017  0.00  0.00     0.015 A 
HETATM   19  C   UNK N   1      35.291  11.210  19.373  0.00  0.00     0.015 A 
HETATM   20  C   UNK N   1      35.712  10.047  20.031  0.00  0.00     0.001 A 
HETATM   21  C   UNK N   1      36.454   9.080  19.345  0.00  0.00     0.000 A 
HETATM   22  C   UNK N   1      36.769   9.269  18.000  0.00  0.00     0.001 A 
HETATM   23  C   UNK N   1      36.341  10.423  17.346  0.00  0.00     0.015 A 
ENDBRANCH  16  18
ENDBRANCH   6  16
TORSDOF 7
ENDMDL
MODEL 3
REMARK VINA RESULT:      -6.8      2.671      8.085
REMARK  7 active torsions:
REMARK  status: ('A' for Active; 'I' for Inactive)
REMARK    1  A    between atoms: C_4  and  N_1 
REMARK    2  A    between atoms: C_2  and  C_4 
REMARK    3  A    between atoms: C_2  and  O_20 
REMARK    4  A    between atoms: C_4  and  C_5 
REMARK    5  A    between atoms: C_5  and  C_6 
REMARK    6  A    between atoms: C_11  and  C_12 
REMARK    7  A    between atoms: C_12  and  C_14 
ROOT
HETATM    1  C   UNK N   1      35.256  14.690  10.948  0.00  0.00    -0.056 A 
HETATM    2  C   UNK N   1      35.484  16.017  11.343  0.00  0.00     0.008 A 
HETATM    3  C   UNK N   1      34.877  14.415   9.635  0.00  0.00     0.008 A 
HETATM    4  C   UNK N   1      35.292  17.063  10.426  0.00  0.00     0.016 A 
HETATM    5  C   UNK N   1      34.646  15.451   8.746  0.00  0.00     0.016 A 
HETATM    6  C   UNK N   1      34.823  16.782   9.131  0.00  0.00     0.015 A 
ENDROOT
BRANCH   1   7
HETATM    7  C   UNK N   1      35.316  13.568  11.941  0.00  0.00     0.074 C 
BRANCH   7   8
HETATM    8  C   UNK N   1      36.587  13.663  12.809  0.00  0.00     0.177 C 
BRANCH   8   9
HETATM    9  N   UNK N   1      37.504  12.574  12.491  0.00  0.00    -0.417 N 
HETATM   10  H   UNK N   1      38.379  12.114  12.742  0.00  0.00     0.150 HD
HETATM   11  H   UNK N   1      37.111  12.067  11.698  0.00  0.00     0.150 HD
ENDBRANCH   8   9
BRANCH   8  12
HETATM   12  C   UNK N   1      36.245  13.655  14.270  0.00  0.00     0.163 C 
HETATM   13  O   UNK N   1      35.093  13.489  14.639  0.00  0.00    -0.648 OA
BRANCH  12  14
HETATM   14  O   UNK N   1      37.222  13.798  15.185  0.00  0.00    -0.775 OA
HETATM   15  H   UNK N   1      38.138  13.642  15.304  0.00  0.00     0.167 HD
ENDBRANCH  12  14
ENDBRANCH   8  12
ENDBRANCH   7   8
ENDBRANCH   1   7
BRANCH   6  16
HETATM   16  C   UNK N   1      34.434  17.879   8.208  0.00  0.00     0.192 C 
HETATM   17  O   UNK N   1      34.944  18.981   8.335  0.00  0.00    -0.287 OA
BRANCH  16  18
HETATM   18  C   UNK N   1      33.336  17.688   7.210  0.00  0.00     0.015 A 
HETATM   19  C   UNK N   1      32.013  17.501   7.635  0.00  0.00     0.015 A 
HETATM   20  C   UNK N   1      31.002  17.235   6.703  0.00  0.00     0.001 A 
HETATM   21  C   UNK N   1      31.307  17.133   5.342  0.00  0.00     0.000 A 
HETATM   22  C   UNK N   1      32.621  17.305   4.909  0.00  0.00     0.001 A 
HETATM   23  C   UNK N   1      33.624  17.577   5.837  0.00  0.00     0.015 A 
ENDBRANCH  16  18
ENDBRANCH   6  16
TORSDOF 7
ENDMDL
MODEL 4
REMARK VINA RESULT:      -6.8      4.553      7.202
REMARK  7 active torsions:
REMARK  status: ('A' for Active; 'I' for Inactive)
REMARK    1  A    between atoms: C_4  and  N_1 
REMARK    2  A    between atoms: C_2  and  C_4 
REMARK    3  A    between atoms: C_2  and  O_20 
REMARK    4  A    between atoms: C_4  and  C_5 
REMARK    5  A    between atoms: C_5  and  C_6 
REMARK    6  A    between atoms: C_11  and  C_12 
REMARK    7  A    between atoms: C_12  and  C_14 
ROOT
HETATM    1  C   UNK N   1      35.414  12.783  16.517  0.00  0.00    -0.056 A 
HETATM    2  C   UNK N   1      35.837  11.445  16.528  0.00  0.00     0.008 A 
HETATM    3  C   UNK N   1      35.124  13.425  17.722  0.00  0.00     0.008 A 
HETATM    4  C   UNK N   1      35.931  10.749  17.743  0.00  0.00     0.016 A 
HETATM    5  C   UNK N   1      35.176  12.724  18.914  0.00  0.00     0.016 A 
HETATM    6  C   UNK N   1      35.552  11.379  18.942  0.00  0.00     0.015 A 
ENDROOT
BRANCH   1   7
HETATM    7  C   UNK N   1      35.168  13.506  15.227  0.00  0.00     0.074 C 
BRANCH   7   8
HETATM    8  C   UNK N   1      36.479  13.682  14.433  0.00  0.00     0.177 C 
BRANCH   8   9
HETATM    9  N   UNK N   1      37.250  14.800  14.965  0.00  0.00    -0.417 N 
HETATM   10  H   UNK N   1      37.255  15.578  15.625  0.00  0.00     0.150 HD
HETATM   11  H   UNK N   1      38.148  14.807  14.481  0.00  0.00     0.150 HD
ENDBRANCH   8   9
BRANCH   8  12
HETATM   12  C   UNK N   1      36.203  13.879  12.972  0.00  0.00     0.163 C 
HETATM   13  O   UNK N   1      35.064  14.073  12.574  0.00  0.00    -0.648 OA
BRANCH  12  14
HETATM   14  O   UNK N   1      37.222  13.877  12.093  0.00  0.00    -0.775 OA
HETATM   15  H   UNK N   1      38.042  14.299  11.926  0.00  0.00     0.167 HD
ENDBRANCH  12  14
ENDBRANCH   8  12
ENDBRANCH   7   8
ENDBRANCH   1   7
BRANCH   6  16
HETATM   16  C   UNK N   1      35.463  10.610  20.210  0.00  0.00     0.192 C 
HETATM   17  O   UNK N   1      36.468  10.445  20.884  0.00  0.00    -0.287 OA
BRANCH  16  18
HETATM   18  C   UNK N   1      34.191   9.930  20.607  0.00  0.00     0.015 A 
HETATM   19  C   UNK N   1      33.626   8.942  19.788  0.00  0.00     0.015 A 
HETATM   20  C   UNK N   1      32.392   8.370  20.118  0.00  0.00     0.001 A 
HETATM   21  C   UNK N   1      31.701   8.795  21.257  0.00  0.00     0.000 A 
HETATM   22  C   UNK N   1      32.246   9.785  22.073  0.00  0.00     0.001 A 
HETATM   23  C   UNK N   1      33.479  10.347  21.746  0.00  0.00     0.015 A 
ENDBRANCH  16  18
ENDBRANCH   6  16
TORSDOF 7
ENDMDL
MODEL 5
REMARK VINA RESULT:      -6.8      6.559     11.177
REMARK  7 active torsions:
REMARK  status: ('A' for Active; 'I' for Inactive)
REMARK    1  A    between atoms: C_4  and  N_1 
REMARK    2  A    between atoms: C_2  and  C_4 
REMARK    3  A    between atoms: C_2  and  O_20 
REMARK    4  A    between atoms: C_4  and  C_5 
REMARK    5  A    between atoms: C_5  and  C_6 
REMARK    6  A    between atoms: C_11  and  C_12 
REMARK    7  A    between atoms: C_12  and  C_14 
ROOT
HETATM    1  C   UNK N   1      30.655  17.787   8.002  0.00  0.00    -0.056 A 
HETATM    2  C   UNK N   1      30.696  17.014   6.832  0.00  0.00     0.008 A 
HETATM    3  C   UNK N   1      29.427  18.228   8.496  0.00  0.00     0.008 A 
HETATM    4  C   UNK N   1      29.508  16.721   6.144  0.00  0.00     0.016 A 
HETATM    5  C   UNK N   1      28.262  17.975   7.793  0.00  0.00     0.016 A 
HETATM    6  C   UNK N   1      28.286  17.245   6.601  0.00  0.00     0.015 A 
ENDROOT
BRANCH   1   7
HETATM    7  C   UNK N   1      31.916  18.234   8.678  0.00  0.00     0.074 C 
BRANCH   7   8
HETATM    8  C   UNK N   1      33.096  17.309   8.316  0.00  0.00     0.177 C 
BRANCH   8   9
HETATM    9  N   UNK N   1      33.598  16.633   9.507  0.00  0.00    -0.417 N 
HETATM   10  H   UNK N   1      34.393  16.523  10.137  0.00  0.00     0.150 HD
HETATM   11  H   UNK N   1      32.853  16.026   9.849  0.00  0.00     0.150 HD
ENDBRANCH   8   9
BRANCH   8  12
HETATM   12  C   UNK N   1      34.196  18.075   7.641  0.00  0.00     0.163 C 
HETATM   13  O   UNK N   1      34.461  17.878   6.466  0.00  0.00    -0.648 OA
BRANCH  12  14
HETATM   14  O   UNK N   1      34.876  19.012   8.328  0.00  0.00    -0.775 OA
HETATM   15  H   UNK N   1      34.904  19.939   8.464  0.00  0.00     0.167 HD
ENDBRANCH  12  14
ENDBRANCH   8  12
ENDBRANCH   7   8
ENDBRANCH   1   7
BRANCH   6  16
HETATM   16  C   UNK N   1      27.048  17.108   5.792  0.00  0.00     0.192 C 
HETATM   17  O   UNK N   1      26.479  16.028   5.742  0.00  0.00    -0.287 OA
BRANCH  16  18
HETATM   18  C   UNK N   1      26.562  18.235   4.937  0.00  0.00     0.015 A 
HETATM   19  C   UNK N   1      25.236  18.262   4.481  0.00  0.00     0.015 A 
HETATM   20  C   UNK N   1      24.807  19.271   3.610  0.00  0.00     0.001 A 
HETATM   21  C   UNK N   1      25.705  20.249   3.171  0.00  0.00     0.000 A 
HETATM   22  C   UNK N   1      27.028  20.226   3.607  0.00  0.00     0.001 A 
HETATM   23  C   UNK N   1      27.450  19.225   4.480  0.00  0.00     0.015 A 
ENDBRANCH  16  18
ENDBRANCH   6  16
TORSDOF 7
ENDMDL
MODEL 6
REMARK VINA RESULT:      -6.7      1.778      2.689
REMARK  7 active torsions:
REMARK  status: ('A' for Active; 'I' for Inactive)
REMARK    1  A    between atoms: C_4  and  N_1 
REMARK    2  A    between atoms: C_2  and  C_4 
REMARK    3  A    between atoms: C_2  and  O_20 
REMARK    4  A    between atoms: C_4  and  C_5 
REMARK    5  A    between atoms: C_5  and  C_6 
REMARK    6  A    between atoms: C_11  and  C_12 
REMARK    7  A    between atoms: C_12  and  C_14 
ROOT
HETATM    1  C   UNK N   1      34.991  15.202   9.971  0.00  0.00    -0.056 A 
HETATM    2  C   UNK N   1      34.679  13.867  10.267  0.00  0.00     0.008 A 
HETATM    3  C   UNK N   1      35.700  15.968  10.897  0.00  0.00     0.008 A 
HETATM    4  C   UNK N   1      35.046  13.320  11.507  0.00  0.00     0.016 A 
HETATM    5  C   UNK N   1      36.023  15.440  12.135  0.00  0.00     0.016 A 
HETATM    6  C   UNK N   1      35.681  14.126  12.467  0.00  0.00     0.015 A 
ENDROOT
BRANCH   1   7
HETATM    7  C   UNK N   1      34.490  15.854   8.717  0.00  0.00     0.074 C 
BRANCH   7   8
HETATM    8  C   UNK N   1      33.964  17.275   9.004  0.00  0.00     0.177 C 
BRANCH   8   9
HETATM    9  N   UNK N   1      32.509  17.308   8.915  0.00  0.00    -0.417 N 
HETATM   10  H   UNK N   1      31.637  17.352   9.442  0.00  0.00     0.150 HD
HETATM   11  H   UNK N   1      32.264  17.272   7.925  0.00  0.00     0.150 HD
ENDBRANCH   8   9
BRANCH   8  12
HETATM   12  C   UNK N   1      34.572  18.275   8.065  0.00  0.00     0.163 C 
HETATM   13  O   UNK N   1      35.238  19.205   8.493  0.00  0.00    -0.648 OA
BRANCH  12  14
HETATM   14  O   UNK N   1      34.411  18.129   6.736  0.00  0.00    -0.775 OA
HETATM   15  H   UNK N   1      33.963  18.515   6.010  0.00  0.00     0.167 HD
ENDBRANCH  12  14
ENDBRANCH   8  12
ENDBRANCH   7   8
ENDBRANCH   1   7
BRANCH   6  16
HETATM   16  C   UNK N   1      35.910  13.628  13.848  0.00  0.00     0.192 C 
HETATM   17  O   UNK N   1      36.467  14.349  14.662  0.00  0.00    -0.287 OA
BRANCH  16  18
HETATM   18  C   UNK N   1      35.584  12.216  14.218  0.00  0.00     0.015 A 
HETATM   19  C   UNK N   1      34.303  11.878  14.678  0.00  0.00     0.015 A 
HETATM   20  C   UNK N   1      34.026  10.574  15.106  0.00  0.00     0.001 A 
HETATM   21  C   UNK N   1      35.032   9.602  15.098  0.00  0.00     0.000 A 
HETATM   22  C   UNK N   1      36.313   9.929  14.656  0.00  0.00     0.001 A 
HETATM   23  C   UNK N   1      36.583  11.226  14.223  0.00  0.00     0.015 A 
ENDBRANCH  16  18
ENDBRANCH   6  16
TORSDOF 7
ENDMDL
MODEL 7
REMARK VINA RESULT:      -6.7     17.521     20.051
REMARK  7 active torsions:
REMARK  status: ('A' for Active; 'I' for Inactive)
REMARK    1  A    between atoms: C_4  and  N_1 
REMARK    2  A    between atoms: C_2  and  C_4 
REMARK    3  A    between atoms: C_2  and  O_20 
REMARK    4  A    between atoms: C_4  and  C_5 
REMARK    5  A    between atoms: C_5  and  C_6 
REMARK    6  A    between atoms: C_11  and  C_12 
REMARK    7  A    between atoms: C_12  and  C_14 
ROOT
HETATM    1  C   UNK N   1      27.957  25.673  -4.583  0.00  0.00    -0.056 A 
HETATM    2  C   UNK N   1      29.343  25.875  -4.514  0.00  0.00     0.008 A 
HETATM    3  C   UNK N   1      27.373  24.633  -3.859  0.00  0.00     0.008 A 
HETATM    4  C   UNK N   1      30.140  25.009  -3.749  0.00  0.00     0.016 A 
HETATM    5  C   UNK N   1      28.165  23.755  -3.141  0.00  0.00     0.016 A 
HETATM    6  C   UNK N   1      29.553  23.911  -3.095  0.00  0.00     0.015 A 
ENDROOT
BRANCH   1   7
HETATM    7  C   UNK N   1      27.101  26.493  -5.501  0.00  0.00     0.074 C 
BRANCH   7   8
HETATM    8  C   UNK N   1      25.738  26.810  -4.852  0.00  0.00     0.177 C 
BRANCH   8   9
HETATM    9  N   UNK N   1      24.759  27.168  -5.872  0.00  0.00    -0.417 N 
HETATM   10  H   UNK N   1      23.914  27.704  -6.073  0.00  0.00     0.150 HD
HETATM   11  H   UNK N   1      25.026  26.688  -6.732  0.00  0.00     0.150 HD
ENDBRANCH   8   9
BRANCH   8  12
HETATM   12  C   UNK N   1      25.865  27.906  -3.836  0.00  0.00     0.163 C 
HETATM   13  O   UNK N   1      25.990  29.069  -4.187  0.00  0.00    -0.648 OA
BRANCH  12  14
HETATM   14  O   UNK N   1      25.809  27.611  -2.524  0.00  0.00    -0.775 OA
HETATM   15  H   UNK N   1      26.149  27.894  -1.698  0.00  0.00     0.167 HD
ENDBRANCH  12  14
ENDBRANCH   8  12
ENDBRANCH   7   8
ENDBRANCH   1   7
BRANCH   6  16
HETATM   16  C   UNK N   1      30.394  22.878  -2.439  0.00  0.00     0.192 C 
HETATM   17  O   UNK N   1      30.522  22.889  -1.224  0.00  0.00    -0.287 OA
BRANCH  16  18
HETATM   18  C   UNK N   1      31.188  21.904  -3.251  0.00  0.00     0.015 A 
HETATM   19  C   UNK N   1      30.579  21.178  -4.285  0.00  0.00     0.015 A 
HETATM   20  C   UNK N   1      31.301  20.205  -4.987  0.00  0.00     0.001 A 
HETATM   21  C   UNK N   1      32.631  19.934  -4.647  0.00  0.00     0.000 A 
HETATM   22  C   UNK N   1      33.243  20.640  -3.612  0.00  0.00     0.001 A 
HETATM   23  C   UNK N   1      32.524  21.614  -2.922  0.00  0.00     0.015 A 
ENDBRANCH  16  18
ENDBRANCH   6  16
TORSDOF 7
ENDMDL
MODEL 8
REMARK VINA RESULT:      -6.7      5.822      8.546
REMARK  7 active torsions:
REMARK  status: ('A' for Active; 'I' for Inactive)
REMARK    1  A    between atoms: C_4  and  N_1 
REMARK    2  A    between atoms: C_2  and  C_4 
REMARK    3  A    between atoms: C_2  and  O_20 
REMARK    4  A    between atoms: C_4  and  C_5 
REMARK    5  A    between atoms: C_5  and  C_6 
REMARK    6  A    between atoms: C_11  and  C_12 
REMARK    7  A    between atoms: C_12  and  C_14 
ROOT
HETATM    1  C   UNK N   1      35.275  12.719  17.915  0.00  0.00    -0.056 A 
HETATM    2  C   UNK N   1      35.248  11.538  17.158  0.00  0.00     0.008 A 
HETATM    3  C   UNK N   1      35.265  12.646  19.308  0.00  0.00     0.008 A 
HETATM    4  C   UNK N   1      35.173  10.293  17.804  0.00  0.00     0.016 A 
HETATM    5  C   UNK N   1      35.147  11.421  19.941  0.00  0.00     0.016 A 
HETATM    6  C   UNK N   1      35.074  10.236  19.205  0.00  0.00     0.015 A 
ENDROOT
BRANCH   1   7
HETATM    7  C   UNK N   1      35.212  14.063  17.254  0.00  0.00     0.074 C 
BRANCH   7   8
HETATM    8  C   UNK N   1      36.448  14.914  17.610  0.00  0.00     0.177 C 
BRANCH   8   9
HETATM    9  N   UNK N   1      36.057  16.070  18.409  0.00  0.00    -0.417 N 
HETATM   10  H   UNK N   1      35.533  16.945  18.418  0.00  0.00     0.150 HD
HETATM   11  H   UNK N   1      36.478  15.959  19.331  0.00  0.00     0.150 HD
ENDBRANCH   8   9
BRANCH   8  12
HETATM   12  C   UNK N   1      37.179  15.349  16.374  0.00  0.00     0.163 C 
HETATM   13  O   UNK N   1      37.434  16.528  16.185  0.00  0.00    -0.648 OA
BRANCH  12  14
HETATM   14  O   UNK N   1      37.588  14.429  15.481  0.00  0.00    -0.775 OA
HETATM   15  H   UNK N   1      38.361  13.980  15.199  0.00  0.00     0.167 HD
ENDBRANCH  12  14
ENDBRANCH   8  12
ENDBRANCH   7   8
ENDBRANCH   1   7
BRANCH   6  16
HETATM   16  C   UNK N   1      34.805   8.949  19.897  0.00  0.00     0.192 C 
HETATM   17  O   UNK N   1      35.723   8.358  20.444  0.00  0.00    -0.287 OA
BRANCH  16  18
HETATM   18  C   UNK N   1      33.456   8.306  19.823  0.00  0.00     0.015 A 
HETATM   19  C   UNK N   1      32.313   8.999  20.249  0.00  0.00     0.015 A 
HETATM   20  C   UNK N   1      31.065   8.364  20.261  0.00  0.00     0.001 A 
HETATM   21  C   UNK N   1      30.952   7.027  19.869  0.00  0.00     0.000 A 
HETATM   22  C   UNK N   1      32.082   6.324  19.456  0.00  0.00     0.001 A 
HETATM   23  C   UNK N   1      33.322   6.960  19.437  0.00  0.00     0.015 A 
ENDBRANCH  16  18
ENDBRANCH   6  16
TORSDOF 7
ENDMDL
MODEL 9
REMARK VINA RESULT:      -6.6      2.917      8.482
REMARK  7 active torsions:
REMARK  status: ('A' for Active; 'I' for Inactive)
REMARK    1  A    between atoms: C_4  and  N_1 
REMARK    2  A    between atoms: C_2  and  C_4 
REMARK    3  A    between atoms: C_2  and  O_20 
REMARK    4  A    between atoms: C_4  and  C_5 
REMARK    5  A    between atoms: C_5  and  C_6 
REMARK    6  A    between atoms: C_11  and  C_12 
REMARK    7  A    between atoms: C_12  and  C_14 
ROOT
HETATM    1  C   UNK N   1      34.697  14.584  10.603  0.00  0.00    -0.056 A 
HETATM    2  C   UNK N   1      34.037  14.225   9.418  0.00  0.00     0.008 A 
HETATM    3  C   UNK N   1      35.044  15.917  10.823  0.00  0.00     0.008 A 
HETATM    4  C   UNK N   1      33.764  15.199   8.445  0.00  0.00     0.016 A 
HETATM    5  C   UNK N   1      34.813  16.868   9.844  0.00  0.00     0.016 A 
HETATM    6  C   UNK N   1      34.197  16.522   8.638  0.00  0.00     0.015 A 
ENDROOT
BRANCH   1   7
HETATM    7  C   UNK N   1      35.127  13.545  11.595  0.00  0.00     0.074 C 
BRANCH   7   8
HETATM    8  C   UNK N   1      36.347  14.025  12.406  0.00  0.00     0.177 C 
BRANCH   8   9
HETATM    9  N   UNK N   1      37.533  13.257  12.046  0.00  0.00    -0.417 N 
HETATM   10  H   UNK N   1      38.294  12.675  12.396  0.00  0.00     0.150 HD
HETATM   11  H   UNK N   1      37.649  13.333  11.036  0.00  0.00     0.150 HD
ENDBRANCH   8   9
BRANCH   8  12
HETATM   12  C   UNK N   1      36.086  13.931  13.881  0.00  0.00     0.163 C 
HETATM   13  O   UNK N   1      35.018  13.511  14.298  0.00  0.00    -0.648 OA
BRANCH  12  14
HETATM   14  O   UNK N   1      37.049  14.281  14.754  0.00  0.00    -0.775 OA
HETATM   15  H   UNK N   1      37.971  14.442  14.796  0.00  0.00     0.167 HD
ENDBRANCH  12  14
ENDBRANCH   8  12
ENDBRANCH   7   8
ENDBRANCH   1   7
BRANCH   6  16
HETATM   16  C   UNK N   1      34.089  17.526   7.548  0.00  0.00     0.192 C 
HETATM   17  O   UNK N   1      34.782  18.530   7.585  0.00  0.00    -0.287 OA
BRANCH  16  18
HETATM   18  C   UNK N   1      33.054  17.385   6.477  0.00  0.00     0.015 A 
HETATM   19  C   UNK N   1      33.411  17.491   5.124  0.00  0.00     0.015 A 
HETATM   20  C   UNK N   1      32.428  17.447   4.128  0.00  0.00     0.001 A 
HETATM   21  C   UNK N   1      31.079  17.318   4.475  0.00  0.00     0.000 A 
HETATM   22  C   UNK N   1      30.711  17.224   5.816  0.00  0.00     0.001 A 
HETATM   23  C   UNK N   1      31.692  17.260   6.805  0.00  0.00     0.015 A 
ENDBRANCH  16  18
ENDBRANCH   6  16
TORSDOF 7
ENDMDL
