REMARK  7 active torsions:
REMARK  status: ('A' for Active; 'I' for Inactive)
REMARK    1  A    between atoms: C_4  and  N_1 
REMARK    2  A    between atoms: C_2  and  C_4 
REMARK    3  A    between atoms: C_2  and  O_20 
REMARK    4  A    between atoms: C_4  and  C_5 
REMARK    5  A    between atoms: C_5  and  C_6 
REMARK    6  A    between atoms: C_11  and  C_12 
REMARK    7  A    between atoms: C_12  and  C_14 
ROOT
HETATM    1  C   UNK N   1       3.716   0.272   0.183  0.00  0.00    -0.056 A 
HETATM    2  C   UNK N   1       4.612  -0.410  -0.654  0.00  0.00     0.008 A 
HETATM    3  C   UNK N   1       2.823  -0.451   0.974  0.00  0.00     0.008 A 
HETATM    4  C   UNK N   1       4.580  -1.812  -0.720  0.00  0.00     0.016 A 
HETATM    5  C   UNK N   1       2.764  -1.830   0.875  0.00  0.00     0.016 A 
HETATM    6  C   UNK N   1       3.617  -2.526   0.014  0.00  0.00     0.015 A 
ENDROOT
BRANCH   1   7
HETATM    7  C   UNK N   1       3.631   1.769   0.168  0.00  0.00     0.074 C 
BRANCH   7   8
HETATM    8  C   UNK N   1       2.167   2.239   0.046  0.00  0.00     0.177 C 
BRANCH   8   9
HETATM    9  N   UNK N   1       1.536   1.641  -1.125  0.00  0.00    -0.417 N 
HETATM   10  H   UNK N   1       0.953   1.814  -1.944  0.00  0.00     0.150 HD
HETATM   11  H   UNK N   1       1.773   0.649  -1.125  0.00  0.00     0.150 HD
ENDBRANCH   8   9
BRANCH   8  12
HETATM   12  C   UNK N   1       2.084   3.736  -0.017  0.00  0.00     0.163 C 
HETATM   13  O   UNK N   1       1.534   4.290  -0.956  0.00  0.00    -0.648 OA
BRANCH  12  14
HETATM   14  O   UNK N   1       2.591   4.476   0.987  0.00  0.00    -0.775 OA
HETATM   15  H   UNK N   1       3.214   4.428   1.685  0.00  0.00     0.167 HD
ENDBRANCH  12  14
ENDBRANCH   8  12
ENDBRANCH   7   8
ENDBRANCH   1   7
BRANCH   6  16
HETATM   16  C   UNK N   1       3.440  -3.988  -0.182  0.00  0.00     0.192 C 
HETATM   17  O   UNK N   1       4.383  -4.661  -0.569  0.00  0.00    -0.287 OA
BRANCH  16  18
HETATM   18  C   UNK N   1       2.094  -4.624  -0.036  0.00  0.00     0.015 A 
HETATM   19  C   UNK N   1       1.946  -6.013  -0.160  0.00  0.00     0.015 A 
HETATM   20  C   UNK N   1       0.674  -6.596  -0.110  0.00  0.00     0.001 A 
HETATM   21  C   UNK N   1      -0.462  -5.795   0.043  0.00  0.00     0.000 A 
HETATM   22  C   UNK N   1      -0.329  -4.412   0.155  0.00  0.00     0.001 A 
HETATM   23  C   UNK N   1       0.939  -3.835   0.113  0.00  0.00     0.015 A 
ENDBRANCH  16  18
ENDBRANCH   6  16
TORSDOF 7
