MODEL 1
REMARK VINA RESULT:      -6.2      0.000      0.000
REMARK  8 active torsions:
REMARK  status: ('A' for Active; 'I' for Inactive)
REMARK    1  A    between atoms: C_1  and  N_9 
REMARK    2  A    between atoms: N_9  and  C_10 
REMARK    3  A    between atoms: C_10  and  N_12 
REMARK    4  A    between atoms: N_12  and  C_13 
REMARK    5  A    between atoms: C_13  and  C_14 
REMARK    6  A    between atoms: C_14  and  C_15 
REMARK    7  A    between atoms: C_20  and  O_22 
REMARK    8  A    between atoms: O_22  and  C_23 
ROOT
HETATM    1  N   UNK N   1      37.010  14.919  10.952  0.00  0.00    -0.367 N 
HETATM    2  H   UNK N   1      37.761  15.288  10.434  0.00  0.00     0.161 HD
ENDROOT
BRANCH   1   3
HETATM    3  C   UNK N   1      37.117  13.507  11.238  0.00  0.00     0.173 C 
HETATM    4  S   UNK N   1      38.227  12.721  10.749  0.00  0.00    -0.041 SA
BRANCH   3   5
HETATM    5  N   UNK N   1      36.083  12.897  12.031  0.00  0.00    -0.320 N 
HETATM    6  H   UNK N   1      35.445  12.334  11.537  0.00  0.00     0.169 HD
BRANCH   5   7
HETATM    7  C   UNK N   1      35.856  12.995  13.445  0.00  0.00     0.106 A 
HETATM    8  N   UNK N   1      36.730  13.713  14.207  0.00  0.00    -0.352 N 
HETATM    9  C   UNK N   1      36.570  13.845  15.553  0.00  0.00     0.096 A 
ATOM     10  HN  UNK N   1      37.526  14.165  13.756  1.00  0.00     0.166 HD
HETATM   11  C   UNK N   1      35.489  13.237  16.196  0.00  0.00    -0.046 A 
HETATM   12  C   UNK N   1      34.581  12.498  15.448  0.00  0.00     0.012 A 
HETATM   13  C   UNK N   1      35.306  13.375  17.664  0.00  0.00     0.049 C 
HETATM   14  C   UNK N   1      34.763  12.377  14.075  0.00  0.00     0.049 A 
ENDBRANCH   5   7
ENDBRANCH   3   5
ENDBRANCH   1   3
BRANCH   1  15
HETATM   15  C   UNK N   1      35.971  15.898  11.302  0.00  0.00     0.128 C 
BRANCH  15  16
HETATM   16  C   UNK N   1      34.645  15.690  10.581  0.00  0.00     0.080 C 
BRANCH  16  17
HETATM   17  C   UNK N   1      34.334  16.318   9.260  0.00  0.00     0.052 A 
HETATM   18  N   UNK N   1      33.554  17.431   9.295  0.00  0.00    -0.367 N 
HETATM   19  C   UNK N   1      33.193  18.102   8.176  0.00  0.00     0.091 A 
ATOM     20  HN  UNK N   1      33.228  17.773  10.199  1.00  0.00     0.165 HD
HETATM   21  C   UNK N   1      33.622  17.660   6.932  0.00  0.00     0.057 A 
HETATM   22  C   UNK N   1      34.425  16.523   6.833  0.00  0.00     0.110 A 
HETATM   23  C   UNK N   1      34.793  15.831   8.017  0.00  0.00     0.172 A 
HETATM   24  F   UNK N   1      35.573  14.722   7.960  0.00  0.00    -0.201 F 
BRANCH  22  25
HETATM   25  O   UNK N   1      34.810  16.141   5.590  0.00  0.00    -0.348 OA
BRANCH  25  26
HETATM   26  C   UNK N   1      34.049  15.419   4.704  0.00  0.00     0.171 C 
HETATM   27  C   UNK N   1      34.614  14.018   4.598  0.00  0.00     0.034 C 
ENDBRANCH  25  26
ENDBRANCH  22  25
ENDBRANCH  16  17
ENDBRANCH  15  16
ENDBRANCH   1  15
TORSDOF 8
ENDMDL
MODEL 2
REMARK VINA RESULT:      -6.2      3.694      8.630
REMARK  8 active torsions:
REMARK  status: ('A' for Active; 'I' for Inactive)
REMARK    1  A    between atoms: C_1  and  N_9 
REMARK    2  A    between atoms: N_9  and  C_10 
REMARK    3  A    between atoms: C_10  and  N_12 
REMARK    4  A    between atoms: N_12  and  C_13 
REMARK    5  A    between atoms: C_13  and  C_14 
REMARK    6  A    between atoms: C_14  and  C_15 
REMARK    7  A    between atoms: C_20  and  O_22 
REMARK    8  A    between atoms: O_22  and  C_23 
ROOT
HETATM    1  N   UNK N   1      34.771  16.922  10.524  0.00  0.00    -0.367 N 
HETATM    2  H   UNK N   1      34.495  17.502  11.270  0.00  0.00     0.161 HD
ENDROOT
BRANCH   1   3
HETATM    3  C   UNK N   1      34.046  17.142   9.295  0.00  0.00     0.173 C 
HETATM    4  S   UNK N   1      34.564  18.007   8.259  0.00  0.00    -0.041 SA
BRANCH   3   5
HETATM    5  N   UNK N   1      32.784  16.473   9.124  0.00  0.00    -0.320 N 
HETATM    6  H   UNK N   1      32.744  15.548   9.456  0.00  0.00     0.169 HD
BRANCH   5   7
HETATM    7  C   UNK N   1      31.573  16.972   8.535  0.00  0.00     0.106 A 
HETATM    8  N   UNK N   1      30.810  17.855   9.241  0.00  0.00    -0.352 N 
HETATM    9  C   UNK N   1      29.650  18.365   8.739  0.00  0.00     0.096 A 
ATOM     10  HN  UNK N   1      31.115  18.142  10.171  1.00  0.00     0.166 HD
HETATM   11  C   UNK N   1      29.209  17.989   7.468  0.00  0.00    -0.046 A 
HETATM   12  C   UNK N   1      29.964  17.090   6.723  0.00  0.00     0.012 A 
HETATM   13  C   UNK N   1      27.946  18.539   6.911  0.00  0.00     0.049 C 
HETATM   14  C   UNK N   1      31.144  16.583   7.255  0.00  0.00     0.049 A 
ENDBRANCH   5   7
ENDBRANCH   3   5
ENDBRANCH   1   3
BRANCH   1  15
HETATM   15  C   UNK N   1      35.852  15.981  10.852  0.00  0.00     0.128 C 
BRANCH  15  16
HETATM   16  C   UNK N   1      35.373  14.655  11.432  0.00  0.00     0.080 C 
BRANCH  16  17
HETATM   17  C   UNK N   1      35.701  14.214  12.823  0.00  0.00     0.052 A 
HETATM   18  N   UNK N   1      36.490  15.052  13.546  0.00  0.00    -0.367 N 
HETATM   19  C   UNK N   1      36.867  14.780  14.818  0.00  0.00     0.091 A 
ATOM     20  HN  UNK N   1      36.812  15.919  13.113  1.00  0.00     0.165 HD
HETATM   21  C   UNK N   1      36.444  13.609  15.432  0.00  0.00     0.057 A 
HETATM   22  C   UNK N   1      35.633  12.711  14.740  0.00  0.00     0.110 A 
HETATM   23  C   UNK N   1      35.248  13.010  13.406  0.00  0.00     0.172 A 
HETATM   24  F   UNK N   1      34.460  12.161  12.701  0.00  0.00    -0.201 F 
BRANCH  22  25
HETATM   25  O   UNK N   1      35.255  11.584  15.394  0.00  0.00    -0.348 OA
BRANCH  25  26
HETATM   26  C   UNK N   1      35.188  11.436  16.758  0.00  0.00     0.171 C 
HETATM   27  C   UNK N   1      35.024   9.966  17.085  0.00  0.00     0.034 C 
ENDBRANCH  25  26
ENDBRANCH  22  25
ENDBRANCH  16  17
ENDBRANCH  15  16
ENDBRANCH   1  15
TORSDOF 8
ENDMDL
MODEL 3
REMARK VINA RESULT:      -6.2      1.653      1.917
REMARK  8 active torsions:
REMARK  status: ('A' for Active; 'I' for Inactive)
REMARK    1  A    between atoms: C_1  and  N_9 
REMARK    2  A    between atoms: N_9  and  C_10 
REMARK    3  A    between atoms: C_10  and  N_12 
REMARK    4  A    between atoms: N_12  and  C_13 
REMARK    5  A    between atoms: C_13  and  C_14 
REMARK    6  A    between atoms: C_14  and  C_15 
REMARK    7  A    between atoms: C_20  and  O_22 
REMARK    8  A    between atoms: O_22  and  C_23 
ROOT
HETATM    1  N   UNK N   1      36.952  15.178  11.128  0.00  0.00    -0.367 N 
HETATM    2  H   UNK N   1      37.757  15.677  10.863  0.00  0.00     0.161 HD
ENDROOT
BRANCH   1   3
HETATM    3  C   UNK N   1      37.132  13.747  11.206  0.00  0.00     0.173 C 
HETATM    4  S   UNK N   1      38.235  13.089  10.543  0.00  0.00    -0.041 SA
BRANCH   3   5
HETATM    5  N   UNK N   1      36.178  12.984  11.966  0.00  0.00    -0.320 N 
HETATM    6  H   UNK N   1      35.631  12.350  11.449  0.00  0.00     0.169 HD
BRANCH   5   7
HETATM    7  C   UNK N   1      35.915  13.021  13.377  0.00  0.00     0.106 A 
HETATM    8  N   UNK N   1      36.755  13.727  14.188  0.00  0.00    -0.352 N 
HETATM    9  C   UNK N   1      36.560  13.801  15.534  0.00  0.00     0.096 A 
ATOM     10  HN  UNK N   1      37.551  14.214  13.775  1.00  0.00     0.166 HD
HETATM   11  C   UNK N   1      35.479  13.144  16.126  0.00  0.00    -0.046 A 
HETATM   12  C   UNK N   1      34.605  12.416  15.327  0.00  0.00     0.012 A 
HETATM   13  C   UNK N   1      35.258  13.219  17.593  0.00  0.00     0.049 C 
HETATM   14  C   UNK N   1      34.822  12.354  13.955  0.00  0.00     0.049 A 
ENDBRANCH   5   7
ENDBRANCH   3   5
ENDBRANCH   1   3
BRANCH   1  15
HETATM   15  C   UNK N   1      35.771  16.017  11.378  0.00  0.00     0.128 C 
BRANCH  15  16
HETATM   16  C   UNK N   1      35.326  16.846  10.180  0.00  0.00     0.080 C 
BRANCH  16  17
HETATM   17  C   UNK N   1      34.071  16.560   9.417  0.00  0.00     0.052 A 
HETATM   18  N   UNK N   1      33.342  15.495   9.844  0.00  0.00    -0.367 N 
HETATM   19  C   UNK N   1      32.185  15.120   9.248  0.00  0.00     0.091 A 
ATOM     20  HN  UNK N   1      33.679  14.957  10.643  1.00  0.00     0.165 HD
HETATM   21  C   UNK N   1      31.702  15.833   8.160  0.00  0.00     0.057 A 
HETATM   22  C   UNK N   1      32.407  16.935   7.677  0.00  0.00     0.110 A 
HETATM   23  C   UNK N   1      33.619  17.314   8.313  0.00  0.00     0.172 A 
HETATM   24  F   UNK N   1      34.333  18.380   7.872  0.00  0.00    -0.201 F 
BRANCH  22  25
HETATM   25  O   UNK N   1      31.884  17.589   6.611  0.00  0.00    -0.348 OA
BRANCH  25  26
HETATM   26  C   UNK N   1      31.793  17.091   5.334  0.00  0.00     0.171 C 
HETATM   27  C   UNK N   1      33.025  17.507   4.556  0.00  0.00     0.034 C 
ENDBRANCH  25  26
ENDBRANCH  22  25
ENDBRANCH  16  17
ENDBRANCH  15  16
ENDBRANCH   1  15
TORSDOF 8
ENDMDL
MODEL 4
REMARK VINA RESULT:      -6.1      2.177      2.629
REMARK  8 active torsions:
REMARK  status: ('A' for Active; 'I' for Inactive)
REMARK    1  A    between atoms: C_1  and  N_9 
REMARK    2  A    between atoms: N_9  and  C_10 
REMARK    3  A    between atoms: C_10  and  N_12 
REMARK    4  A    between atoms: N_12  and  C_13 
REMARK    5  A    between atoms: C_13  and  C_14 
REMARK    6  A    between atoms: C_14  and  C_15 
REMARK    7  A    between atoms: C_20  and  O_22 
REMARK    8  A    between atoms: O_22  and  C_23 
ROOT
HETATM    1  N   UNK N   1      34.507  15.806  10.551  0.00  0.00    -0.367 N 
HETATM    2  H   UNK N   1      34.229  16.402  11.282  0.00  0.00     0.161 HD
ENDROOT
BRANCH   1   3
HETATM    3  C   UNK N   1      35.806  15.201  10.731  0.00  0.00     0.173 C 
HETATM    4  S   UNK N   1      36.478  14.521   9.648  0.00  0.00    -0.041 SA
BRANCH   3   5
HETATM    5  N   UNK N   1      36.422  15.293  12.029  0.00  0.00    -0.320 N 
HETATM    6  H   UNK N   1      37.090  16.008  12.133  0.00  0.00     0.169 HD
BRANCH   5   7
HETATM    7  C   UNK N   1      36.193  14.485  13.193  0.00  0.00     0.106 A 
HETATM    8  N   UNK N   1      36.870  14.774  14.341  0.00  0.00    -0.352 N 
HETATM    9  C   UNK N   1      36.699  14.045  15.479  0.00  0.00     0.096 A 
ATOM     10  HN  UNK N   1      37.524  15.557  14.348  1.00  0.00     0.166 HD
HETATM   11  C   UNK N   1      35.810  12.968  15.498  0.00  0.00    -0.046 A 
HETATM   12  C   UNK N   1      35.105  12.648  14.344  0.00  0.00     0.012 A 
HETATM   13  C   UNK N   1      35.616  12.167  16.734  0.00  0.00     0.049 C 
HETATM   14  C   UNK N   1      35.295  13.404  13.193  0.00  0.00     0.049 A 
ENDBRANCH   5   7
ENDBRANCH   3   5
ENDBRANCH   1   3
BRANCH   1  15
HETATM   15  C   UNK N   1      33.529  15.683   9.460  0.00  0.00     0.128 C 
BRANCH  15  16
HETATM   16  C   UNK N   1      33.235  16.989   8.732  0.00  0.00     0.080 C 
BRANCH  16  17
HETATM   17  C   UNK N   1      32.342  17.067   7.534  0.00  0.00     0.052 A 
HETATM   18  N   UNK N   1      31.026  16.802   7.752  0.00  0.00    -0.367 N 
HETATM   19  C   UNK N   1      30.105  16.835   6.760  0.00  0.00     0.091 A 
ATOM     20  HN  UNK N   1      30.722  16.569   8.697  1.00  0.00     0.165 HD
HETATM   21  C   UNK N   1      30.489  17.149   5.464  0.00  0.00     0.057 A 
HETATM   22  C   UNK N   1      31.826  17.430   5.180  0.00  0.00     0.110 A 
HETATM   23  C   UNK N   1      32.780  17.390   6.232  0.00  0.00     0.172 A 
HETATM   24  F   UNK N   1      34.089  17.657   5.995  0.00  0.00    -0.201 F 
BRANCH  22  25
HETATM   25  O   UNK N   1      32.139  17.728   3.895  0.00  0.00    -0.348 OA
BRANCH  25  26
HETATM   26  C   UNK N   1      32.118  16.846   2.842  0.00  0.00     0.171 C 
HETATM   27  C   UNK N   1      33.340  15.955   2.923  0.00  0.00     0.034 C 
ENDBRANCH  25  26
ENDBRANCH  22  25
ENDBRANCH  16  17
ENDBRANCH  15  16
ENDBRANCH   1  15
TORSDOF 8
ENDMDL
MODEL 5
REMARK VINA RESULT:      -6.1      3.655      4.556
REMARK  8 active torsions:
REMARK  status: ('A' for Active; 'I' for Inactive)
REMARK    1  A    between atoms: C_1  and  N_9 
REMARK    2  A    between atoms: N_9  and  C_10 
REMARK    3  A    between atoms: C_10  and  N_12 
REMARK    4  A    between atoms: N_12  and  C_13 
REMARK    5  A    between atoms: C_13  and  C_14 
REMARK    6  A    between atoms: C_14  and  C_15 
REMARK    7  A    between atoms: C_20  and  O_22 
REMARK    8  A    between atoms: O_22  and  C_23 
ROOT
HETATM    1  N   UNK N   1      33.760  15.671  10.131  0.00  0.00    -0.367 N 
HETATM    2  H   UNK N   1      33.626  16.436  10.736  0.00  0.00     0.161 HD
ENDROOT
BRANCH   1   3
HETATM    3  C   UNK N   1      35.116  15.177  10.083  0.00  0.00     0.173 C 
HETATM    4  S   UNK N   1      35.655  14.571   8.886  0.00  0.00    -0.041 SA
BRANCH   3   5
HETATM    5  N   UNK N   1      35.926  15.302  11.265  0.00  0.00    -0.320 N 
HETATM    6  H   UNK N   1      36.595  16.024  11.249  0.00  0.00     0.169 HD
BRANCH   5   7
HETATM    7  C   UNK N   1      35.892  14.519  12.468  0.00  0.00     0.106 A 
HETATM    8  N   UNK N   1      36.623  14.927  13.544  0.00  0.00    -0.352 N 
HETATM    9  C   UNK N   1      36.633  14.228  14.713  0.00  0.00     0.096 A 
ATOM     10  HN  UNK N   1      37.179  15.780  13.472  1.00  0.00     0.166 HD
HETATM   11  C   UNK N   1      35.881  13.057  14.840  0.00  0.00    -0.046 A 
HETATM   12  C   UNK N   1      35.125  12.615  13.761  0.00  0.00     0.012 A 
HETATM   13  C   UNK N   1      35.886  12.288  16.111  0.00  0.00     0.049 C 
HETATM   14  C   UNK N   1      35.130  13.343  12.577  0.00  0.00     0.049 A 
ENDBRANCH   5   7
ENDBRANCH   3   5
ENDBRANCH   1   3
BRANCH   1  15
HETATM   15  C   UNK N   1      32.546  15.228   9.431  0.00  0.00     0.128 C 
BRANCH  15  16
HETATM   16  C   UNK N   1      32.057  16.189   8.355  0.00  0.00     0.080 C 
BRANCH  16  17
HETATM   17  C   UNK N   1      30.764  16.933   8.460  0.00  0.00     0.052 A 
HETATM   18  N   UNK N   1      30.213  17.003   9.702  0.00  0.00    -0.367 N 
HETATM   19  C   UNK N   1      29.045  17.645   9.945  0.00  0.00     0.091 A 
ATOM     20  HN  UNK N   1      30.698  16.555  10.480  1.00  0.00     0.165 HD
HETATM   21  C   UNK N   1      28.364  18.264   8.906  0.00  0.00     0.057 A 
HETATM   22  C   UNK N   1      28.880  18.226   7.611  0.00  0.00     0.110 A 
HETATM   23  C   UNK N   1      30.105  17.548   7.373  0.00  0.00     0.172 A 
HETATM   24  F   UNK N   1      30.638  17.489   6.127  0.00  0.00    -0.201 F 
BRANCH  22  25
HETATM   25  O   UNK N   1      28.167  18.848   6.639  0.00  0.00    -0.348 OA
BRANCH  25  26
HETATM   26  C   UNK N   1      27.584  20.087   6.746  0.00  0.00     0.171 C 
HETATM   27  C   UNK N   1      27.204  20.572   5.361  0.00  0.00     0.034 C 
ENDBRANCH  25  26
ENDBRANCH  22  25
ENDBRANCH  16  17
ENDBRANCH  15  16
ENDBRANCH   1  15
TORSDOF 8
ENDMDL
MODEL 6
REMARK VINA RESULT:      -6.0      2.225      3.098
REMARK  8 active torsions:
REMARK  status: ('A' for Active; 'I' for Inactive)
REMARK    1  A    between atoms: C_1  and  N_9 
REMARK    2  A    between atoms: N_9  and  C_10 
REMARK    3  A    between atoms: C_10  and  N_12 
REMARK    4  A    between atoms: N_12  and  C_13 
REMARK    5  A    between atoms: C_13  and  C_14 
REMARK    6  A    between atoms: C_14  and  C_15 
REMARK    7  A    between atoms: C_20  and  O_22 
REMARK    8  A    between atoms: O_22  and  C_23 
ROOT
HETATM    1  N   UNK N   1      36.548  14.529   9.496  0.00  0.00    -0.367 N 
HETATM    2  H   UNK N   1      37.266  15.047   9.067  0.00  0.00     0.161 HD
ENDROOT
BRANCH   1   3
HETATM    3  C   UNK N   1      36.332  14.842  10.889  0.00  0.00     0.173 C 
HETATM    4  S   UNK N   1      35.598  16.020  11.292  0.00  0.00    -0.041 SA
BRANCH   3   5
HETATM    5  N   UNK N   1      36.871  13.945  11.876  0.00  0.00    -0.320 N 
HETATM    6  H   UNK N   1      37.665  13.434  11.599  0.00  0.00     0.169 HD
BRANCH   5   7
HETATM    7  C   UNK N   1      36.408  13.693  13.212  0.00  0.00     0.106 A 
HETATM    8  N   UNK N   1      37.044  14.297  14.256  0.00  0.00    -0.352 N 
HETATM    9  C   UNK N   1      36.654  14.100  15.546  0.00  0.00     0.096 A 
ATOM     10  HN  UNK N   1      37.834  14.915  14.067  1.00  0.00     0.166 HD
HETATM   11  C   UNK N   1      35.576  13.260  15.835  0.00  0.00    -0.046 A 
HETATM   12  C   UNK N   1      34.907  12.629  14.792  0.00  0.00     0.012 A 
HETATM   13  C   UNK N   1      35.143  13.038  17.239  0.00  0.00     0.049 C 
HETATM   14  C   UNK N   1      35.322  12.845  13.483  0.00  0.00     0.049 A 
ENDBRANCH   5   7
ENDBRANCH   3   5
ENDBRANCH   1   3
BRANCH   1  15
HETATM   15  C   UNK N   1      35.877  13.568   8.608  0.00  0.00     0.128 C 
BRANCH  15  16
HETATM   16  C   UNK N   1      34.403  13.866   8.361  0.00  0.00     0.080 C 
BRANCH  16  17
HETATM   17  C   UNK N   1      33.912  15.204   7.907  0.00  0.00     0.052 A 
HETATM   18  N   UNK N   1      34.457  15.681   6.756  0.00  0.00    -0.367 N 
HETATM   19  C   UNK N   1      34.106  16.878   6.228  0.00  0.00     0.091 A 
ATOM     20  HN  UNK N   1      35.156  15.117   6.273  1.00  0.00     0.165 HD
HETATM   21  C   UNK N   1      33.157  17.667   6.863  0.00  0.00     0.057 A 
HETATM   22  C   UNK N   1      32.564  17.229   8.047  0.00  0.00     0.110 A 
HETATM   23  C   UNK N   1      32.943  15.972   8.588  0.00  0.00     0.172 A 
HETATM   24  F   UNK N   1      32.388  15.513   9.738  0.00  0.00    -0.201 F 
BRANCH  22  25
HETATM   25  O   UNK N   1      31.645  18.046   8.620  0.00  0.00    -0.348 OA
BRANCH  25  26
HETATM   26  C   UNK N   1      30.283  17.941   8.475  0.00  0.00     0.171 C 
HETATM   27  C   UNK N   1      29.614  18.449   9.736  0.00  0.00     0.034 C 
ENDBRANCH  25  26
ENDBRANCH  22  25
ENDBRANCH  16  17
ENDBRANCH  15  16
ENDBRANCH   1  15
TORSDOF 8
ENDMDL
MODEL 7
REMARK VINA RESULT:      -6.0      3.250      8.623
REMARK  8 active torsions:
REMARK  status: ('A' for Active; 'I' for Inactive)
REMARK    1  A    between atoms: C_1  and  N_9 
REMARK    2  A    between atoms: N_9  and  C_10 
REMARK    3  A    between atoms: C_10  and  N_12 
REMARK    4  A    between atoms: N_12  and  C_13 
REMARK    5  A    between atoms: C_13  and  C_14 
REMARK    6  A    between atoms: C_14  and  C_15 
REMARK    7  A    between atoms: C_20  and  O_22 
REMARK    8  A    between atoms: O_22  and  C_23 
ROOT
HETATM    1  N   UNK N   1      33.924  14.650  10.509  0.00  0.00    -0.367 N 
HETATM    2  H   UNK N   1      33.032  14.705  10.921  0.00  0.00     0.161 HD
ENDROOT
BRANCH   1   3
HETATM    3  C   UNK N   1      34.604  15.918  10.382  0.00  0.00     0.173 C 
HETATM    4  S   UNK N   1      35.957  16.099  10.856  0.00  0.00    -0.041 SA
BRANCH   3   5
HETATM    5  N   UNK N   1      33.895  17.008   9.765  0.00  0.00    -0.320 N 
HETATM    6  H   UNK N   1      33.710  17.780  10.348  0.00  0.00     0.169 HD
BRANCH   5   7
HETATM    7  C   UNK N   1      33.420  17.125   8.416  0.00  0.00     0.106 A 
HETATM    8  N   UNK N   1      34.324  17.295   7.409  0.00  0.00    -0.352 N 
HETATM    9  C   UNK N   1      33.938  17.412   6.108  0.00  0.00     0.096 A 
ATOM     10  HN  UNK N   1      35.318  17.336   7.636  1.00  0.00     0.166 HD
HETATM   11  C   UNK N   1      32.584  17.360   5.769  0.00  0.00    -0.046 A 
HETATM   12  C   UNK N   1      31.637  17.187   6.772  0.00  0.00     0.012 A 
HETATM   13  C   UNK N   1      32.152  17.487   4.352  0.00  0.00     0.049 C 
HETATM   14  C   UNK N   1      32.054  17.070   8.093  0.00  0.00     0.049 A 
ENDBRANCH   5   7
ENDBRANCH   3   5
ENDBRANCH   1   3
BRANCH   1  15
HETATM   15  C   UNK N   1      34.338  13.292  10.128  0.00  0.00     0.128 C 
BRANCH  15  16
HETATM   16  C   UNK N   1      35.358  12.661  11.067  0.00  0.00     0.080 C 
BRANCH  16  17
HETATM   17  C   UNK N   1      35.038  12.289  12.480  0.00  0.00     0.052 A 
HETATM   18  N   UNK N   1      34.217  11.217  12.644  0.00  0.00    -0.367 N 
HETATM   19  C   UNK N   1      33.843  10.767  13.866  0.00  0.00     0.091 A 
ATOM     20  HN  UNK N   1      33.869  10.733  11.816  1.00  0.00     0.165 HD
HETATM   21  C   UNK N   1      34.301  11.405  15.011  0.00  0.00     0.057 A 
HETATM   22  C   UNK N   1      35.145  12.510  14.905  0.00  0.00     0.110 A 
HETATM   23  C   UNK N   1      35.527  12.969  13.616  0.00  0.00     0.172 A 
HETATM   24  F   UNK N   1      36.347  14.041  13.473  0.00  0.00    -0.201 F 
BRANCH  22  25
HETATM   25  O   UNK N   1      35.557  13.090  16.059  0.00  0.00    -0.348 OA
BRANCH  25  26
HETATM   26  C   UNK N   1      34.977  12.917  17.292  0.00  0.00     0.171 C 
HETATM   27  C   UNK N   1      35.346  14.089  18.178  0.00  0.00     0.034 C 
ENDBRANCH  25  26
ENDBRANCH  22  25
ENDBRANCH  16  17
ENDBRANCH  15  16
ENDBRANCH   1  15
TORSDOF 8
ENDMDL
MODEL 8
REMARK VINA RESULT:      -5.8      7.435     11.554
REMARK  8 active torsions:
REMARK  status: ('A' for Active; 'I' for Inactive)
REMARK    1  A    between atoms: C_1  and  N_9 
REMARK    2  A    between atoms: N_9  and  C_10 
REMARK    3  A    between atoms: C_10  and  N_12 
REMARK    4  A    between atoms: N_12  and  C_13 
REMARK    5  A    between atoms: C_13  and  C_14 
REMARK    6  A    between atoms: C_14  and  C_15 
REMARK    7  A    between atoms: C_20  and  O_22 
REMARK    8  A    between atoms: O_22  and  C_23 
ROOT
HETATM    1  N   UNK N   1      27.656  18.612   7.252  0.00  0.00    -0.367 N 
HETATM    2  H   UNK N   1      27.292  17.703   7.158  0.00  0.00     0.161 HD
ENDROOT
BRANCH   1   3
HETATM    3  C   UNK N   1      27.293  19.515   6.185  0.00  0.00     0.173 C 
HETATM    4  S   UNK N   1      27.532  20.937   6.287  0.00  0.00    -0.041 SA
BRANCH   3   5
HETATM    5  N   UNK N   1      26.681  18.961   5.006  0.00  0.00    -0.320 N 
HETATM    6  H   UNK N   1      27.261  18.385   4.457  0.00  0.00     0.169 HD
BRANCH   5   7
HETATM    7  C   UNK N   1      25.342  19.133   4.521  0.00  0.00     0.106 A 
HETATM    8  N   UNK N   1      24.354  18.328   5.007  0.00  0.00    -0.352 N 
HETATM    9  C   UNK N   1      23.063  18.440   4.588  0.00  0.00     0.096 A 
ATOM     10  HN  UNK N   1      24.588  17.620   5.704  1.00  0.00     0.166 HD
HETATM   11  C   UNK N   1      22.714  19.399   3.634  0.00  0.00    -0.046 A 
HETATM   12  C   UNK N   1      23.698  20.236   3.119  0.00  0.00     0.012 A 
HETATM   13  C   UNK N   1      21.309  19.530   3.170  0.00  0.00     0.049 C 
HETATM   14  C   UNK N   1      25.009  20.104   3.561  0.00  0.00     0.049 A 
ENDBRANCH   5   7
ENDBRANCH   3   5
ENDBRANCH   1   3
BRANCH   1  15
HETATM   15  C   UNK N   1      28.475  18.820   8.455  0.00  0.00     0.128 C 
BRANCH  15  16
HETATM   16  C   UNK N   1      29.384  17.648   8.803  0.00  0.00     0.080 C 
BRANCH  16  17
HETATM   17  C   UNK N   1      30.712  17.429   8.149  0.00  0.00     0.052 A 
HETATM   18  N   UNK N   1      31.781  18.005   8.761  0.00  0.00    -0.367 N 
HETATM   19  C   UNK N   1      33.042  17.890   8.280  0.00  0.00     0.091 A 
ATOM     20  HN  UNK N   1      31.628  18.543   9.614  1.00  0.00     0.165 HD
HETATM   21  C   UNK N   1      33.281  17.164   7.122  0.00  0.00     0.057 A 
HETATM   22  C   UNK N   1      32.223  16.551   6.451  0.00  0.00     0.110 A 
HETATM   23  C   UNK N   1      30.907  16.682   6.967  0.00  0.00     0.172 A 
HETATM   24  F   UNK N   1      29.853  16.100   6.342  0.00  0.00    -0.201 F 
BRANCH  22  25
HETATM   25  O   UNK N   1      32.521  15.856   5.325  0.00  0.00    -0.348 OA
BRANCH  25  26
HETATM   26  C   UNK N   1      33.153  16.364   4.216  0.00  0.00     0.171 C 
HETATM   27  C   UNK N   1      32.234  17.361   3.540  0.00  0.00     0.034 C 
ENDBRANCH  25  26
ENDBRANCH  22  25
ENDBRANCH  16  17
ENDBRANCH  15  16
ENDBRANCH   1  15
TORSDOF 8
ENDMDL
MODEL 9
REMARK VINA RESULT:      -5.7      1.786      2.464
REMARK  8 active torsions:
REMARK  status: ('A' for Active; 'I' for Inactive)
REMARK    1  A    between atoms: C_1  and  N_9 
REMARK    2  A    between atoms: N_9  and  C_10 
REMARK    3  A    between atoms: C_10  and  N_12 
REMARK    4  A    between atoms: N_12  and  C_13 
REMARK    5  A    between atoms: C_13  and  C_14 
REMARK    6  A    between atoms: C_14  and  C_15 
REMARK    7  A    between atoms: C_20  and  O_22 
REMARK    8  A    between atoms: O_22  and  C_23 
ROOT
HETATM    1  N   UNK N   1      36.696  14.292  12.607  0.00  0.00    -0.367 N 
HETATM    2  H   UNK N   1      37.628  14.555  12.786  0.00  0.00     0.161 HD
ENDROOT
BRANCH   1   3
HETATM    3  C   UNK N   1      36.407  12.901  12.864  0.00  0.00     0.173 C 
HETATM    4  S   UNK N   1      37.192  11.845  12.266  0.00  0.00    -0.041 SA
BRANCH   3   5
HETATM    5  N   UNK N   1      35.307  12.588  13.738  0.00  0.00    -0.320 N 
HETATM    6  H   UNK N   1      34.433  12.477  13.299  0.00  0.00     0.169 HD
BRANCH   5   7
HETATM    7  C   UNK N   1      35.311  12.415  15.163  0.00  0.00     0.106 A 
HETATM    8  N   UNK N   1      35.244  13.518  15.962  0.00  0.00    -0.352 N 
HETATM    9  C   UNK N   1      35.244  13.422  17.321  0.00  0.00     0.096 A 
ATOM     10  HN  UNK N   1      35.194  14.442  15.532  1.00  0.00     0.166 HD
HETATM   11  C   UNK N   1      35.312  12.170  17.938  0.00  0.00    -0.046 A 
HETATM   12  C   UNK N   1      35.380  11.027  17.150  0.00  0.00     0.012 A 
HETATM   13  C   UNK N   1      35.312  12.054  19.419  0.00  0.00     0.049 C 
HETATM   14  C   UNK N   1      35.380  11.148  15.766  0.00  0.00     0.049 A 
ENDBRANCH   5   7
ENDBRANCH   3   5
ENDBRANCH   1   3
BRANCH   1  15
HETATM   15  C   UNK N   1      35.838  15.384  12.124  0.00  0.00     0.128 C 
BRANCH  15  16
HETATM   16  C   UNK N   1      34.748  14.941  11.155  0.00  0.00     0.080 C 
BRANCH  16  17
HETATM   17  C   UNK N   1      34.907  15.010   9.670  0.00  0.00     0.052 A 
HETATM   18  N   UNK N   1      35.416  13.900   9.072  0.00  0.00    -0.367 N 
HETATM   19  C   UNK N   1      35.615  13.821   7.734  0.00  0.00     0.091 A 
ATOM     20  HN  UNK N   1      35.658  13.096   9.652  1.00  0.00     0.165 HD
HETATM   21  C   UNK N   1      35.295  14.898   6.920  0.00  0.00     0.057 A 
HETATM   22  C   UNK N   1      34.769  16.063   7.476  0.00  0.00     0.110 A 
HETATM   23  C   UNK N   1      34.568  16.130   8.881  0.00  0.00     0.172 A 
HETATM   24  F   UNK N   1      34.059  17.247   9.459  0.00  0.00    -0.201 F 
BRANCH  22  25
HETATM   25  O   UNK N   1      34.478  17.081   6.629  0.00  0.00    -0.348 OA
BRANCH  25  26
HETATM   26  C   UNK N   1      33.215  17.485   6.270  0.00  0.00     0.171 C 
HETATM   27  C   UNK N   1      33.135  17.563   4.759  0.00  0.00     0.034 C 
ENDBRANCH  25  26
ENDBRANCH  22  25
ENDBRANCH  16  17
ENDBRANCH  15  16
ENDBRANCH   1  15
TORSDOF 8
ENDMDL
