MODEL 1
REMARK VINA RESULT:      -6.9      0.000      0.000
REMARK  3 active torsions:
REMARK  status: ('A' for Active; 'I' for Inactive)
REMARK    1  A    between atoms: C_1  and  C_13 
REMARK    2  A    between atoms: C_5  and  S_9 
REMARK    3  A    between atoms: C_17  and  S_21 
ROOT
HETATM    1  C   UNK N   1      25.081  18.654   4.268  0.00  0.00    -0.001 A 
HETATM    2  C   UNK N   1      24.914  19.787   3.404  0.00  0.00     0.046 A 
HETATM    3 Cl   UNK N   1      26.225  20.799   2.801  0.00  0.00    -0.083 Cl
HETATM    4  C   UNK N   1      23.629  20.172   3.002  0.00  0.00     0.049 A 
HETATM    5  C   UNK N   1      22.498  19.475   3.422  0.00  0.00     0.082 A 
HETATM    6  C   UNK N   1      22.649  18.364   4.258  0.00  0.00     0.056 A 
HETATM    7 Cl   UNK N   1      21.271  17.446   4.842  0.00  0.00    -0.083 Cl
HETATM    8  C   UNK N   1      23.921  17.976   4.662  0.00  0.00     0.039 A 
ENDROOT
BRANCH   1   9
HETATM    9  C   UNK N   1      26.420  18.187   4.813  0.00  0.00    -0.001 A 
HETATM   10  C   UNK N   1      27.208  18.941   5.745  0.00  0.00     0.046 A 
HETATM   11 Cl   UNK N   1      26.733  20.479   6.466  0.00  0.00    -0.083 Cl
HETATM   12  C   UNK N   1      28.469  18.477   6.124  0.00  0.00     0.049 A 
HETATM   13  C   UNK N   1      28.982  17.282   5.633  0.00  0.00     0.082 A 
HETATM   14  C   UNK N   1      28.204  16.507   4.761  0.00  0.00     0.056 A 
HETATM   15 Cl   UNK N   1      28.761  14.968   4.122  0.00  0.00    -0.083 Cl
HETATM   16  C   UNK N   1      26.953  16.971   4.363  0.00  0.00     0.039 A 
BRANCH  13  17
HETATM   17  S   UNK N   1      30.645  16.817   6.127  0.00  0.00     0.173 S 
HETATM   18  O   UNK N   1      31.646  17.473   5.165  0.00  0.00    -0.223 OA
HETATM   19  O   UNK N   1      30.983  17.583   7.414  0.00  0.00    -0.223 OA
HETATM   20  C   UNK N   1      31.163  15.102   6.410  0.00  0.00     0.167 C 
ENDBRANCH  13  17
ENDBRANCH   1   9
BRANCH   5  21
HETATM   21  S   UNK N   1      20.873  20.041   2.910  0.00  0.00     0.173 S 
HETATM   22  O   UNK N   1      20.320  20.899   4.058  0.00  0.00    -0.223 OA
HETATM   23  O   UNK N   1      21.079  21.153   1.869  0.00  0.00    -0.223 OA
HETATM   24  C   UNK N   1      19.515  18.999   2.308  0.00  0.00     0.167 C 
ENDBRANCH   5  21
TORSDOF 3
ENDMDL
MODEL 2
REMARK VINA RESULT:      -6.9      0.886      8.134
REMARK  3 active torsions:
REMARK  status: ('A' for Active; 'I' for Inactive)
REMARK    1  A    between atoms: C_1  and  C_13 
REMARK    2  A    between atoms: C_5  and  S_9 
REMARK    3  A    between atoms: C_17  and  S_21 
ROOT
HETATM    1  C   UNK N   1      26.730  18.266   5.030  0.00  0.00    -0.001 A 
HETATM    2  C   UNK N   1      27.399  19.023   6.049  0.00  0.00     0.046 A 
HETATM    3 Cl   UNK N   1      26.765  20.487   6.799  0.00  0.00    -0.083 Cl
HETATM    4  C   UNK N   1      28.663  18.621   6.497  0.00  0.00     0.049 A 
HETATM    5  C   UNK N   1      29.295  17.494   5.975  0.00  0.00     0.082 A 
HETATM    6  C   UNK N   1      28.649  16.744   4.987  0.00  0.00     0.056 A 
HETATM    7 Cl   UNK N   1      29.387  15.322   4.269  0.00  0.00    -0.083 Cl
HETATM    8  C   UNK N   1      27.394  17.136   4.536  0.00  0.00     0.039 A 
ENDROOT
BRANCH   1   9
HETATM    9  C   UNK N   1      25.388  18.645   4.429  0.00  0.00    -0.001 A 
HETATM   10  C   UNK N   1      25.197  19.758   3.544  0.00  0.00     0.046 A 
HETATM   11 Cl   UNK N   1      26.476  20.814   2.949  0.00  0.00    -0.083 Cl
HETATM   12  C   UNK N   1      23.911  20.086   3.110  0.00  0.00     0.049 A 
HETATM   13  C   UNK N   1      22.799  19.348   3.500  0.00  0.00     0.082 A 
HETATM   14  C   UNK N   1      22.975  18.228   4.325  0.00  0.00     0.056 A 
HETATM   15 Cl   UNK N   1      21.631  17.219   4.836  0.00  0.00    -0.083 Cl
HETATM   16  C   UNK N   1      24.251  17.902   4.777  0.00  0.00     0.039 A 
BRANCH  13  17
HETATM   17  S   UNK N   1      21.184  19.905   2.945  0.00  0.00     0.173 S 
HETATM   18  O   UNK N   1      20.439  20.520   4.138  0.00  0.00    -0.223 OA
HETATM   19  O   UNK N   1      21.391  21.165   2.092  0.00  0.00    -0.223 OA
HETATM   20  C   UNK N   1      20.026  18.857   2.024  0.00  0.00     0.167 C 
ENDBRANCH  13  17
ENDBRANCH   1   9
BRANCH   5  21
HETATM   21  S   UNK N   1      30.935  17.053   6.557  0.00  0.00     0.173 S 
HETATM   22  O   UNK N   1      31.142  17.782   7.893  0.00  0.00    -0.223 OA
HETATM   23  O   UNK N   1      30.864  15.612   7.088  0.00  0.00    -0.223 OA
HETATM   24  C   UNK N   1      32.480  17.193   5.616  0.00  0.00     0.167 C 
ENDBRANCH   5  21
TORSDOF 3
ENDMDL
MODEL 3
REMARK VINA RESULT:      -6.9      2.826      8.765
REMARK  3 active torsions:
REMARK  status: ('A' for Active; 'I' for Inactive)
REMARK    1  A    between atoms: C_1  and  C_13 
REMARK    2  A    between atoms: C_5  and  S_9 
REMARK    3  A    between atoms: C_17  and  S_21 
ROOT
HETATM    1  C   UNK N   1      29.231  17.353   6.318  0.00  0.00    -0.001 A 
HETATM    2  C   UNK N   1      29.625  17.622   7.671  0.00  0.00     0.046 A 
HETATM    3 Cl   UNK N   1      28.529  18.104   8.965  0.00  0.00    -0.083 Cl
HETATM    4  C   UNK N   1      30.974  17.530   8.034  0.00  0.00     0.049 A 
HETATM    5  C   UNK N   1      31.953  17.180   7.106  0.00  0.00     0.082 A 
HETATM    6  C   UNK N   1      31.580  16.908   5.786  0.00  0.00     0.056 A 
HETATM    7 Cl   UNK N   1      32.757  16.478   4.557  0.00  0.00    -0.083 Cl
HETATM    8  C   UNK N   1      30.243  16.998   5.418  0.00  0.00     0.039 A 
ENDROOT
BRANCH   1   9
HETATM    9  C   UNK N   1      27.808  17.482   5.803  0.00  0.00    -0.001 A 
HETATM   10  C   UNK N   1      27.305  18.647   5.134  0.00  0.00     0.046 A 
HETATM   11 Cl   UNK N   1      28.255  20.077   4.732  0.00  0.00    -0.083 Cl
HETATM   12  C   UNK N   1      25.958  18.714   4.774  0.00  0.00     0.049 A 
HETATM   13  C   UNK N   1      25.082  17.665   5.031  0.00  0.00     0.082 A 
HETATM   14  C   UNK N   1      25.568  16.499   5.638  0.00  0.00     0.056 A 
HETATM   15 Cl   UNK N   1      24.540  15.113   5.967  0.00  0.00    -0.083 Cl
HETATM   16  C   UNK N   1      26.907  16.430   6.017  0.00  0.00     0.039 A 
BRANCH  13  17
HETATM   17  S   UNK N   1      23.354  17.887   4.594  0.00  0.00     0.173 S 
HETATM   18  O   UNK N   1      23.227  19.132   3.706  0.00  0.00    -0.223 OA
HETATM   19  O   UNK N   1      22.986  16.801   3.572  0.00  0.00    -0.223 OA
HETATM   20  C   UNK N   1      22.009  17.910   5.811  0.00  0.00     0.167 C 
ENDBRANCH  13  17
ENDBRANCH   1   9
BRANCH   5  21
HETATM   21  S   UNK N   1      33.673  17.121   7.619  0.00  0.00     0.173 S 
HETATM   22  O   UNK N   1      34.398  18.247   6.867  0.00  0.00    -0.223 OA
HETATM   23  O   UNK N   1      33.751  17.703   9.039  0.00  0.00    -0.223 OA
HETATM   24  C   UNK N   1      34.752  15.663   7.586  0.00  0.00     0.167 C 
ENDBRANCH   5  21
TORSDOF 3
ENDMDL
MODEL 4
REMARK VINA RESULT:      -6.8      2.855      4.327
REMARK  3 active torsions:
REMARK  status: ('A' for Active; 'I' for Inactive)
REMARK    1  A    between atoms: C_1  and  C_13 
REMARK    2  A    between atoms: C_5  and  S_9 
REMARK    3  A    between atoms: C_17  and  S_21 
ROOT
HETATM    1  C   UNK N   1      28.176  17.634   6.008  0.00  0.00    -0.001 A 
HETATM    2  C   UNK N   1      27.311  16.575   5.575  0.00  0.00     0.046 A 
HETATM    3 Cl   UNK N   1      27.731  14.863   5.577  0.00  0.00    -0.083 Cl
HETATM    4  C   UNK N   1      26.035  16.877   5.083  0.00  0.00     0.049 A 
HETATM    5  C   UNK N   1      25.579  18.191   5.004  0.00  0.00     0.082 A 
HETATM    6  C   UNK N   1      26.410  19.231   5.431  0.00  0.00     0.056 A 
HETATM    7 Cl   UNK N   1      25.914  20.913   5.346  0.00  0.00    -0.083 Cl
HETATM    8  C   UNK N   1      27.679  18.941   5.920  0.00  0.00     0.039 A 
ENDROOT
BRANCH   1   9
HETATM    9  C   UNK N   1      29.598  17.426   6.500  0.00  0.00    -0.001 A 
HETATM   10  C   UNK N   1      29.975  17.460   7.884  0.00  0.00     0.046 A 
HETATM   11 Cl   UNK N   1      28.863  17.669   9.236  0.00  0.00    -0.083 Cl
HETATM   12  C   UNK N   1      31.321  17.348   8.239  0.00  0.00     0.049 A 
HETATM   13  C   UNK N   1      32.316  17.185   7.282  0.00  0.00     0.082 A 
HETATM   14  C   UNK N   1      31.959  17.099   5.929  0.00  0.00     0.056 A 
HETATM   15 Cl   UNK N   1      33.147  16.857   4.658  0.00  0.00    -0.083 Cl
HETATM   16  C   UNK N   1      30.622  17.227   5.563  0.00  0.00     0.039 A 
BRANCH  13  17
HETATM   17  S   UNK N   1      34.021  17.128   7.844  0.00  0.00     0.173 S 
HETATM   18  O   UNK N   1      34.760  18.359   7.300  0.00  0.00    -0.223 OA
HETATM   19  O   UNK N   1      34.031  17.463   9.343  0.00  0.00    -0.223 OA
HETATM   20  C   UNK N   1      35.094  15.680   7.643  0.00  0.00     0.167 C 
ENDBRANCH  13  17
ENDBRANCH   1   9
BRANCH   5  21
HETATM   21  S   UNK N   1      23.950  18.520   4.323  0.00  0.00     0.173 S 
HETATM   22  O   UNK N   1      23.504  17.239   3.603  0.00  0.00    -0.223 OA
HETATM   23  O   UNK N   1      22.949  18.492   5.488  0.00  0.00    -0.223 OA
HETATM   24  C   UNK N   1      23.493  19.924   3.267  0.00  0.00     0.167 C 
ENDBRANCH   5  21
TORSDOF 3
ENDMDL
MODEL 5
REMARK VINA RESULT:      -6.8      2.768      3.563
REMARK  3 active torsions:
REMARK  status: ('A' for Active; 'I' for Inactive)
REMARK    1  A    between atoms: C_1  and  C_13 
REMARK    2  A    between atoms: C_5  and  S_9 
REMARK    3  A    between atoms: C_17  and  S_21 
ROOT
HETATM    1  C   UNK N   1      27.766  17.362   5.785  0.00  0.00    -0.001 A 
HETATM    2  C   UNK N   1      27.248  18.509   5.097  0.00  0.00     0.046 A 
HETATM    3 Cl   UNK N   1      28.183  19.946   4.686  0.00  0.00    -0.083 Cl
HETATM    4  C   UNK N   1      25.900  18.546   4.725  0.00  0.00     0.049 A 
HETATM    5  C   UNK N   1      25.038  17.488   5.007  0.00  0.00     0.082 A 
HETATM    6  C   UNK N   1      25.533  16.361   5.670  0.00  0.00     0.056 A 
HETATM    7 Cl   UNK N   1      24.507  14.995   6.075  0.00  0.00    -0.083 Cl
HETATM    8  C   UNK N   1      26.871  16.316   6.044  0.00  0.00     0.039 A 
ENDROOT
BRANCH   1   9
HETATM    9  C   UNK N   1      29.194  17.242   6.289  0.00  0.00    -0.001 A 
HETATM   10  C   UNK N   1      29.601  17.583   7.621  0.00  0.00     0.046 A 
HETATM   11 Cl   UNK N   1      28.521  18.118   8.908  0.00  0.00    -0.083 Cl
HETATM   12  C   UNK N   1      30.952  17.526   7.971  0.00  0.00     0.049 A 
HETATM   13  C   UNK N   1      31.924  17.128   7.060  0.00  0.00     0.082 A 
HETATM   14  C   UNK N   1      31.537  16.743   5.768  0.00  0.00     0.056 A 
HETATM   15 Cl   UNK N   1      32.695  16.192   4.567  0.00  0.00    -0.083 Cl
HETATM   16  C   UNK N   1      30.195  16.812   5.405  0.00  0.00     0.039 A 
BRANCH  13  17
HETATM   17  S   UNK N   1      33.639  17.165   7.592  0.00  0.00     0.173 S 
HETATM   18  O   UNK N   1      34.398  18.187   6.735  0.00  0.00    -0.223 OA
HETATM   19  O   UNK N   1      33.692  17.877   8.952  0.00  0.00    -0.223 OA
HETATM   20  C   UNK N   1      34.668  15.681   7.760  0.00  0.00     0.167 C 
ENDBRANCH  13  17
ENDBRANCH   1   9
BRANCH   5  21
HETATM   21  S   UNK N   1      23.308  17.611   4.543  0.00  0.00     0.173 S 
HETATM   22  O   UNK N   1      22.515  17.816   5.843  0.00  0.00    -0.223 OA
HETATM   23  O   UNK N   1      23.095  18.999   3.920  0.00  0.00    -0.223 OA
HETATM   24  C   UNK N   1      22.384  16.427   3.525  0.00  0.00     0.167 C 
ENDBRANCH   5  21
TORSDOF 3
ENDMDL
MODEL 6
REMARK VINA RESULT:      -6.7      1.809      8.244
REMARK  3 active torsions:
REMARK  status: ('A' for Active; 'I' for Inactive)
REMARK    1  A    between atoms: C_1  and  C_13 
REMARK    2  A    between atoms: C_5  and  S_9 
REMARK    3  A    between atoms: C_17  and  S_21 
ROOT
HETATM    1  C   UNK N   1      27.640  17.839   5.502  0.00  0.00    -0.001 A 
HETATM    2  C   UNK N   1      28.638  17.132   4.753  0.00  0.00     0.046 A 
HETATM    3 Cl   UNK N   1      28.426  16.521   3.114  0.00  0.00    -0.083 Cl
HETATM    4  C   UNK N   1      29.883  16.864   5.335  0.00  0.00     0.049 A 
HETATM    5  C   UNK N   1      30.181  17.269   6.635  0.00  0.00     0.082 A 
HETATM    6  C   UNK N   1      29.217  17.965   7.372  0.00  0.00     0.056 A 
HETATM    7 Cl   UNK N   1      29.511  18.494   9.020  0.00  0.00    -0.083 Cl
HETATM    8  C   UNK N   1      27.979  18.236   6.802  0.00  0.00     0.039 A 
ENDROOT
BRANCH   1   9
HETATM    9  C   UNK N   1      26.238  18.129   4.993  0.00  0.00    -0.001 A 
HETATM   10  C   UNK N   1      25.903  19.266   4.186  0.00  0.00     0.046 A 
HETATM   11 Cl   UNK N   1      27.053  20.463   3.590  0.00  0.00    -0.083 Cl
HETATM   12  C   UNK N   1      24.572  19.503   3.837  0.00  0.00     0.049 A 
HETATM   13  C   UNK N   1      23.551  18.649   4.239  0.00  0.00     0.082 A 
HETATM   14  C   UNK N   1      23.867  17.505   4.986  0.00  0.00     0.056 A 
HETATM   15 Cl   UNK N   1      22.645  16.355   5.505  0.00  0.00    -0.083 Cl
HETATM   16  C   UNK N   1      25.190  17.270   5.353  0.00  0.00     0.039 A 
BRANCH  13  17
HETATM   17  S   UNK N   1      21.866  19.089   3.801  0.00  0.00     0.173 S 
HETATM   18  O   UNK N   1      21.104  19.459   5.081  0.00  0.00    -0.223 OA
HETATM   19  O   UNK N   1      21.904  20.464   3.117  0.00  0.00    -0.223 OA
HETATM   20  C   UNK N   1      20.793  18.047   2.776  0.00  0.00     0.167 C 
ENDBRANCH  13  17
ENDBRANCH   1   9
BRANCH   5  21
HETATM   21  S   UNK N   1      31.778  16.858   7.343  0.00  0.00     0.173 S 
HETATM   22  O   UNK N   1      31.525  15.783   8.411  0.00  0.00    -0.223 OA
HETATM   23  O   UNK N   1      32.529  15.994   6.318  0.00  0.00    -0.223 OA
HETATM   24  C   UNK N   1      32.981  18.031   8.027  0.00  0.00     0.167 C 
ENDBRANCH   5  21
TORSDOF 3
ENDMDL
MODEL 7
REMARK VINA RESULT:      -6.7     12.075     16.725
REMARK  3 active torsions:
REMARK  status: ('A' for Active; 'I' for Inactive)
REMARK    1  A    between atoms: C_1  and  C_13 
REMARK    2  A    between atoms: C_5  and  S_9 
REMARK    3  A    between atoms: C_17  and  S_21 
ROOT
HETATM    1  C   UNK N   1      35.988  12.915  14.799  0.00  0.00    -0.001 A 
HETATM    2  C   UNK N   1      36.531  14.229  14.605  0.00  0.00     0.046 A 
HETATM    3 Cl   UNK N   1      37.308  15.194  15.857  0.00  0.00    -0.083 Cl
HETATM    4  C   UNK N   1      36.439  14.840  13.349  0.00  0.00     0.049 A 
HETATM    5  C   UNK N   1      35.828  14.201  12.272  0.00  0.00     0.082 A 
HETATM    6  C   UNK N   1      35.303  12.917  12.447  0.00  0.00     0.056 A 
HETATM    7 Cl   UNK N   1      34.505  12.053  11.143  0.00  0.00    -0.083 Cl
HETATM    8  C   UNK N   1      35.390  12.302  13.690  0.00  0.00     0.039 A 
ENDROOT
BRANCH   1   9
HETATM    9  C   UNK N   1      35.979  12.184  16.130  0.00  0.00    -0.001 A 
HETATM   10  C   UNK N   1      36.441  10.837  16.303  0.00  0.00     0.046 A 
HETATM   11 Cl   UNK N   1      37.160   9.839  15.040  0.00  0.00    -0.083 Cl
HETATM   12  C   UNK N   1      36.313  10.213  17.545  0.00  0.00     0.049 A 
HETATM   13  C   UNK N   1      35.759  10.872  18.638  0.00  0.00     0.082 A 
HETATM   14  C   UNK N   1      35.348  12.205  18.499  0.00  0.00     0.056 A 
HETATM   15 Cl   UNK N   1      34.672  13.123  19.835  0.00  0.00    -0.083 Cl
HETATM   16  C   UNK N   1      35.457  12.830  17.260  0.00  0.00     0.039 A 
BRANCH  13  17
HETATM   17  S   UNK N   1      35.571   9.950  20.167  0.00  0.00     0.173 S 
HETATM   18  O   UNK N   1      36.088   8.521  19.948  0.00  0.00    -0.223 OA
HETATM   19  O   UNK N   1      36.631  10.460  21.155  0.00  0.00    -0.223 OA
HETATM   20  C   UNK N   1      34.016   9.860  21.098  0.00  0.00     0.167 C 
ENDBRANCH  13  17
ENDBRANCH   1   9
BRANCH   5  21
HETATM   21  S   UNK N   1      35.700  15.053  10.697  0.00  0.00     0.173 S 
HETATM   22  O   UNK N   1      36.468  16.375  10.845  0.00  0.00    -0.223 OA
HETATM   23  O   UNK N   1      36.644  14.346   9.711  0.00  0.00    -0.223 OA
HETATM   24  C   UNK N   1      34.168  15.413   9.795  0.00  0.00     0.167 C 
ENDBRANCH   5  21
TORSDOF 3
ENDMDL
MODEL 8
REMARK VINA RESULT:      -6.6      1.665      2.470
REMARK  3 active torsions:
REMARK  status: ('A' for Active; 'I' for Inactive)
REMARK    1  A    between atoms: C_1  and  C_13 
REMARK    2  A    between atoms: C_5  and  S_9 
REMARK    3  A    between atoms: C_17  and  S_21 
ROOT
HETATM    1  C   UNK N   1      26.220  18.156   4.968  0.00  0.00    -0.001 A 
HETATM    2  C   UNK N   1      25.902  19.306   4.173  0.00  0.00     0.046 A 
HETATM    3 Cl   UNK N   1      27.073  20.494   3.603  0.00  0.00    -0.083 Cl
HETATM    4  C   UNK N   1      24.572  19.559   3.816  0.00  0.00     0.049 A 
HETATM    5  C   UNK N   1      23.539  18.714   4.217  0.00  0.00     0.082 A 
HETATM    6  C   UNK N   1      23.837  17.586   4.987  0.00  0.00     0.056 A 
HETATM    7 Cl   UNK N   1      22.589  16.484   5.544  0.00  0.00    -0.083 Cl
HETATM    8  C   UNK N   1      25.155  17.327   5.345  0.00  0.00     0.039 A 
ENDROOT
BRANCH   1   9
HETATM    9  C   UNK N   1      27.616  17.820   5.462  0.00  0.00    -0.001 A 
HETATM   10  C   UNK N   1      28.553  17.024   4.723  0.00  0.00     0.046 A 
HETATM   11 Cl   UNK N   1      28.281  16.373   3.108  0.00  0.00    -0.083 Cl
HETATM   12  C   UNK N   1      29.783  16.690   5.294  0.00  0.00     0.049 A 
HETATM   13  C   UNK N   1      30.138  17.126   6.566  0.00  0.00     0.082 A 
HETATM   14  C   UNK N   1      29.255  17.946   7.282  0.00  0.00     0.056 A 
HETATM   15 Cl   UNK N   1      29.638  18.570   8.878  0.00  0.00    -0.083 Cl
HETATM   16  C   UNK N   1      28.019  18.270   6.728  0.00  0.00     0.039 A 
BRANCH  13  17
HETATM   17  S   UNK N   1      31.711  16.574   7.234  0.00  0.00     0.173 S 
HETATM   18  O   UNK N   1      32.452  15.775   6.152  0.00  0.00    -0.223 OA
HETATM   19  O   UNK N   1      32.635  17.798   7.328  0.00  0.00    -0.223 OA
HETATM   20  C   UNK N   1      31.877  15.694   8.811  0.00  0.00     0.167 C 
ENDBRANCH  13  17
ENDBRANCH   1   9
BRANCH   5  21
HETATM   21  S   UNK N   1      21.847  19.115   3.766  0.00  0.00     0.173 S 
HETATM   22  O   UNK N   1      21.122  19.499   5.065  0.00  0.00    -0.223 OA
HETATM   23  O   UNK N   1      21.864  20.496   3.092  0.00  0.00    -0.223 OA
HETATM   24  C   UNK N   1      20.719  18.070   2.803  0.00  0.00     0.167 C 
ENDBRANCH   5  21
TORSDOF 3
ENDMDL
MODEL 9
REMARK VINA RESULT:      -6.6     11.915     16.473
REMARK  3 active torsions:
REMARK  status: ('A' for Active; 'I' for Inactive)
REMARK    1  A    between atoms: C_1  and  C_13 
REMARK    2  A    between atoms: C_5  and  S_9 
REMARK    3  A    between atoms: C_17  and  S_21 
ROOT
HETATM    1  C   UNK N   1      35.980  12.689  14.394  0.00  0.00    -0.001 A 
HETATM    2  C   UNK N   1      36.491  14.028  14.327  0.00  0.00     0.046 A 
HETATM    3 Cl   UNK N   1      37.235  14.893  15.670  0.00  0.00    -0.083 Cl
HETATM    4  C   UNK N   1      36.392  14.751  13.132  0.00  0.00     0.049 A 
HETATM    5  C   UNK N   1      35.805  14.198  11.995  0.00  0.00     0.082 A 
HETATM    6  C   UNK N   1      35.311  12.891  12.046  0.00  0.00     0.056 A 
HETATM    7 Cl   UNK N   1      34.544  12.132  10.661  0.00  0.00    -0.083 Cl
HETATM    8  C   UNK N   1      35.405  12.166  13.228  0.00  0.00     0.039 A 
ENDROOT
BRANCH   1   9
HETATM    9  C   UNK N   1      35.980  11.839  15.652  0.00  0.00    -0.001 A 
HETATM   10  C   UNK N   1      35.317  12.214  16.868  0.00  0.00     0.046 A 
HETATM   11 Cl   UNK N   1      34.340  13.665  17.086  0.00  0.00    -0.083 Cl
HETATM   12  C   UNK N   1      35.445  11.413  18.004  0.00  0.00     0.049 A 
HETATM   13  C   UNK N   1      36.189  10.239  17.988  0.00  0.00     0.082 A 
HETATM   14  C   UNK N   1      36.802   9.831  16.794  0.00  0.00     0.056 A 
HETATM   15 Cl   UNK N   1      37.731   8.345  16.676  0.00  0.00    -0.083 Cl
HETATM   16  C   UNK N   1      36.695  10.632  15.661  0.00  0.00     0.039 A 
BRANCH  13  17
HETATM   17  S   UNK N   1      36.350   9.325  19.525  0.00  0.00     0.173 S 
HETATM   18  O   UNK N   1      37.791   9.469  20.035  0.00  0.00    -0.223 OA
HETATM   19  O   UNK N   1      35.610  10.111  20.618  0.00  0.00    -0.223 OA
HETATM   20  C   UNK N   1      35.844   7.594  19.720  0.00  0.00     0.167 C 
ENDBRANCH  13  17
ENDBRANCH   1   9
BRANCH   5  21
HETATM   21  S   UNK N   1      35.667  15.189  10.503  0.00  0.00     0.173 S 
HETATM   22  O   UNK N   1      36.442  16.489  10.763  0.00  0.00    -0.223 OA
HETATM   23  O   UNK N   1      36.599  14.569   9.450  0.00  0.00    -0.223 OA
HETATM   24  C   UNK N   1      34.128  15.633   9.652  0.00  0.00     0.167 C 
ENDBRANCH   5  21
TORSDOF 3
ENDMDL
