REMARK  3 active torsions:
REMARK  status: ('A' for Active; 'I' for Inactive)
REMARK    1  A    between atoms: C_1  and  C_13 
REMARK    2  A    between atoms: C_5  and  S_9 
REMARK    3  A    between atoms: C_17  and  S_21 
ROOT
HETATM    1  C   UNK N   1       0.339  -0.599   0.220  0.00  0.00    -0.001 A 
HETATM    2  C   UNK N   1       1.586  -1.307   0.260  0.00  0.00     0.046 A 
HETATM    3 Cl   UNK N   1       3.175  -0.549   0.342  0.00  0.00    -0.083 Cl
HETATM    4  C   UNK N   1       1.593  -2.706   0.209  0.00  0.00     0.049 A 
HETATM    5  C   UNK N   1       0.409  -3.436   0.120  0.00  0.00     0.082 A 
HETATM    6  C   UNK N   1      -0.813  -2.757   0.088  0.00  0.00     0.056 A 
HETATM    7 Cl   UNK N   1      -2.345  -3.605  -0.040  0.00  0.00    -0.083 Cl
HETATM    8  C   UNK N   1      -0.829  -1.368   0.138  0.00  0.00     0.039 A 
ENDROOT
BRANCH   1   9
HETATM    9  C   UNK N   1       0.218   0.915   0.208  0.00  0.00    -0.001 A 
HETATM   10  C   UNK N   1      -1.031   1.614   0.116  0.00  0.00     0.046 A 
HETATM   11 Cl   UNK N   1      -2.621   0.853   0.079  0.00  0.00    -0.083 Cl
HETATM   12  C   UNK N   1      -1.042   3.007   0.021  0.00  0.00     0.049 A 
HETATM   13  C   UNK N   1       0.135   3.747   0.031  0.00  0.00     0.082 A 
HETATM   14  C   UNK N   1       1.362   3.083   0.171  0.00  0.00     0.056 A 
HETATM   15 Cl   UNK N   1       2.893   3.942   0.229  0.00  0.00    -0.083 Cl
HETATM   16  C   UNK N   1       1.384   1.693   0.249  0.00  0.00     0.039 A 
BRANCH  13  17
HETATM   17  S   UNK N   1       0.010   5.527  -0.174  0.00  0.00     0.173 S 
HETATM   18  O   UNK N   1       0.448   6.205   1.132  0.00  0.00    -0.223 OA
HETATM   19  O   UNK N   1       1.156   5.974  -1.094  0.00  0.00    -0.223 OA
HETATM   20  C   UNK N   1      -1.480   6.363  -0.782  0.00  0.00     0.167 C 
ENDBRANCH  13  17
ENDBRANCH   1   9
BRANCH   5  21
HETATM   21  S   UNK N   1       0.483  -5.227   0.013  0.00  0.00     0.173 S 
HETATM   22  O   UNK N   1       0.567  -5.578  -1.480  0.00  0.00    -0.223 OA
HETATM   23  O   UNK N   1       1.898  -5.656   0.432  0.00  0.00    -0.223 OA
HETATM   24  C   UNK N   1      -0.673  -6.395   0.782  0.00  0.00     0.167 C 
ENDBRANCH   5  21
TORSDOF 3
