REMARK  5 active torsions:
REMARK  status: ('A' for Active; 'I' for Inactive)
REMARK    1  A    between atoms: C_2  and  N_1 
REMARK    2  A    between atoms: C_2  and  C_3 
REMARK    3  A    between atoms: C_2  and  C_4 
REMARK    4  A    between atoms: C_3  and  C_12 
REMARK    5  A    between atoms: C_4  and  C_7 
ROOT
HETATM    1  C   UNK N   1      -1.388  -0.290   0.058  0.00  0.00     0.149 C 
ENDROOT
BRANCH   1   2
HETATM    2  N   UNK N   1      -1.097   0.211  -1.278  0.00  0.00    -0.420 N 
HETATM    3  H   UNK N   1      -0.692   0.210  -2.214  0.00  0.00     0.150 HD
HETATM    4  H   UNK N   1      -1.605   1.096  -1.278  0.00  0.00     0.150 HD
ENDBRANCH   1   2
BRANCH   1   5
HETATM    5  C   UNK N   1      -2.482  -1.327  -0.049  0.00  0.00     0.162 C 
HETATM    6  O   UNK N   1      -2.299  -2.470   0.346  0.00  0.00    -0.294 OA
BRANCH   5   7
HETATM    7  C   UNK N   1      -3.788  -0.988  -0.697  0.00  0.00     0.195 C 
HETATM    8 Cl   UNK N   1      -4.642   0.293   0.195  0.00  0.00    -0.122 Cl
ENDBRANCH   5   7
ENDBRANCH   1   5
BRANCH   1   9
HETATM    9  C   UNK N   1      -0.123  -0.885   0.701  0.00  0.00     0.070 C 
BRANCH   9  10
HETATM   10  C   UNK N   1       1.146  -0.176   0.342  0.00  0.00    -0.056 A 
HETATM   11  C   UNK N   1       2.155  -0.892  -0.310  0.00  0.00     0.007 A 
HETATM   12  C   UNK N   1       3.339  -0.254  -0.688  0.00  0.00     0.001 A 
HETATM   13  C   UNK N   1       3.514   1.106  -0.421  0.00  0.00     0.000 A 
HETATM   14  C   UNK N   1       2.508   1.826   0.233  0.00  0.00     0.001 A 
HETATM   15  C   UNK N   1       1.324   1.187   0.617  0.00  0.00     0.007 A 
ENDBRANCH   9  10
ENDBRANCH   1   9
TORSDOF 5
