MODEL 1
REMARK VINA RESULT:      -4.9      0.000      0.000
REMARK  5 active torsions:
REMARK  status: ('A' for Active; 'I' for Inactive)
REMARK    1  A    between atoms: C_2  and  N_1 
REMARK    2  A    between atoms: C_2  and  C_3 
REMARK    3  A    between atoms: C_2  and  C_4 
REMARK    4  A    between atoms: C_3  and  C_12 
REMARK    5  A    between atoms: C_4  and  C_7 
ROOT
HETATM    1  C   UNK N   1      33.125  17.340   8.660  0.00  0.00     0.149 C 
ENDROOT
BRANCH   1   2
HETATM    2  N   UNK N   1      33.893  16.658   9.692  0.00  0.00    -0.420 N 
HETATM    3  H   UNK N   1      34.058  16.037  10.484  0.00  0.00     0.150 HD
HETATM    4  H   UNK N   1      34.831  17.019   9.519  0.00  0.00     0.150 HD
ENDBRANCH   1   2
BRANCH   1   5
HETATM    5  C   UNK N   1      34.043  17.627   7.494  0.00  0.00     0.162 C 
HETATM    6  O   UNK N   1      34.815  18.575   7.526  0.00  0.00    -0.294 OA
BRANCH   5   7
HETATM    7  C   UNK N   1      33.978  16.791   6.254  0.00  0.00     0.195 C 
HETATM    8 Cl   UNK N   1      33.102  17.629   4.951  0.00  0.00    -0.122 Cl
ENDBRANCH   5   7
ENDBRANCH   1   5
BRANCH   1   9
HETATM    9  C   UNK N   1      31.925  16.482   8.221  0.00  0.00     0.070 C 
BRANCH   9  10
HETATM   10  C   UNK N   1      30.637  17.236   8.098  0.00  0.00    -0.056 A 
HETATM   11  C   UNK N   1      29.971  17.233   6.868  0.00  0.00     0.007 A 
HETATM   12  C   UNK N   1      28.751  17.900   6.727  0.00  0.00     0.001 A 
HETATM   13  C   UNK N   1      28.190  18.565   7.819  0.00  0.00     0.000 A 
HETATM   14  C   UNK N   1      28.854  18.572   9.051  0.00  0.00     0.001 A 
HETATM   15  C   UNK N   1      30.078  17.910   9.193  0.00  0.00     0.007 A 
ENDBRANCH   9  10
ENDBRANCH   1   9
TORSDOF 5
ENDMDL
MODEL 2
REMARK VINA RESULT:      -4.9      9.250     10.575
REMARK  5 active torsions:
REMARK  status: ('A' for Active; 'I' for Inactive)
REMARK    1  A    between atoms: C_2  and  N_1 
REMARK    2  A    between atoms: C_2  and  C_3 
REMARK    3  A    between atoms: C_2  and  C_4 
REMARK    4  A    between atoms: C_3  and  C_12 
REMARK    5  A    between atoms: C_4  and  C_7 
ROOT
HETATM    1  C   UNK N   1      36.014  13.519  14.580  0.00  0.00     0.149 C 
ENDROOT
BRANCH   1   2
HETATM    2  N   UNK N   1      37.382  13.065  14.781  0.00  0.00    -0.420 N 
HETATM    3  H   UNK N   1      38.384  12.995  14.605  0.00  0.00     0.150 HD
HETATM    4  H   UNK N   1      37.273  12.440  15.581  0.00  0.00     0.150 HD
ENDBRANCH   1   2
BRANCH   1   5
HETATM    5  C   UNK N   1      35.760  13.628  13.095  0.00  0.00     0.162 C 
HETATM    6  O   UNK N   1      34.642  13.885  12.670  0.00  0.00    -0.294 OA
BRANCH   5   7
HETATM    7  C   UNK N   1      36.860  13.361  12.116  0.00  0.00     0.195 C 
HETATM    8 Cl   UNK N   1      36.377  12.142  10.912  0.00  0.00    -0.122 Cl
ENDBRANCH   5   7
ENDBRANCH   1   5
BRANCH   1   9
HETATM    9  C   UNK N   1      35.018  12.551  15.242  0.00  0.00     0.070 C 
BRANCH   9  10
HETATM   10  C   UNK N   1      35.169  12.426  16.727  0.00  0.00    -0.056 A 
HETATM   11  C   UNK N   1      35.052  13.577  17.513  0.00  0.00     0.007 A 
HETATM   12  C   UNK N   1      35.155  13.492  18.904  0.00  0.00     0.001 A 
HETATM   13  C   UNK N   1      35.369  12.253  19.513  0.00  0.00     0.000 A 
HETATM   14  C   UNK N   1      35.489  11.100  18.730  0.00  0.00     0.001 A 
HETATM   15  C   UNK N   1      35.391  11.184  17.337  0.00  0.00     0.007 A 
ENDBRANCH   9  10
ENDBRANCH   1   9
TORSDOF 5
ENDMDL
MODEL 3
REMARK VINA RESULT:      -4.9     15.744     16.873
REMARK  5 active torsions:
REMARK  status: ('A' for Active; 'I' for Inactive)
REMARK    1  A    between atoms: C_2  and  N_1 
REMARK    2  A    between atoms: C_2  and  C_3 
REMARK    3  A    between atoms: C_2  and  C_4 
REMARK    4  A    between atoms: C_3  and  C_12 
REMARK    5  A    between atoms: C_4  and  C_7 
ROOT
HETATM    1  C   UNK N   1      26.469  23.683  -7.023  0.00  0.00     0.149 C 
ENDROOT
BRANCH   1   2
HETATM    2  N   UNK N   1      27.737  22.972  -7.104  0.00  0.00    -0.420 N 
HETATM    3  H   UNK N   1      28.580  22.603  -7.543  0.00  0.00     0.150 HD
HETATM    4  H   UNK N   1      27.850  22.649  -6.143  0.00  0.00     0.150 HD
ENDBRANCH   1   2
BRANCH   1   5
HETATM    5  C   UNK N   1      25.460  22.961  -7.886  0.00  0.00     0.162 C 
HETATM    6  O   UNK N   1      24.697  23.586  -8.609  0.00  0.00    -0.294 OA
BRANCH   5   7
HETATM    7  C   UNK N   1      25.338  21.471  -7.824  0.00  0.00     0.195 C 
HETATM    8 Cl   UNK N   1      24.140  20.968  -6.607  0.00  0.00    -0.122 Cl
ENDBRANCH   5   7
ENDBRANCH   1   5
BRANCH   1   9
HETATM    9  C   UNK N   1      25.988  23.769  -5.564  0.00  0.00     0.070 C 
BRANCH   9  10
HETATM   10  C   UNK N   1      25.833  25.164  -5.044  0.00  0.00    -0.056 A 
HETATM   11  C   UNK N   1      26.424  25.495  -3.820  0.00  0.00     0.007 A 
HETATM   12  C   UNK N   1      26.326  26.796  -3.320  0.00  0.00     0.001 A 
HETATM   13  C   UNK N   1      25.643  27.773  -4.048  0.00  0.00     0.000 A 
HETATM   14  C   UNK N   1      25.049  27.446  -5.272  0.00  0.00     0.001 A 
HETATM   15  C   UNK N   1      25.141  26.142  -5.771  0.00  0.00     0.007 A 
ENDBRANCH   9  10
ENDBRANCH   1   9
TORSDOF 5
ENDMDL
MODEL 4
REMARK VINA RESULT:      -4.8      8.495     10.003
REMARK  5 active torsions:
REMARK  status: ('A' for Active; 'I' for Inactive)
REMARK    1  A    between atoms: C_2  and  N_1 
REMARK    2  A    between atoms: C_2  and  C_3 
REMARK    3  A    between atoms: C_2  and  C_4 
REMARK    4  A    between atoms: C_3  and  C_12 
REMARK    5  A    between atoms: C_4  and  C_7 
ROOT
HETATM    1  C   UNK N   1      36.645  13.165  13.288  0.00  0.00     0.149 C 
ENDROOT
BRANCH   1   2
HETATM    2  N   UNK N   1      37.670  12.519  12.481  0.00  0.00    -0.420 N 
HETATM    3  H   UNK N   1      38.431  11.873  12.269  0.00  0.00     0.150 HD
HETATM    4  H   UNK N   1      37.561  13.002  11.589  0.00  0.00     0.150 HD
ENDBRANCH   1   2
BRANCH   1   5
HETATM    5  C   UNK N   1      35.304  12.934  12.631  0.00  0.00     0.162 C 
HETATM    6  O   UNK N   1      34.520  13.859  12.473  0.00  0.00    -0.294 OA
BRANCH   5   7
HETATM    7  C   UNK N   1      34.888  11.557  12.218  0.00  0.00     0.195 C 
HETATM    8 Cl   UNK N   1      33.925  10.762  13.485  0.00  0.00    -0.122 Cl
ENDBRANCH   5   7
ENDBRANCH   1   5
BRANCH   1   9
HETATM    9  C   UNK N   1      36.659  12.612  14.725  0.00  0.00     0.070 C 
BRANCH   9  10
HETATM   10  C   UNK N   1      36.507  13.654  15.790  0.00  0.00    -0.056 A 
HETATM   11  C   UNK N   1      35.625  13.411  16.847  0.00  0.00     0.007 A 
HETATM   12  C   UNK N   1      35.482  14.347  17.874  0.00  0.00     0.001 A 
HETATM   13  C   UNK N   1      36.229  15.527  17.851  0.00  0.00     0.000 A 
HETATM   14  C   UNK N   1      37.112  15.775  16.794  0.00  0.00     0.001 A 
HETATM   15  C   UNK N   1      37.252  14.841  15.761  0.00  0.00     0.007 A 
ENDBRANCH   9  10
ENDBRANCH   1   9
TORSDOF 5
ENDMDL
MODEL 5
REMARK VINA RESULT:      -4.8      2.654      3.620
REMARK  5 active torsions:
REMARK  status: ('A' for Active; 'I' for Inactive)
REMARK    1  A    between atoms: C_2  and  N_1 
REMARK    2  A    between atoms: C_2  and  C_3 
REMARK    3  A    between atoms: C_2  and  C_4 
REMARK    4  A    between atoms: C_3  and  C_12 
REMARK    5  A    between atoms: C_4  and  C_7 
ROOT
HETATM    1  C   UNK N   1      34.485  17.594   8.409  0.00  0.00     0.149 C 
ENDROOT
BRANCH   1   2
HETATM    2  N   UNK N   1      34.980  18.955   8.566  0.00  0.00    -0.420 N 
HETATM    3  H   UNK N   1      35.639  19.692   8.817  0.00  0.00     0.150 HD
HETATM    4  H   UNK N   1      34.194  19.499   8.209  0.00  0.00     0.150 HD
ENDBRANCH   1   2
BRANCH   1   5
HETATM    5  C   UNK N   1      34.881  16.799   9.632  0.00  0.00     0.162 C 
HETATM    6  O   UNK N   1      35.562  17.306  10.512  0.00  0.00    -0.294 OA
BRANCH   5   7
HETATM    7  C   UNK N   1      34.498  15.357   9.756  0.00  0.00     0.195 C 
HETATM    8 Cl   UNK N   1      34.737  14.488   8.222  0.00  0.00    -0.122 Cl
ENDBRANCH   5   7
ENDBRANCH   1   5
BRANCH   1   9
HETATM    9  C   UNK N   1      32.959  17.591   8.218  0.00  0.00     0.070 C 
BRANCH   9  10
HETATM   10  C   UNK N   1      32.513  17.422   6.798  0.00  0.00    -0.056 A 
HETATM   11  C   UNK N   1      31.154  17.215   6.540  0.00  0.00     0.007 A 
HETATM   12  C   UNK N   1      30.699  17.085   5.226  0.00  0.00     0.001 A 
HETATM   13  C   UNK N   1      31.603  17.170   4.164  0.00  0.00     0.000 A 
HETATM   14  C   UNK N   1      32.963  17.375   4.417  0.00  0.00     0.001 A 
HETATM   15  C   UNK N   1      33.421  17.500   5.734  0.00  0.00     0.007 A 
ENDBRANCH   9  10
ENDBRANCH   1   9
TORSDOF 5
ENDMDL
MODEL 6
REMARK VINA RESULT:      -4.8      8.973     10.342
REMARK  5 active torsions:
REMARK  status: ('A' for Active; 'I' for Inactive)
REMARK    1  A    between atoms: C_2  and  N_1 
REMARK    2  A    between atoms: C_2  and  C_3 
REMARK    3  A    between atoms: C_2  and  C_4 
REMARK    4  A    between atoms: C_3  and  C_12 
REMARK    5  A    between atoms: C_4  and  C_7 
ROOT
HETATM    1  C   UNK N   1      35.759  13.740  14.123  0.00  0.00     0.149 C 
ENDROOT
BRANCH   1   2
HETATM    2  N   UNK N   1      36.798  14.761  14.124  0.00  0.00    -0.420 N 
HETATM    3  H   UNK N   1      37.586  15.299  13.764  0.00  0.00     0.150 HD
HETATM    4  H   UNK N   1      36.645  15.206  15.029  0.00  0.00     0.150 HD
ENDBRANCH   1   2
BRANCH   1   5
HETATM    5  C   UNK N   1      35.341  13.486  12.693  0.00  0.00     0.162 C 
HETATM    6  O   UNK N   1      34.516  14.205  12.147  0.00  0.00    -0.294 OA
BRANCH   5   7
HETATM    7  C   UNK N   1      35.884  12.311  11.942  0.00  0.00     0.195 C 
HETATM    8 Cl   UNK N   1      37.538  12.620  11.361  0.00  0.00    -0.122 Cl
ENDBRANCH   5   7
ENDBRANCH   1   5
BRANCH   1   9
HETATM    9  C   UNK N   1      36.268  12.449  14.789  0.00  0.00     0.070 C 
BRANCH   9  10
HETATM   10  C   UNK N   1      35.892  12.307  16.231  0.00  0.00    -0.056 A 
HETATM   11  C   UNK N   1      36.044  11.060  16.846  0.00  0.00     0.007 A 
HETATM   12  C   UNK N   1      35.733  10.900  18.198  0.00  0.00     0.001 A 
HETATM   13  C   UNK N   1      35.276  11.990  18.943  0.00  0.00     0.000 A 
HETATM   14  C   UNK N   1      35.120  13.239  18.331  0.00  0.00     0.001 A 
HETATM   15  C   UNK N   1      35.426  13.400  16.975  0.00  0.00     0.007 A 
ENDBRANCH   9  10
ENDBRANCH   1   9
TORSDOF 5
ENDMDL
MODEL 7
REMARK VINA RESULT:      -4.7     12.924     13.949
REMARK  5 active torsions:
REMARK  status: ('A' for Active; 'I' for Inactive)
REMARK    1  A    between atoms: C_2  and  N_1 
REMARK    2  A    between atoms: C_2  and  C_3 
REMARK    3  A    between atoms: C_2  and  C_4 
REMARK    4  A    between atoms: C_3  and  C_12 
REMARK    5  A    between atoms: C_4  and  C_7 
ROOT
HETATM    1  C   UNK N   1      29.436  23.745  -3.503  0.00  0.00     0.149 C 
ENDROOT
BRANCH   1   2
HETATM    2  N   UNK N   1      30.119  25.031  -3.491  0.00  0.00    -0.420 N 
HETATM    3  H   UNK N   1      30.219  26.042  -3.578  0.00  0.00     0.150 HD
HETATM    4  H   UNK N   1      31.070  24.754  -3.248  0.00  0.00     0.150 HD
ENDBRANCH   1   2
BRANCH   1   5
HETATM    5  C   UNK N   1      30.221  22.780  -2.645  0.00  0.00     0.162 C 
HETATM    6  O   UNK N   1      30.401  23.006  -1.457  0.00  0.00    -0.294 OA
BRANCH   5   7
HETATM    7  C   UNK N   1      30.844  21.561  -3.250  0.00  0.00     0.195 C 
HETATM    8 Cl   UNK N   1      30.172  21.220  -4.862  0.00  0.00    -0.122 Cl
ENDBRANCH   5   7
ENDBRANCH   1   5
BRANCH   1   9
HETATM    9  C   UNK N   1      27.993  23.893  -2.991  0.00  0.00     0.070 C 
BRANCH   9  10
HETATM   10  C   UNK N   1      27.088  24.662  -3.903  0.00  0.00    -0.056 A 
HETATM   11  C   UNK N   1      26.648  24.053  -5.083  0.00  0.00     0.007 A 
HETATM   12  C   UNK N   1      25.778  24.730  -5.941  0.00  0.00     0.001 A 
HETATM   13  C   UNK N   1      25.338  26.015  -5.617  0.00  0.00     0.000 A 
HETATM   14  C   UNK N   1      25.776  26.629  -4.438  0.00  0.00     0.001 A 
HETATM   15  C   UNK N   1      26.653  25.955  -3.581  0.00  0.00     0.007 A 
ENDBRANCH   9  10
ENDBRANCH   1   9
TORSDOF 5
ENDMDL
MODEL 8
REMARK VINA RESULT:      -4.6     15.454     16.688
REMARK  5 active torsions:
REMARK  status: ('A' for Active; 'I' for Inactive)
REMARK    1  A    between atoms: C_2  and  N_1 
REMARK    2  A    between atoms: C_2  and  C_3 
REMARK    3  A    between atoms: C_2  and  C_4 
REMARK    4  A    between atoms: C_3  and  C_12 
REMARK    5  A    between atoms: C_4  and  C_7 
ROOT
HETATM    1  C   UNK N   1      25.559  24.829  -5.323  0.00  0.00     0.149 C 
ENDROOT
BRANCH   1   2
HETATM    2  N   UNK N   1      25.236  23.599  -6.032  0.00  0.00    -0.420 N 
HETATM    3  H   UNK N   1      24.938  23.016  -6.814  0.00  0.00     0.150 HD
HETATM    4  H   UNK N   1      25.417  22.897  -5.314  0.00  0.00     0.150 HD
ENDBRANCH   1   2
BRANCH   1   5
HETATM    5  C   UNK N   1      26.712  24.551  -4.387  0.00  0.00     0.162 C 
HETATM    6  O   UNK N   1      26.547  24.560  -3.175  0.00  0.00    -0.294 OA
BRANCH   5   7
HETATM    7  C   UNK N   1      28.089  24.322  -4.926  0.00  0.00     0.195 C 
HETATM    8 Cl   UNK N   1      29.223  25.573  -4.365  0.00  0.00    -0.122 Cl
ENDBRANCH   5   7
ENDBRANCH   1   5
BRANCH   1   9
HETATM    9  C   UNK N   1      25.911  25.951  -6.316  0.00  0.00     0.070 C 
BRANCH   9  10
HETATM   10  C   UNK N   1      26.271  27.255  -5.675  0.00  0.00    -0.056 A 
HETATM   11  C   UNK N   1      27.270  28.039  -6.261  0.00  0.00     0.007 A 
HETATM   12  C   UNK N   1      27.610  29.275  -5.707  0.00  0.00     0.001 A 
HETATM   13  C   UNK N   1      26.944  29.736  -4.568  0.00  0.00     0.000 A 
HETATM   14  C   UNK N   1      25.946  28.954  -3.978  0.00  0.00     0.001 A 
HETATM   15  C   UNK N   1      25.608  27.713  -4.528  0.00  0.00     0.007 A 
ENDBRANCH   9  10
ENDBRANCH   1   9
TORSDOF 5
ENDMDL
MODEL 9
REMARK VINA RESULT:      -4.5     15.912     17.200
REMARK  5 active torsions:
REMARK  status: ('A' for Active; 'I' for Inactive)
REMARK    1  A    between atoms: C_2  and  N_1 
REMARK    2  A    between atoms: C_2  and  C_3 
REMARK    3  A    between atoms: C_2  and  C_4 
REMARK    4  A    between atoms: C_3  and  C_12 
REMARK    5  A    between atoms: C_4  and  C_7 
ROOT
HETATM    1  C   UNK N   1      26.591  27.102  -3.826  0.00  0.00     0.149 C 
ENDROOT
BRANCH   1   2
HETATM    2  N   UNK N   1      25.945  27.492  -2.580  0.00  0.00    -0.420 N 
HETATM    3  H   UNK N   1      25.204  27.538  -1.881  0.00  0.00     0.150 HD
HETATM    4  H   UNK N   1      26.670  28.063  -2.146  0.00  0.00     0.150 HD
ENDBRANCH   1   2
BRANCH   1   5
HETATM    5  C   UNK N   1      26.982  25.646  -3.725  0.00  0.00     0.162 C 
HETATM    6  O   UNK N   1      26.179  24.810  -3.332  0.00  0.00    -0.294 OA
BRANCH   5   7
HETATM    7  C   UNK N   1      28.377  25.211  -4.046  0.00  0.00     0.195 C 
HETATM    8 Cl   UNK N   1      28.454  24.385  -5.621  0.00  0.00    -0.122 Cl
ENDBRANCH   5   7
ENDBRANCH   1   5
BRANCH   1   9
HETATM    9  C   UNK N   1      25.652  27.341  -5.021  0.00  0.00     0.070 C 
BRANCH   9  10
HETATM   10  C   UNK N   1      26.313  27.227  -6.360  0.00  0.00    -0.056 A 
HETATM   11  C   UNK N   1      27.438  28.014  -6.624  0.00  0.00     0.007 A 
HETATM   12  C   UNK N   1      28.098  27.909  -7.851  0.00  0.00     0.001 A 
HETATM   13  C   UNK N   1      27.638  27.010  -8.815  0.00  0.00     0.000 A 
HETATM   14  C   UNK N   1      26.511  26.222  -8.557  0.00  0.00     0.001 A 
HETATM   15  C   UNK N   1      25.846  26.329  -7.331  0.00  0.00     0.007 A 
ENDBRANCH   9  10
ENDBRANCH   1   9
TORSDOF 5
ENDMDL
