MODEL 1
REMARK VINA RESULT:      -5.1      0.000      0.000
REMARK  20 active torsions:
REMARK  status: ('A' for Active; 'I' for Inactive)
REMARK    1  A    between atoms: C_2  and  O_9 
REMARK    2  A    between atoms: C_3  and  C_2 
REMARK    3  A    between atoms: C_4  and  C_3 
REMARK    4  A    between atoms: C_4  and  C_5 
REMARK    5  A    between atoms: C_6  and  C_5 
REMARK    6  A    between atoms: C_6  and  C_7 
REMARK    7  A    between atoms: O_9  and  C_10 
REMARK    8  A    between atoms: C_11  and  C_10 
REMARK    9  A    between atoms: C_11  and  C_12 
REMARK   10  A    between atoms: C_11  and  O_18 
REMARK   11  A    between atoms: C_12  and  O_13 
REMARK   12  A    between atoms: O_13  and  P_14 
REMARK   13  A    between atoms: P_14  and  O_17 
REMARK   14  A    between atoms: P_14  and  O_15 
REMARK   15  A    between atoms: C_19  and  O_18 
REMARK   16  A    between atoms: C_21  and  C_19 
REMARK   17  A    between atoms: C_22  and  C_21 
REMARK   18  A    between atoms: C_23  and  C_22 
REMARK   19  A    between atoms: C_24  and  C_23 
REMARK   20  A    between atoms: C_25  and  C_24 
ROOT
HETATM    1  C   UNK N   1      30.767  17.157   7.305  0.00  0.00     0.180 C 
ENDROOT
BRANCH   1   2
HETATM    2  C   UNK N   1      31.134  16.112   6.259  0.00  0.00     0.213 C 
BRANCH   2   3
HETATM    3  O   UNK N   1      31.579  16.726   5.110  0.00  0.00    -0.319 OA
BRANCH   3   4
HETATM    4  C   UNK N   1      31.071  16.391   3.900  0.00  0.00     0.258 C 
HETATM    5  O   UNK N   1      31.609  16.808   2.885  0.00  0.00    -0.265 OA
BRANCH   4   6
HETATM    6  C   UNK N   1      29.868  15.497   3.787  0.00  0.00     0.111 C 
BRANCH   6   7
HETATM    7  C   UNK N   1      28.774  16.194   2.999  0.00  0.00     0.010 C 
BRANCH   7   8
HETATM    8  C   UNK N   1      27.728  16.777   3.931  0.00  0.00     0.000 C 
BRANCH   8   9
HETATM    9  C   UNK N   1      27.573  15.903   5.166  0.00  0.00    -0.000 C 
BRANCH   9  10
HETATM   10  C   UNK N   1      26.201  16.090   5.777  0.00  0.00    -0.005 C 
HETATM   11  C   UNK N   1      25.446  17.160   5.011  0.00  0.00     0.005 C 
ENDBRANCH   9  10
ENDBRANCH   8   9
ENDBRANCH   7   8
ENDBRANCH   6   7
ENDBRANCH   4   6
ENDBRANCH   3   4
ENDBRANCH   2   3
ENDBRANCH   1   2
BRANCH   1  12
HETATM   12  C   UNK N   1      31.834  17.172   8.402  0.00  0.00     0.215 C 
BRANCH  12  13
HETATM   13  O   UNK N   1      32.500  18.398   8.473  0.00  0.00    -0.294 OA
BRANCH  13  14
HETATM   14  P   UNK N   1      34.121  18.018   7.979  0.00  0.00     0.390 P 
HETATM   15  O   UNK N   1      34.501  16.676   8.658  0.00  0.00    -0.632 OA
BRANCH  14  16
HETATM   16  O   UNK N   1      35.255  19.207   8.538  0.00  0.00    -0.307 OA
HETATM   17  H   UNK N   1      35.367  20.114   8.863  0.00  0.00     0.222 HD
ENDBRANCH  14  16
BRANCH  14  18
HETATM   18  O   UNK N   1      34.237  17.766   6.264  0.00  0.00    -0.307 OA
HETATM   19  H   UNK N   1      34.570  16.926   5.910  0.00  0.00     0.222 HD
ENDBRANCH  14  18
ENDBRANCH  13  14
ENDBRANCH  12  13
ENDBRANCH   1  12
BRANCH   1  20
HETATM   20  O   UNK N   1      29.455  16.943   7.717  0.00  0.00    -0.312 OA
BRANCH  20  21
HETATM   21  C   UNK N   1      28.702  17.646   8.608  0.00  0.00     0.259 C 
HETATM   22  O   UNK N   1      28.233  17.123   9.608  0.00  0.00    -0.265 OA
BRANCH  21  23
HETATM   23  C   UNK N   1      28.469  19.097   8.361  0.00  0.00     0.111 C 
BRANCH  23  24
HETATM   24  C   UNK N   1      27.879  19.294   6.975  0.00  0.00     0.010 C 
BRANCH  24  25
HETATM   25  C   UNK N   1      26.981  20.517   6.929  0.00  0.00     0.000 C 
BRANCH  25  26
HETATM   26  C   UNK N   1      27.117  21.226   5.590  0.00  0.00    -0.000 C 
BRANCH  26  27
HETATM   27  C   UNK N   1      27.450  20.229   4.498  0.00  0.00    -0.005 C 
HETATM   28  C   UNK N   1      26.476  20.383   3.345  0.00  0.00     0.005 C 
ENDBRANCH  26  27
ENDBRANCH  25  26
ENDBRANCH  24  25
ENDBRANCH  23  24
ENDBRANCH  21  23
ENDBRANCH  20  21
ENDBRANCH   1  20
TORSDOF 20
ENDMDL
MODEL 2
REMARK VINA RESULT:      -5.0      7.114      9.896
REMARK  20 active torsions:
REMARK  status: ('A' for Active; 'I' for Inactive)
REMARK    1  A    between atoms: C_2  and  O_9 
REMARK    2  A    between atoms: C_3  and  C_2 
REMARK    3  A    between atoms: C_4  and  C_3 
REMARK    4  A    between atoms: C_4  and  C_5 
REMARK    5  A    between atoms: C_6  and  C_5 
REMARK    6  A    between atoms: C_6  and  C_7 
REMARK    7  A    between atoms: O_9  and  C_10 
REMARK    8  A    between atoms: C_11  and  C_10 
REMARK    9  A    between atoms: C_11  and  C_12 
REMARK   10  A    between atoms: C_11  and  O_18 
REMARK   11  A    between atoms: C_12  and  O_13 
REMARK   12  A    between atoms: O_13  and  P_14 
REMARK   13  A    between atoms: P_14  and  O_17 
REMARK   14  A    between atoms: P_14  and  O_15 
REMARK   15  A    between atoms: C_19  and  O_18 
REMARK   16  A    between atoms: C_21  and  C_19 
REMARK   17  A    between atoms: C_22  and  C_21 
REMARK   18  A    between atoms: C_23  and  C_22 
REMARK   19  A    between atoms: C_24  and  C_23 
REMARK   20  A    between atoms: C_25  and  C_24 
ROOT
HETATM    1  C   UNK N   1      21.851  18.186   5.074  0.00  0.00     0.180 C 
ENDROOT
BRANCH   1   2
HETATM    2  C   UNK N   1      21.239  17.782   6.409  0.00  0.00     0.213 C 
BRANCH   2   3
HETATM    3  O   UNK N   1      20.694  16.520   6.320  0.00  0.00    -0.319 OA
BRANCH   3   4
HETATM    4  C   UNK N   1      20.119  15.933   7.397  0.00  0.00     0.258 C 
HETATM    5  O   UNK N   1      18.932  16.116   7.619  0.00  0.00    -0.265 OA
BRANCH   4   6
HETATM    6  C   UNK N   1      20.916  15.045   8.310  0.00  0.00     0.111 C 
BRANCH   6   7
HETATM    7  C   UNK N   1      20.067  14.620   9.494  0.00  0.00     0.010 C 
BRANCH   7   8
HETATM    8  C   UNK N   1      20.657  13.395  10.168  0.00  0.00     0.000 C 
BRANCH   8   9
HETATM    9  C   UNK N   1      22.171  13.394  10.031  0.00  0.00    -0.000 C 
BRANCH   9  10
HETATM   10  C   UNK N   1      22.727  12.015  10.314  0.00  0.00    -0.005 C 
HETATM   11  C   UNK N   1      23.109  11.914  11.779  0.00  0.00     0.005 C 
ENDBRANCH   9  10
ENDBRANCH   8   9
ENDBRANCH   7   8
ENDBRANCH   6   7
ENDBRANCH   4   6
ENDBRANCH   3   4
ENDBRANCH   2   3
ENDBRANCH   1   2
BRANCH   1  12
HETATM   12  C   UNK N   1      20.732  18.441   4.061  0.00  0.00     0.215 C 
BRANCH  12  13
HETATM   13  O   UNK N   1      21.227  18.681   2.777  0.00  0.00    -0.294 OA
BRANCH  13  14
HETATM   14  P   UNK N   1      21.007  20.391   2.562  0.00  0.00     0.390 P 
HETATM   15  O   UNK N   1      22.413  21.043   2.633  0.00  0.00    -0.632 OA
BRANCH  14  16
HETATM   16  O   UNK N   1      20.065  21.081   3.846  0.00  0.00    -0.307 OA
HETATM   17  H   UNK N   1      19.967  21.170   4.807  0.00  0.00     0.222 HD
ENDBRANCH  14  16
BRANCH  14  18
HETATM   18  O   UNK N   1      20.352  20.772   0.999  0.00  0.00    -0.307 OA
HETATM   19  H   UNK N   1      19.419  20.598   0.799  0.00  0.00     0.222 HD
ENDBRANCH  14  18
ENDBRANCH  13  14
ENDBRANCH  12  13
ENDBRANCH   1  12
BRANCH   1  20
HETATM   20  O   UNK N   1      22.813  17.248   4.714  0.00  0.00    -0.312 OA
BRANCH  20  21
HETATM   21  C   UNK N   1      23.998  17.428   4.069  0.00  0.00     0.259 C 
HETATM   22  O   UNK N   1      24.537  16.524   3.447  0.00  0.00    -0.265 OA
BRANCH  21  23
HETATM   23  C   UNK N   1      24.639  18.773   4.107  0.00  0.00     0.111 C 
BRANCH  23  24
HETATM   24  C   UNK N   1      26.149  18.625   4.021  0.00  0.00     0.010 C 
BRANCH  24  25
HETATM   25  C   UNK N   1      26.824  19.975   3.862  0.00  0.00     0.000 C 
BRANCH  25  26
HETATM   26  C   UNK N   1      28.052  20.064   4.755  0.00  0.00    -0.000 C 
BRANCH  26  27
HETATM   27  C   UNK N   1      27.646  20.396   6.176  0.00  0.00    -0.005 C 
HETATM   28  C   UNK N   1      26.606  21.501   6.172  0.00  0.00     0.005 C 
ENDBRANCH  26  27
ENDBRANCH  25  26
ENDBRANCH  24  25
ENDBRANCH  23  24
ENDBRANCH  21  23
ENDBRANCH  20  21
ENDBRANCH   1  20
TORSDOF 20
ENDMDL
MODEL 3
REMARK VINA RESULT:      -4.9      3.740      5.940
REMARK  20 active torsions:
REMARK  status: ('A' for Active; 'I' for Inactive)
REMARK    1  A    between atoms: C_2  and  O_9 
REMARK    2  A    between atoms: C_3  and  C_2 
REMARK    3  A    between atoms: C_4  and  C_3 
REMARK    4  A    between atoms: C_4  and  C_5 
REMARK    5  A    between atoms: C_6  and  C_5 
REMARK    6  A    between atoms: C_6  and  C_7 
REMARK    7  A    between atoms: O_9  and  C_10 
REMARK    8  A    between atoms: C_11  and  C_10 
REMARK    9  A    between atoms: C_11  and  C_12 
REMARK   10  A    between atoms: C_11  and  O_18 
REMARK   11  A    between atoms: C_12  and  O_13 
REMARK   12  A    between atoms: O_13  and  P_14 
REMARK   13  A    between atoms: P_14  and  O_17 
REMARK   14  A    between atoms: P_14  and  O_15 
REMARK   15  A    between atoms: C_19  and  O_18 
REMARK   16  A    between atoms: C_21  and  C_19 
REMARK   17  A    between atoms: C_22  and  C_21 
REMARK   18  A    between atoms: C_23  and  C_22 
REMARK   19  A    between atoms: C_24  and  C_23 
REMARK   20  A    between atoms: C_25  and  C_24 
ROOT
HETATM    1  C   UNK N   1      35.253  16.314   9.985  0.00  0.00     0.180 C 
ENDROOT
BRANCH   1   2
HETATM    2  C   UNK N   1      35.191  15.241   8.906  0.00  0.00     0.213 C 
BRANCH   2   3
HETATM    3  O   UNK N   1      33.892  14.824   8.724  0.00  0.00    -0.319 OA
BRANCH   3   4
HETATM    4  C   UNK N   1      33.619  13.615   8.177  0.00  0.00     0.258 C 
HETATM    5  O   UNK N   1      33.321  12.679   8.904  0.00  0.00    -0.265 OA
BRANCH   4   6
HETATM    6  C   UNK N   1      33.658  13.413   6.688  0.00  0.00     0.111 C 
BRANCH   6   7
HETATM    7  C   UNK N   1      32.989  14.580   5.987  0.00  0.00     0.010 C 
BRANCH   7   8
HETATM    8  C   UNK N   1      33.995  15.361   5.161  0.00  0.00     0.000 C 
BRANCH   8   9
HETATM    9  C   UNK N   1      33.340  15.899   3.899  0.00  0.00    -0.000 C 
BRANCH   9  10
HETATM   10  C   UNK N   1      32.963  17.354   4.078  0.00  0.00    -0.005 C 
HETATM   11  C   UNK N   1      31.452  17.482   4.140  0.00  0.00     0.005 C 
ENDBRANCH   9  10
ENDBRANCH   8   9
ENDBRANCH   7   8
ENDBRANCH   6   7
ENDBRANCH   4   6
ENDBRANCH   3   4
ENDBRANCH   2   3
ENDBRANCH   1   2
BRANCH   1  12
HETATM   12  C   UNK N   1      35.068  15.663  11.358  0.00  0.00     0.215 C 
BRANCH  12  13
HETATM   13  O   UNK N   1      36.270  15.180  11.879  0.00  0.00    -0.294 OA
BRANCH  13  14
HETATM   14  P   UNK N   1      35.859  13.602  12.475  0.00  0.00     0.390 P 
HETATM   15  O   UNK N   1      35.142  13.802  13.836  0.00  0.00    -0.632 OA
BRANCH  14  16
HETATM   16  O   UNK N   1      37.274  12.646  12.784  0.00  0.00    -0.307 OA
HETATM   17  H   UNK N   1      38.218  12.530  12.593  0.00  0.00     0.222 HD
ENDBRANCH  14  16
BRANCH  14  18
HETATM   18  O   UNK N   1      34.738  12.783  11.431  0.00  0.00    -0.307 OA
HETATM   19  H   UNK N   1      34.127  12.118  11.786  0.00  0.00     0.222 HD
ENDBRANCH  14  18
ENDBRANCH  13  14
ENDBRANCH  12  13
ENDBRANCH   1  12
BRANCH   1  20
HETATM   20  O   UNK N   1      34.368  17.337   9.658  0.00  0.00    -0.312 OA
BRANCH  20  21
HETATM   21  C   UNK N   1      34.363  18.162   8.574  0.00  0.00     0.259 C 
HETATM   22  O   UNK N   1      35.267  18.957   8.366  0.00  0.00    -0.265 OA
BRANCH  21  23
HETATM   23  C   UNK N   1      33.232  18.069   7.608  0.00  0.00     0.111 C 
BRANCH  23  24
HETATM   24  C   UNK N   1      31.915  18.010   8.363  0.00  0.00     0.010 C 
BRANCH  24  25
HETATM   25  C   UNK N   1      31.058  16.854   7.882  0.00  0.00     0.000 C 
BRANCH  25  26
HETATM   26  C   UNK N   1      29.731  17.365   7.342  0.00  0.00    -0.000 C 
BRANCH  26  27
HETATM   27  C   UNK N   1      29.177  18.448   8.245  0.00  0.00    -0.005 C 
HETATM   28  C   UNK N   1      28.289  17.829   9.309  0.00  0.00     0.005 C 
ENDBRANCH  26  27
ENDBRANCH  25  26
ENDBRANCH  24  25
ENDBRANCH  23  24
ENDBRANCH  21  23
ENDBRANCH  20  21
ENDBRANCH   1  20
TORSDOF 20
ENDMDL
MODEL 4
REMARK VINA RESULT:      -4.9      7.214     10.125
REMARK  20 active torsions:
REMARK  status: ('A' for Active; 'I' for Inactive)
REMARK    1  A    between atoms: C_2  and  O_9 
REMARK    2  A    between atoms: C_3  and  C_2 
REMARK    3  A    between atoms: C_4  and  C_3 
REMARK    4  A    between atoms: C_4  and  C_5 
REMARK    5  A    between atoms: C_6  and  C_5 
REMARK    6  A    between atoms: C_6  and  C_7 
REMARK    7  A    between atoms: O_9  and  C_10 
REMARK    8  A    between atoms: C_11  and  C_10 
REMARK    9  A    between atoms: C_11  and  C_12 
REMARK   10  A    between atoms: C_11  and  O_18 
REMARK   11  A    between atoms: C_12  and  O_13 
REMARK   12  A    between atoms: O_13  and  P_14 
REMARK   13  A    between atoms: P_14  and  O_17 
REMARK   14  A    between atoms: P_14  and  O_15 
REMARK   15  A    between atoms: C_19  and  O_18 
REMARK   16  A    between atoms: C_21  and  C_19 
REMARK   17  A    between atoms: C_22  and  C_21 
REMARK   18  A    between atoms: C_23  and  C_22 
REMARK   19  A    between atoms: C_24  and  C_23 
REMARK   20  A    between atoms: C_25  and  C_24 
ROOT
HETATM    1  C   UNK N   1      22.017  17.212   4.837  0.00  0.00     0.180 C 
ENDROOT
BRANCH   1   2
HETATM    2  C   UNK N   1      23.296  17.624   4.119  0.00  0.00     0.213 C 
BRANCH   2   3
HETATM    3  O   UNK N   1      23.620  18.925   4.434  0.00  0.00    -0.319 OA
BRANCH   3   4
HETATM    4  C   UNK N   1      23.718  19.871   3.469  0.00  0.00     0.258 C 
HETATM    5  O   UNK N   1      22.724  20.186   2.832  0.00  0.00    -0.265 OA
BRANCH   4   6
HETATM    6  C   UNK N   1      25.027  20.552   3.184  0.00  0.00     0.111 C 
BRANCH   6   7
HETATM    7  C   UNK N   1      26.161  19.545   3.242  0.00  0.00     0.010 C 
BRANCH   7   8
HETATM    8  C   UNK N   1      27.278  20.044   4.141  0.00  0.00     0.000 C 
BRANCH   8   9
HETATM    9  C   UNK N   1      27.305  19.253   5.439  0.00  0.00    -0.000 C 
BRANCH   9  10
HETATM   10  C   UNK N   1      27.380  20.187   6.627  0.00  0.00    -0.005 C 
HETATM   11  C   UNK N   1      27.123  21.610   6.169  0.00  0.00     0.005 C 
ENDBRANCH   9  10
ENDBRANCH   8   9
ENDBRANCH   7   8
ENDBRANCH   6   7
ENDBRANCH   4   6
ENDBRANCH   3   4
ENDBRANCH   2   3
ENDBRANCH   1   2
BRANCH   1  12
HETATM   12  C   UNK N   1      20.820  17.438   3.911  0.00  0.00     0.215 C 
BRANCH  12  13
HETATM   13  O   UNK N   1      21.138  17.200   2.572  0.00  0.00    -0.294 OA
BRANCH  13  14
HETATM   14  P   UNK N   1      19.952  18.120   1.696  0.00  0.00     0.390 P 
HETATM   15  O   UNK N   1      19.074  18.848   2.747  0.00  0.00    -0.632 OA
BRANCH  14  16
HETATM   16  O   UNK N   1      18.896  17.092   0.779  0.00  0.00    -0.307 OA
HETATM   17  H   UNK N   1      18.097  16.542   0.803  0.00  0.00     0.222 HD
ENDBRANCH  14  16
BRANCH  14  18
HETATM   18  O   UNK N   1      20.681  19.348   0.708  0.00  0.00    -0.307 OA
HETATM   19  H   UNK N   1      21.644  19.389   0.600  0.00  0.00     0.222 HD
ENDBRANCH  14  18
ENDBRANCH  13  14
ENDBRANCH  12  13
ENDBRANCH   1  12
BRANCH   1  20
HETATM   20  O   UNK N   1      21.972  17.843   6.077  0.00  0.00    -0.312 OA
BRANCH  20  21
HETATM   21  C   UNK N   1      20.980  17.846   7.010  0.00  0.00     0.259 C 
HETATM   22  O   UNK N   1      20.602  18.879   7.543  0.00  0.00    -0.265 OA
BRANCH  21  23
HETATM   23  C   UNK N   1      20.328  16.555   7.368  0.00  0.00     0.111 C 
BRANCH  23  24
HETATM   24  C   UNK N   1      21.380  15.557   7.822  0.00  0.00     0.010 C 
BRANCH  24  25
HETATM   25  C   UNK N   1      20.758  14.207   8.130  0.00  0.00     0.000 C 
BRANCH  25  26
HETATM   26  C   UNK N   1      20.541  14.052   9.628  0.00  0.00    -0.000 C 
BRANCH  26  27
HETATM   27  C   UNK N   1      21.652  13.221  10.237  0.00  0.00    -0.005 C 
HETATM   28  C   UNK N   1      21.072  12.239  11.239  0.00  0.00     0.005 C 
ENDBRANCH  26  27
ENDBRANCH  25  26
ENDBRANCH  24  25
ENDBRANCH  23  24
ENDBRANCH  21  23
ENDBRANCH  20  21
ENDBRANCH   1  20
TORSDOF 20
ENDMDL
MODEL 5
REMARK VINA RESULT:      -4.9      5.672      9.232
REMARK  20 active torsions:
REMARK  status: ('A' for Active; 'I' for Inactive)
REMARK    1  A    between atoms: C_2  and  O_9 
REMARK    2  A    between atoms: C_3  and  C_2 
REMARK    3  A    between atoms: C_4  and  C_3 
REMARK    4  A    between atoms: C_4  and  C_5 
REMARK    5  A    between atoms: C_6  and  C_5 
REMARK    6  A    between atoms: C_6  and  C_7 
REMARK    7  A    between atoms: O_9  and  C_10 
REMARK    8  A    between atoms: C_11  and  C_10 
REMARK    9  A    between atoms: C_11  and  C_12 
REMARK   10  A    between atoms: C_11  and  O_18 
REMARK   11  A    between atoms: C_12  and  O_13 
REMARK   12  A    between atoms: O_13  and  P_14 
REMARK   13  A    between atoms: P_14  and  O_17 
REMARK   14  A    between atoms: P_14  and  O_15 
REMARK   15  A    between atoms: C_19  and  O_18 
REMARK   16  A    between atoms: C_21  and  C_19 
REMARK   17  A    between atoms: C_22  and  C_21 
REMARK   18  A    between atoms: C_23  and  C_22 
REMARK   19  A    between atoms: C_24  and  C_23 
REMARK   20  A    between atoms: C_25  and  C_24 
ROOT
HETATM    1  C   UNK N   1      35.019  16.194  10.084  0.00  0.00     0.180 C 
ENDROOT
BRANCH   1   2
HETATM    2  C   UNK N   1      35.570  15.895  11.473  0.00  0.00     0.213 C 
BRANCH   2   3
HETATM    3  O   UNK N   1      35.990  14.587  11.547  0.00  0.00    -0.319 OA
BRANCH   3   4
HETATM    4  C   UNK N   1      35.712  13.826  12.633  0.00  0.00     0.258 C 
HETATM    5  O   UNK N   1      34.548  13.631  12.949  0.00  0.00    -0.265 OA
BRANCH   4   6
HETATM    6  C   UNK N   1      36.814  13.203  13.443  0.00  0.00     0.111 C 
BRANCH   6   7
HETATM    7  C   UNK N   1      36.613  13.506  14.916  0.00  0.00     0.010 C 
BRANCH   7   8
HETATM    8  C   UNK N   1      36.117  12.277  15.655  0.00  0.00     0.000 C 
BRANCH   8   9
HETATM    9  C   UNK N   1      34.856  12.604  16.438  0.00  0.00    -0.000 C 
BRANCH   9  10
HETATM   10  C   UNK N   1      35.174  12.776  17.907  0.00  0.00    -0.005 C 
HETATM   11  C   UNK N   1      35.225  14.254  18.245  0.00  0.00     0.005 C 
ENDBRANCH   9  10
ENDBRANCH   8   9
ENDBRANCH   7   8
ENDBRANCH   6   7
ENDBRANCH   4   6
ENDBRANCH   3   4
ENDBRANCH   2   3
ENDBRANCH   1   2
BRANCH   1  12
HETATM   12  C   UNK N   1      35.520  15.132   9.102  0.00  0.00     0.215 C 
BRANCH  12  13
HETATM   13  O   UNK N   1      34.550  14.784   8.161  0.00  0.00    -0.294 OA
BRANCH  13  14
HETATM   14  P   UNK N   1      34.178  13.131   8.541  0.00  0.00     0.390 P 
HETATM   15  O   UNK N   1      35.463  12.303   8.280  0.00  0.00    -0.632 OA
BRANCH  14  16
HETATM   16  O   UNK N   1      32.946  12.496   7.497  0.00  0.00    -0.307 OA
HETATM   17  H   UNK N   1      32.404  12.658   6.709  0.00  0.00     0.222 HD
ENDBRANCH  14  16
BRANCH  14  18
HETATM   18  O   UNK N   1      33.777  12.923  10.219  0.00  0.00    -0.307 OA
HETATM   19  H   UNK N   1      34.206  13.465  10.900  0.00  0.00     0.222 HD
ENDBRANCH  14  18
ENDBRANCH  13  14
ENDBRANCH  12  13
ENDBRANCH   1  12
BRANCH   1  20
HETATM   20  O   UNK N   1      35.296  17.519   9.763  0.00  0.00    -0.312 OA
BRANCH  20  21
HETATM   21  C   UNK N   1      34.751  18.306   8.795  0.00  0.00     0.259 C 
HETATM   22  O   UNK N   1      35.349  19.269   8.337  0.00  0.00    -0.265 OA
BRANCH  21  23
HETATM   23  C   UNK N   1      33.399  17.965   8.269  0.00  0.00     0.111 C 
BRANCH  23  24
HETATM   24  C   UNK N   1      33.479  17.716   6.772  0.00  0.00     0.010 C 
BRANCH  24  25
HETATM   25  C   UNK N   1      32.265  16.949   6.278  0.00  0.00     0.000 C 
BRANCH  25  26
HETATM   26  C   UNK N   1      32.692  15.808   5.368  0.00  0.00    -0.000 C 
BRANCH  26  27
HETATM   27  C   UNK N   1      33.315  16.352   4.099  0.00  0.00    -0.005 C 
HETATM   28  C   UNK N   1      32.283  17.143   3.315  0.00  0.00     0.005 C 
ENDBRANCH  26  27
ENDBRANCH  25  26
ENDBRANCH  24  25
ENDBRANCH  23  24
ENDBRANCH  21  23
ENDBRANCH  20  21
ENDBRANCH   1  20
TORSDOF 20
ENDMDL
MODEL 6
REMARK VINA RESULT:      -4.9      2.232      3.609
REMARK  20 active torsions:
REMARK  status: ('A' for Active; 'I' for Inactive)
REMARK    1  A    between atoms: C_2  and  O_9 
REMARK    2  A    between atoms: C_3  and  C_2 
REMARK    3  A    between atoms: C_4  and  C_3 
REMARK    4  A    between atoms: C_4  and  C_5 
REMARK    5  A    between atoms: C_6  and  C_5 
REMARK    6  A    between atoms: C_6  and  C_7 
REMARK    7  A    between atoms: O_9  and  C_10 
REMARK    8  A    between atoms: C_11  and  C_10 
REMARK    9  A    between atoms: C_11  and  C_12 
REMARK   10  A    between atoms: C_11  and  O_18 
REMARK   11  A    between atoms: C_12  and  O_13 
REMARK   12  A    between atoms: O_13  and  P_14 
REMARK   13  A    between atoms: P_14  and  O_17 
REMARK   14  A    between atoms: P_14  and  O_15 
REMARK   15  A    between atoms: C_19  and  O_18 
REMARK   16  A    between atoms: C_21  and  C_19 
REMARK   17  A    between atoms: C_22  and  C_21 
REMARK   18  A    between atoms: C_23  and  C_22 
REMARK   19  A    between atoms: C_24  and  C_23 
REMARK   20  A    between atoms: C_25  and  C_24 
ROOT
HETATM    1  C   UNK N   1      34.227  15.518   8.034  0.00  0.00     0.180 C 
ENDROOT
BRANCH   1   2
HETATM    2  C   UNK N   1      34.303  15.105   6.569  0.00  0.00     0.213 C 
BRANCH   2   3
HETATM    3  O   UNK N   1      34.610  16.193   5.784  0.00  0.00    -0.319 OA
BRANCH   3   4
HETATM    4  C   UNK N   1      33.635  16.900   5.163  0.00  0.00     0.258 C 
HETATM    5  O   UNK N   1      33.683  18.121   5.166  0.00  0.00    -0.265 OA
BRANCH   4   6
HETATM    6  C   UNK N   1      32.507  16.204   4.455  0.00  0.00     0.111 C 
BRANCH   6   7
HETATM    7  C   UNK N   1      31.209  16.411   5.213  0.00  0.00     0.010 C 
BRANCH   7   8
HETATM    8  C   UNK N   1      30.271  17.317   4.437  0.00  0.00     0.000 C 
BRANCH   8   9
HETATM    9  C   UNK N   1      28.979  16.584   4.110  0.00  0.00    -0.000 C 
BRANCH   9  10
HETATM   10  C   UNK N   1      28.715  15.496   5.128  0.00  0.00    -0.005 C 
HETATM   11  C   UNK N   1      27.267  15.558   5.572  0.00  0.00     0.005 C 
ENDBRANCH   9  10
ENDBRANCH   8   9
ENDBRANCH   7   8
ENDBRANCH   6   7
ENDBRANCH   4   6
ENDBRANCH   3   4
ENDBRANCH   2   3
ENDBRANCH   1   2
BRANCH   1  12
HETATM   12  C   UNK N   1      34.947  14.476   8.892  0.00  0.00     0.215 C 
BRANCH  12  13
HETATM   13  O   UNK N   1      36.032  15.020   9.583  0.00  0.00    -0.294 OA
BRANCH  13  14
HETATM   14  P   UNK N   1      35.329  15.610  11.058  0.00  0.00     0.390 P 
HETATM   15  O   UNK N   1      35.212  17.151  10.921  0.00  0.00    -0.632 OA
BRANCH  14  16
HETATM   16  O   UNK N   1      36.355  15.300  12.423  0.00  0.00    -0.307 OA
HETATM   17  H   UNK N   1      36.888  14.637  12.889  0.00  0.00     0.222 HD
ENDBRANCH  14  16
BRANCH  14  18
HETATM   18  O   UNK N   1      33.721  15.002  11.303  0.00  0.00    -0.307 OA
HETATM   19  H   UNK N   1      33.248  15.175  12.132  0.00  0.00     0.222 HD
ENDBRANCH  14  18
ENDBRANCH  13  14
ENDBRANCH  12  13
ENDBRANCH   1  12
BRANCH   1  20
HETATM   20  O   UNK N   1      32.900  15.783   8.360  0.00  0.00    -0.312 OA
BRANCH  20  21
HETATM   21  C   UNK N   1      32.274  16.980   8.532  0.00  0.00     0.259 C 
HETATM   22  O   UNK N   1      32.875  18.040   8.432  0.00  0.00    -0.265 OA
BRANCH  21  23
HETATM   23  C   UNK N   1      30.813  16.991   8.825  0.00  0.00     0.111 C 
BRANCH  23  24
HETATM   24  C   UNK N   1      30.361  18.410   9.126  0.00  0.00     0.010 C 
BRANCH  24  25
HETATM   25  C   UNK N   1      28.861  18.557   8.946  0.00  0.00     0.000 C 
BRANCH  25  26
HETATM   26  C   UNK N   1      28.489  18.444   7.476  0.00  0.00    -0.000 C 
BRANCH  26  27
HETATM   27  C   UNK N   1      27.797  19.708   7.009  0.00  0.00    -0.005 C 
HETATM   28  C   UNK N   1      27.193  19.489   5.634  0.00  0.00     0.005 C 
ENDBRANCH  26  27
ENDBRANCH  25  26
ENDBRANCH  24  25
ENDBRANCH  23  24
ENDBRANCH  21  23
ENDBRANCH  20  21
ENDBRANCH   1  20
TORSDOF 20
ENDMDL
MODEL 7
REMARK VINA RESULT:      -4.8      6.437      9.047
REMARK  20 active torsions:
REMARK  status: ('A' for Active; 'I' for Inactive)
REMARK    1  A    between atoms: C_2  and  O_9 
REMARK    2  A    between atoms: C_3  and  C_2 
REMARK    3  A    between atoms: C_4  and  C_3 
REMARK    4  A    between atoms: C_4  and  C_5 
REMARK    5  A    between atoms: C_6  and  C_5 
REMARK    6  A    between atoms: C_6  and  C_7 
REMARK    7  A    between atoms: O_9  and  C_10 
REMARK    8  A    between atoms: C_11  and  C_10 
REMARK    9  A    between atoms: C_11  and  C_12 
REMARK   10  A    between atoms: C_11  and  O_18 
REMARK   11  A    between atoms: C_12  and  O_13 
REMARK   12  A    between atoms: O_13  and  P_14 
REMARK   13  A    between atoms: P_14  and  O_17 
REMARK   14  A    between atoms: P_14  and  O_15 
REMARK   15  A    between atoms: C_19  and  O_18 
REMARK   16  A    between atoms: C_21  and  C_19 
REMARK   17  A    between atoms: C_22  and  C_21 
REMARK   18  A    between atoms: C_23  and  C_22 
REMARK   19  A    between atoms: C_24  and  C_23 
REMARK   20  A    between atoms: C_25  and  C_24 
ROOT
HETATM    1  C   UNK N   1      21.909  18.685   4.455  0.00  0.00     0.180 C 
ENDROOT
BRANCH   1   2
HETATM    2  C   UNK N   1      22.580  17.951   5.609  0.00  0.00     0.213 C 
BRANCH   2   3
HETATM    3  O   UNK N   1      23.920  17.777   5.347  0.00  0.00    -0.319 OA
BRANCH   3   4
HETATM    4  C   UNK N   1      24.488  16.548   5.411  0.00  0.00     0.258 C 
HETATM    5  O   UNK N   1      23.979  15.686   6.112  0.00  0.00    -0.265 OA
BRANCH   4   6
HETATM    6  C   UNK N   1      25.721  16.224   4.616  0.00  0.00     0.111 C 
BRANCH   6   7
HETATM    7  C   UNK N   1      26.837  15.783   5.544  0.00  0.00     0.010 C 
BRANCH   7   8
HETATM    8  C   UNK N   1      28.190  15.954   4.878  0.00  0.00     0.000 C 
BRANCH   8   9
HETATM    9  C   UNK N   1      29.301  15.899   5.915  0.00  0.00    -0.000 C 
BRANCH   9  10
HETATM   10  C   UNK N   1      29.873  17.280   6.152  0.00  0.00    -0.005 C 
HETATM   11  C   UNK N   1      29.509  17.746   7.549  0.00  0.00     0.005 C 
ENDBRANCH   9  10
ENDBRANCH   8   9
ENDBRANCH   7   8
ENDBRANCH   6   7
ENDBRANCH   4   6
ENDBRANCH   3   4
ENDBRANCH   2   3
ENDBRANCH   1   2
BRANCH   1  12
HETATM   12  C   UNK N   1      20.785  17.816   3.888  0.00  0.00     0.215 C 
BRANCH  12  13
HETATM   13  O   UNK N   1      21.112  17.275   2.643  0.00  0.00    -0.294 OA
BRANCH  13  14
HETATM   14  P   UNK N   1      19.938  17.971   1.568  0.00  0.00     0.390 P 
HETATM   15  O   UNK N   1      19.564  16.879   0.533  0.00  0.00    -0.632 OA
BRANCH  14  16
HETATM   16  O   UNK N   1      20.598  19.307   0.678  0.00  0.00    -0.307 OA
HETATM   17  H   UNK N   1      21.085  20.144   0.736  0.00  0.00     0.222 HD
ENDBRANCH  14  16
BRANCH  14  18
HETATM   18  O   UNK N   1      18.473  18.404   2.396  0.00  0.00    -0.307 OA
HETATM   19  H   UNK N   1      17.688  17.837   2.340  0.00  0.00     0.222 HD
ENDBRANCH  14  18
ENDBRANCH  13  14
ENDBRANCH  12  13
ENDBRANCH   1  12
BRANCH   1  20
HETATM   20  O   UNK N   1      22.886  19.102   3.556  0.00  0.00    -0.312 OA
BRANCH  20  21
HETATM   21  C   UNK N   1      23.074  20.327   2.991  0.00  0.00     0.259 C 
HETATM   22  O   UNK N   1      22.136  21.064   2.724  0.00  0.00    -0.265 OA
BRANCH  21  23
HETATM   23  C   UNK N   1      24.466  20.783   2.714  0.00  0.00     0.111 C 
BRANCH  23  24
HETATM   24  C   UNK N   1      25.454  19.720   3.165  0.00  0.00     0.010 C 
BRANCH  24  25
HETATM   25  C   UNK N   1      26.821  20.321   3.434  0.00  0.00     0.000 C 
BRANCH  25  26
HETATM   26  C   UNK N   1      27.523  19.566   4.552  0.00  0.00    -0.000 C 
BRANCH  26  27
HETATM   27  C   UNK N   1      26.919  19.931   5.893  0.00  0.00    -0.005 C 
HETATM   28  C   UNK N   1      27.104  21.413   6.157  0.00  0.00     0.005 C 
ENDBRANCH  26  27
ENDBRANCH  25  26
ENDBRANCH  24  25
ENDBRANCH  23  24
ENDBRANCH  21  23
ENDBRANCH  20  21
ENDBRANCH   1  20
TORSDOF 20
ENDMDL
MODEL 8
REMARK VINA RESULT:      -4.7      3.887      6.872
REMARK  20 active torsions:
REMARK  status: ('A' for Active; 'I' for Inactive)
REMARK    1  A    between atoms: C_2  and  O_9 
REMARK    2  A    between atoms: C_3  and  C_2 
REMARK    3  A    between atoms: C_4  and  C_3 
REMARK    4  A    between atoms: C_4  and  C_5 
REMARK    5  A    between atoms: C_6  and  C_5 
REMARK    6  A    between atoms: C_6  and  C_7 
REMARK    7  A    between atoms: O_9  and  C_10 
REMARK    8  A    between atoms: C_11  and  C_10 
REMARK    9  A    between atoms: C_11  and  C_12 
REMARK   10  A    between atoms: C_11  and  O_18 
REMARK   11  A    between atoms: C_12  and  O_13 
REMARK   12  A    between atoms: O_13  and  P_14 
REMARK   13  A    between atoms: P_14  and  O_17 
REMARK   14  A    between atoms: P_14  and  O_15 
REMARK   15  A    between atoms: C_19  and  O_18 
REMARK   16  A    between atoms: C_21  and  C_19 
REMARK   17  A    between atoms: C_22  and  C_21 
REMARK   18  A    between atoms: C_23  and  C_22 
REMARK   19  A    between atoms: C_24  and  C_23 
REMARK   20  A    between atoms: C_25  and  C_24 
ROOT
HETATM    1  C   UNK N   1      34.581  15.199  10.004  0.00  0.00     0.180 C 
ENDROOT
BRANCH   1   2
HETATM    2  C   UNK N   1      35.185  16.598  10.029  0.00  0.00     0.213 C 
BRANCH   2   3
HETATM    3  O   UNK N   1      34.278  17.516   9.548  0.00  0.00    -0.319 OA
BRANCH   3   4
HETATM    4  C   UNK N   1      34.503  18.173   8.385  0.00  0.00     0.258 C 
HETATM    5  O   UNK N   1      35.288  19.108   8.365  0.00  0.00    -0.265 OA
BRANCH   4   6
HETATM    6  C   UNK N   1      33.815  17.755   7.116  0.00  0.00     0.111 C 
BRANCH   6   7
HETATM    7  C   UNK N   1      32.513  17.046   7.438  0.00  0.00     0.010 C 
BRANCH   7   8
HETATM    8  C   UNK N   1      31.461  17.350   6.387  0.00  0.00     0.000 C 
BRANCH   8   9
HETATM    9  C   UNK N   1      30.133  16.715   6.769  0.00  0.00    -0.000 C 
BRANCH   9  10
HETATM   10  C   UNK N   1      29.049  17.766   6.853  0.00  0.00    -0.005 C 
HETATM   11  C   UNK N   1      29.087  18.425   8.219  0.00  0.00     0.005 C 
ENDBRANCH   9  10
ENDBRANCH   8   9
ENDBRANCH   7   8
ENDBRANCH   6   7
ENDBRANCH   4   6
ENDBRANCH   3   4
ENDBRANCH   2   3
ENDBRANCH   1   2
BRANCH   1  12
HETATM   12  C   UNK N   1      34.502  14.656  11.432  0.00  0.00     0.215 C 
BRANCH  12  13
HETATM   13  O   UNK N   1      35.279  13.508  11.604  0.00  0.00    -0.294 OA
BRANCH  13  14
HETATM   14  P   UNK N   1      36.037  13.749  13.148  0.00  0.00     0.390 P 
HETATM   15  O   UNK N   1      34.968  13.451  14.232  0.00  0.00    -0.632 OA
BRANCH  14  16
HETATM   16  O   UNK N   1      36.534  15.397  13.367  0.00  0.00    -0.307 OA
HETATM   17  H   UNK N   1      37.019  16.144  12.982  0.00  0.00     0.222 HD
ENDBRANCH  14  16
BRANCH  14  18
HETATM   18  O   UNK N   1      37.346  12.637  13.411  0.00  0.00    -0.307 OA
HETATM   19  H   UNK N   1      37.926  12.375  12.680  0.00  0.00     0.222 HD
ENDBRANCH  14  18
ENDBRANCH  13  14
ENDBRANCH  12  13
ENDBRANCH   1  12
BRANCH   1  20
HETATM   20  O   UNK N   1      35.276  14.423   9.081  0.00  0.00    -0.312 OA
BRANCH  20  21
HETATM   21  C   UNK N   1      34.946  14.101   7.800  0.00  0.00     0.259 C 
HETATM   22  O   UNK N   1      33.809  13.777   7.491  0.00  0.00    -0.265 OA
BRANCH  21  23
HETATM   23  C   UNK N   1      36.000  14.169   6.749  0.00  0.00     0.111 C 
BRANCH  23  24
HETATM   24  C   UNK N   1      35.463  14.900   5.530  0.00  0.00     0.010 C 
BRANCH  24  25
HETATM   25  C   UNK N   1      35.397  13.981   4.324  0.00  0.00     0.000 C 
BRANCH  25  26
HETATM   26  C   UNK N   1      34.049  14.111   3.630  0.00  0.00    -0.000 C 
BRANCH  26  27
HETATM   27  C   UNK N   1      33.310  15.331   4.140  0.00  0.00    -0.005 C 
HETATM   28  C   UNK N   1      33.110  16.323   3.009  0.00  0.00     0.005 C 
ENDBRANCH  26  27
ENDBRANCH  25  26
ENDBRANCH  24  25
ENDBRANCH  23  24
ENDBRANCH  21  23
ENDBRANCH  20  21
ENDBRANCH   1  20
TORSDOF 20
ENDMDL
MODEL 9
REMARK VINA RESULT:      -4.7      2.413      4.213
REMARK  20 active torsions:
REMARK  status: ('A' for Active; 'I' for Inactive)
REMARK    1  A    between atoms: C_2  and  O_9 
REMARK    2  A    between atoms: C_3  and  C_2 
REMARK    3  A    between atoms: C_4  and  C_3 
REMARK    4  A    between atoms: C_4  and  C_5 
REMARK    5  A    between atoms: C_6  and  C_5 
REMARK    6  A    between atoms: C_6  and  C_7 
REMARK    7  A    between atoms: O_9  and  C_10 
REMARK    8  A    between atoms: C_11  and  C_10 
REMARK    9  A    between atoms: C_11  and  C_12 
REMARK   10  A    between atoms: C_11  and  O_18 
REMARK   11  A    between atoms: C_12  and  O_13 
REMARK   12  A    between atoms: O_13  and  P_14 
REMARK   13  A    between atoms: P_14  and  O_17 
REMARK   14  A    between atoms: P_14  and  O_15 
REMARK   15  A    between atoms: C_19  and  O_18 
REMARK   16  A    between atoms: C_21  and  C_19 
REMARK   17  A    between atoms: C_22  and  C_21 
REMARK   18  A    between atoms: C_23  and  C_22 
REMARK   19  A    between atoms: C_24  and  C_23 
REMARK   20  A    between atoms: C_25  and  C_24 
ROOT
HETATM    1  C   UNK N   1      34.239  14.933   7.023  0.00  0.00     0.180 C 
ENDROOT
BRANCH   1   2
HETATM    2  C   UNK N   1      33.247  13.949   6.415  0.00  0.00     0.213 C 
BRANCH   2   3
HETATM    3  O   UNK N   1      31.972  14.226   6.854  0.00  0.00    -0.319 OA
BRANCH   3   4
HETATM    4  C   UNK N   1      30.960  14.422   5.975  0.00  0.00     0.258 C 
HETATM    5  O   UNK N   1      30.523  13.474   5.341  0.00  0.00    -0.265 OA
BRANCH   4   6
HETATM    6  C   UNK N   1      30.355  15.784   5.785  0.00  0.00     0.111 C 
BRANCH   6   7
HETATM    7  C   UNK N   1      28.974  15.659   5.168  0.00  0.00     0.010 C 
BRANCH   7   8
HETATM    8  C   UNK N   1      28.168  16.924   5.392  0.00  0.00     0.000 C 
BRANCH   8   9
HETATM    9  C   UNK N   1      29.008  18.151   5.071  0.00  0.00    -0.000 C 
BRANCH   9  10
HETATM   10  C   UNK N   1      28.122  19.360   4.867  0.00  0.00    -0.005 C 
HETATM   11  C   UNK N   1      26.686  18.998   5.195  0.00  0.00     0.005 C 
ENDBRANCH   9  10
ENDBRANCH   8   9
ENDBRANCH   7   8
ENDBRANCH   6   7
ENDBRANCH   4   6
ENDBRANCH   3   4
ENDBRANCH   2   3
ENDBRANCH   1   2
BRANCH   1  12
HETATM   12  C   UNK N   1      34.114  14.899   8.548  0.00  0.00     0.215 C 
BRANCH  12  13
HETATM   13  O   UNK N   1      35.299  14.494   9.166  0.00  0.00    -0.294 OA
BRANCH  13  14
HETATM   14  P   UNK N   1      35.473  15.600  10.494  0.00  0.00     0.390 P 
HETATM   15  O   UNK N   1      34.898  14.896  11.750  0.00  0.00    -0.632 OA
BRANCH  14  16
HETATM   16  O   UNK N   1      34.541  17.043  10.250  0.00  0.00    -0.307 OA
HETATM   17  H   UNK N   1      33.809  17.449   9.759  0.00  0.00     0.222 HD
ENDBRANCH  14  16
BRANCH  14  18
HETATM   18  O   UNK N   1      37.140  15.954  10.833  0.00  0.00    -0.307 OA
HETATM   19  H   UNK N   1      37.536  15.700  11.681  0.00  0.00     0.222 HD
ENDBRANCH  14  18
ENDBRANCH  13  14
ENDBRANCH  12  13
ENDBRANCH   1  12
BRANCH   1  20
HETATM   20  O   UNK N   1      34.078  16.173   6.413  0.00  0.00    -0.312 OA
BRANCH  20  21
HETATM   21  C   UNK N   1      33.773  17.378   6.970  0.00  0.00     0.259 C 
HETATM   22  O   UNK N   1      34.640  18.128   7.394  0.00  0.00    -0.265 OA
BRANCH  21  23
HETATM   23  C   UNK N   1      32.344  17.795   7.040  0.00  0.00     0.111 C 
BRANCH  23  24
HETATM   24  C   UNK N   1      31.891  17.834   8.490  0.00  0.00     0.010 C 
BRANCH  24  25
HETATM   25  C   UNK N   1      30.766  18.832   8.687  0.00  0.00     0.000 C 
BRANCH  25  26
HETATM   26  C   UNK N   1      29.715  18.270   9.631  0.00  0.00    -0.000 C 
BRANCH  26  27
HETATM   27  C   UNK N   1      28.337  18.376   9.010  0.00  0.00    -0.005 C 
HETATM   28  C   UNK N   1      27.706  17.000   8.915  0.00  0.00     0.005 C 
ENDBRANCH  26  27
ENDBRANCH  25  26
ENDBRANCH  24  25
ENDBRANCH  23  24
ENDBRANCH  21  23
ENDBRANCH  20  21
ENDBRANCH   1  20
TORSDOF 20
ENDMDL
