MODEL 1
REMARK VINA RESULT:      -6.8      0.000      0.000
REMARK  11 active torsions:
REMARK  status: ('A' for Active; 'I' for Inactive)
REMARK    1  A    between atoms: P_1  and  O_2 
REMARK    2  A    between atoms: P_1  and  O_3 
REMARK    3  A    between atoms: P_1  and  C_5 
REMARK    4  A    between atoms: O_2  and  C_16 
REMARK    5  A    between atoms: C_5  and  C_6 
REMARK    6  A    between atoms: C_6  and  C_7 
REMARK    7  A    between atoms: C_7  and  C_8 
REMARK       I    between atoms: C_8  and  N_9 
REMARK    8  A    between atoms: N_9  and  C_11 
REMARK    9  A    between atoms: C_11  and  C_13 
REMARK   10  A    between atoms: C_13  and  O_15 
REMARK   11  A    between atoms: C_19  and  N_22 
ROOT
HETATM    1  P   UNK N   1      20.060  15.246   5.978  0.00  0.00     0.243 P 
HETATM    2  O   UNK N   1      19.709  13.737   5.858  0.00  0.00    -0.653 OA
ENDROOT
BRANCH   1   3
HETATM    3  O   UNK N   1      20.561  15.649   4.384  0.00  0.00    -0.276 OA
BRANCH   3   4
HETATM    4  C   UNK N   1      20.793  16.924   3.996  0.00  0.00     0.079 A 
HETATM    5  C   UNK N   1      21.954  17.612   4.389  0.00  0.00     0.040 A 
HETATM    6  C   UNK N   1      22.209  18.897   3.909  0.00  0.00     0.039 A 
HETATM    7  C   UNK N   1      21.311  19.508   3.022  0.00  0.00     0.103 A 
HETATM    8  C   UNK N   1      20.142  18.830   2.650  0.00  0.00     0.039 A 
HETATM    9  C   UNK N   1      19.882  17.546   3.141  0.00  0.00     0.040 A 
BRANCH   7  10
HETATM   10  N   UNK N   1      21.596  20.794   2.486  0.00  0.00    -0.116 N 
HETATM   11  O   UNK N   1      20.837  21.311   1.723  0.00  0.00    -0.532 OA
HETATM   12  O   UNK N   1      22.674  21.445   2.869  0.00  0.00    -0.532 OA
ENDBRANCH   7  10
ENDBRANCH   3   4
ENDBRANCH   1   3
BRANCH   1  13
HETATM   13  O   UNK N   1      18.524  16.010   6.233  0.00  0.00    -0.329 OA
HETATM   14  H   UNK N   1      18.449  16.976   6.275  0.00  0.00     0.220 HD
ENDBRANCH   1  13
BRANCH   1  15
HETATM   15  C   UNK N   1      21.331  15.525   7.323  0.00  0.00     0.126 C 
BRANCH  15  16
HETATM   16  C   UNK N   1      20.725  15.786   8.702  0.00  0.00     0.021 C 
BRANCH  16  17
HETATM   17  C   UNK N   1      20.243  14.552   9.464  0.00  0.00     0.103 C 
BRANCH  17  18
HETATM   18  C   UNK N   1      21.202  13.411   9.395  0.00  0.00     0.218 C 
HETATM   19  N   UNK N   1      22.299  13.424  10.186  0.00  0.00    -0.347 N 
HETATM   20  H   UNK N   1      22.419  14.178  10.809  0.00  0.00     0.163 HD
HETATM   21  O   UNK N   1      20.998  12.484   8.627  0.00  0.00    -0.274 OA
BRANCH  19  22
HETATM   22  C   UNK N   1      23.305  12.384  10.161  0.00  0.00     0.178 C 
HETATM   23  C   UNK N   1      24.485  12.823   9.305  0.00  0.00     0.043 C 
BRANCH  22  24
HETATM   24  C   UNK N   1      23.772  12.098  11.560  0.00  0.00     0.163 C 
HETATM   25  O   UNK N   1      22.963  11.789  12.421  0.00  0.00    -0.648 OA
BRANCH  24  26
HETATM   26  O   UNK N   1      25.077  12.199  11.880  0.00  0.00    -0.775 OA
HETATM   27  H   UNK N   1      25.347  12.692  12.631  0.00  0.00     0.167 HD
ENDBRANCH  24  26
ENDBRANCH  22  24
ENDBRANCH  19  22
ENDBRANCH  17  18
ENDBRANCH  16  17
ENDBRANCH  15  16
ENDBRANCH   1  15
TORSDOF 11
ENDMDL
MODEL 2
REMARK VINA RESULT:      -6.5     12.653     17.928
REMARK  11 active torsions:
REMARK  status: ('A' for Active; 'I' for Inactive)
REMARK    1  A    between atoms: P_1  and  O_2 
REMARK    2  A    between atoms: P_1  and  O_3 
REMARK    3  A    between atoms: P_1  and  C_5 
REMARK    4  A    between atoms: O_2  and  C_16 
REMARK    5  A    between atoms: C_5  and  C_6 
REMARK    6  A    between atoms: C_6  and  C_7 
REMARK    7  A    between atoms: C_7  and  C_8 
REMARK       I    between atoms: C_8  and  N_9 
REMARK    8  A    between atoms: N_9  and  C_11 
REMARK    9  A    between atoms: C_11  and  C_13 
REMARK   10  A    between atoms: C_13  and  O_15 
REMARK   11  A    between atoms: C_19  and  N_22 
ROOT
HETATM    1  P   UNK N   1      36.051  13.456  13.727  0.00  0.00     0.243 P 
HETATM    2  O   UNK N   1      35.900  12.240  12.772  0.00  0.00    -0.653 OA
ENDROOT
BRANCH   1   3
HETATM    3  O   UNK N   1      34.737  13.251  14.816  0.00  0.00    -0.276 OA
BRANCH   3   4
HETATM    4  C   UNK N   1      34.880  12.665  16.026  0.00  0.00     0.079 A 
HETATM    5  C   UNK N   1      35.033  11.274  16.157  0.00  0.00     0.040 A 
HETATM    6  C   UNK N   1      35.261  10.703  17.408  0.00  0.00     0.039 A 
HETATM    7  C   UNK N   1      35.349  11.516  18.548  0.00  0.00     0.103 A 
HETATM    8  C   UNK N   1      35.173  12.901  18.420  0.00  0.00     0.039 A 
HETATM    9  C   UNK N   1      34.933  13.471  17.165  0.00  0.00     0.040 A 
BRANCH   7  10
HETATM   10  N   UNK N   1      35.638  10.945  19.817  0.00  0.00    -0.116 N 
HETATM   11  O   UNK N   1      34.768  10.782  20.617  0.00  0.00    -0.532 OA
HETATM   12  O   UNK N   1      36.860  10.543  20.096  0.00  0.00    -0.532 OA
ENDBRANCH   7  10
ENDBRANCH   3   4
ENDBRANCH   1   3
BRANCH   1  13
HETATM   13  O   UNK N   1      37.500  13.108  14.614  0.00  0.00    -0.329 OA
HETATM   14  H   UNK N   1      37.482  13.013  15.580  0.00  0.00     0.220 HD
ENDBRANCH   1  13
BRANCH   1  15
HETATM   15  C   UNK N   1      36.062  15.059  12.763  0.00  0.00     0.126 C 
BRANCH  15  16
HETATM   16  C   UNK N   1      35.688  14.896  11.288  0.00  0.00     0.021 C 
BRANCH  16  17
HETATM   17  C   UNK N   1      34.192  14.842  10.980  0.00  0.00     0.103 C 
BRANCH  17  18
HETATM   18  C   UNK N   1      33.851  15.394   9.637  0.00  0.00     0.218 C 
HETATM   19  N   UNK N   1      33.446  16.681   9.539  0.00  0.00    -0.347 N 
HETATM   20  H   UNK N   1      33.416  17.228  10.357  0.00  0.00     0.163 HD
HETATM   21  O   UNK N   1      33.929  14.687   8.645  0.00  0.00    -0.274 OA
BRANCH  19  22
HETATM   22  C   UNK N   1      33.056  17.294   8.287  0.00  0.00     0.178 C 
HETATM   23  C   UNK N   1      31.902  18.259   8.518  0.00  0.00     0.043 C 
BRANCH  22  24
HETATM   24  C   UNK N   1      34.224  18.032   7.698  0.00  0.00     0.163 C 
HETATM   25  O   UNK N   1      34.642  17.729   6.592  0.00  0.00    -0.648 OA
BRANCH  24  26
HETATM   26  O   UNK N   1      34.831  19.017   8.391  0.00  0.00    -0.775 OA
HETATM   27  H   UNK N   1      35.015  19.841   7.984  0.00  0.00     0.167 HD
ENDBRANCH  24  26
ENDBRANCH  22  24
ENDBRANCH  19  22
ENDBRANCH  17  18
ENDBRANCH  16  17
ENDBRANCH  15  16
ENDBRANCH   1  15
TORSDOF 11
ENDMDL
MODEL 3
REMARK VINA RESULT:      -6.5      7.071     10.024
REMARK  11 active torsions:
REMARK  status: ('A' for Active; 'I' for Inactive)
REMARK    1  A    between atoms: P_1  and  O_2 
REMARK    2  A    between atoms: P_1  and  O_3 
REMARK    3  A    between atoms: P_1  and  C_5 
REMARK    4  A    between atoms: O_2  and  C_16 
REMARK    5  A    between atoms: C_5  and  C_6 
REMARK    6  A    between atoms: C_6  and  C_7 
REMARK    7  A    between atoms: C_7  and  C_8 
REMARK       I    between atoms: C_8  and  N_9 
REMARK    8  A    between atoms: N_9  and  C_11 
REMARK    9  A    between atoms: C_11  and  C_13 
REMARK   10  A    between atoms: C_13  and  O_15 
REMARK   11  A    between atoms: C_19  and  N_22 
ROOT
HETATM    1  P   UNK N   1      27.337  18.495   5.380  0.00  0.00     0.243 P 
HETATM    2  O   UNK N   1      27.773  19.144   6.723  0.00  0.00    -0.653 OA
ENDROOT
BRANCH   1   3
HETATM    3  O   UNK N   1      28.308  17.077   5.309  0.00  0.00    -0.276 OA
BRANCH   3   4
HETATM    4  C   UNK N   1      29.641  17.098   5.530  0.00  0.00     0.079 A 
HETATM    5  C   UNK N   1      30.554  17.371   4.497  0.00  0.00     0.040 A 
HETATM    6  C   UNK N   1      31.919  17.467   4.769  0.00  0.00     0.039 A 
HETATM    7  C   UNK N   1      32.390  17.300   6.079  0.00  0.00     0.103 A 
HETATM    8  C   UNK N   1      31.481  17.004   7.104  0.00  0.00     0.039 A 
HETATM    9  C   UNK N   1      30.114  16.897   6.829  0.00  0.00     0.040 A 
BRANCH   7  10
HETATM   10  N   UNK N   1      33.773  17.454   6.369  0.00  0.00    -0.116 N 
HETATM   11  O   UNK N   1      34.134  18.248   7.184  0.00  0.00    -0.532 OA
HETATM   12  O   UNK N   1      34.661  16.682   5.779  0.00  0.00    -0.532 OA
ENDBRANCH   7  10
ENDBRANCH   3   4
ENDBRANCH   1   3
BRANCH   1  13
HETATM   13  O   UNK N   1      25.709  17.976   5.681  0.00  0.00    -0.329 OA
HETATM   14  H   UNK N   1      25.088  17.837   4.950  0.00  0.00     0.220 HD
ENDBRANCH   1  13
BRANCH   1  15
HETATM   15  C   UNK N   1      27.550  19.696   3.962  0.00  0.00     0.126 C 
BRANCH  15  16
HETATM   16  C   UNK N   1      26.364  20.641   3.769  0.00  0.00     0.021 C 
BRANCH  16  17
HETATM   17  C   UNK N   1      25.359  20.240   2.689  0.00  0.00     0.103 C 
BRANCH  17  18
HETATM   18  C   UNK N   1      23.956  20.177   3.190  0.00  0.00     0.218 C 
HETATM   19  N   UNK N   1      23.529  19.054   3.812  0.00  0.00    -0.347 N 
HETATM   20  H   UNK N   1      24.169  18.317   3.942  0.00  0.00     0.163 HD
HETATM   21  O   UNK N   1      23.204  21.126   3.030  0.00  0.00    -0.274 OA
BRANCH  19  22
HETATM   22  C   UNK N   1      22.176  18.883   4.295  0.00  0.00     0.178 C 
HETATM   23  C   UNK N   1      21.358  18.090   3.285  0.00  0.00     0.043 C 
BRANCH  22  24
HETATM   24  C   UNK N   1      22.196  18.158   5.611  0.00  0.00     0.163 C 
HETATM   25  O   UNK N   1      22.904  17.174   5.754  0.00  0.00    -0.648 OA
BRANCH  24  26
HETATM   26  O   UNK N   1      21.423  18.574   6.634  0.00  0.00    -0.775 OA
HETATM   27  H   UNK N   1      20.919  17.959   7.130  0.00  0.00     0.167 HD
ENDBRANCH  24  26
ENDBRANCH  22  24
ENDBRANCH  19  22
ENDBRANCH  17  18
ENDBRANCH  16  17
ENDBRANCH  15  16
ENDBRANCH   1  15
TORSDOF 11
ENDMDL
MODEL 4
REMARK VINA RESULT:      -6.4      1.489      8.772
REMARK  11 active torsions:
REMARK  status: ('A' for Active; 'I' for Inactive)
REMARK    1  A    between atoms: P_1  and  O_2 
REMARK    2  A    between atoms: P_1  and  O_3 
REMARK    3  A    between atoms: P_1  and  C_5 
REMARK    4  A    between atoms: O_2  and  C_16 
REMARK    5  A    between atoms: C_5  and  C_6 
REMARK    6  A    between atoms: C_6  and  C_7 
REMARK    7  A    between atoms: C_7  and  C_8 
REMARK       I    between atoms: C_8  and  N_9 
REMARK    8  A    between atoms: N_9  and  C_11 
REMARK    9  A    between atoms: C_11  and  C_13 
REMARK   10  A    between atoms: C_13  and  O_15 
REMARK   11  A    between atoms: C_19  and  N_22 
ROOT
HETATM    1  P   UNK N   1      19.763  15.951   6.414  0.00  0.00     0.243 P 
HETATM    2  O   UNK N   1      18.593  16.306   7.372  0.00  0.00    -0.653 OA
ENDROOT
BRANCH   1   3
HETATM    3  O   UNK N   1      19.946  14.257   6.646  0.00  0.00    -0.276 OA
BRANCH   3   4
HETATM    4  C   UNK N   1      20.778  13.737   7.575  0.00  0.00     0.079 A 
HETATM    5  C   UNK N   1      21.750  12.779   7.238  0.00  0.00     0.040 A 
HETATM    6  C   UNK N   1      22.650  12.318   8.199  0.00  0.00     0.039 A 
HETATM    7  C   UNK N   1      22.597  12.815   9.509  0.00  0.00     0.103 A 
HETATM    8  C   UNK N   1      21.613  13.753   9.850  0.00  0.00     0.039 A 
HETATM    9  C   UNK N   1      20.704  14.206   8.888  0.00  0.00     0.040 A 
BRANCH   7  10
HETATM   10  N   UNK N   1      23.549  12.391  10.476  0.00  0.00    -0.116 N 
HETATM   11  O   UNK N   1      23.218  11.684  11.378  0.00  0.00    -0.532 OA
HETATM   12  O   UNK N   1      24.814  12.734  10.352  0.00  0.00    -0.532 OA
ENDBRANCH   7  10
ENDBRANCH   3   4
ENDBRANCH   1   3
BRANCH   1  13
HETATM   13  O   UNK N   1      19.085  16.173   4.833  0.00  0.00    -0.329 OA
HETATM   14  H   UNK N   1      18.211  15.816   4.611  0.00  0.00     0.220 HD
ENDBRANCH   1  13
BRANCH   1  15
HETATM   15  C   UNK N   1      21.272  16.989   6.796  0.00  0.00     0.126 C 
BRANCH  15  16
HETATM   16  C   UNK N   1      22.533  16.544   6.052  0.00  0.00     0.021 C 
BRANCH  16  17
HETATM   17  C   UNK N   1      23.071  17.521   5.008  0.00  0.00     0.103 C 
BRANCH  17  18
HETATM   18  C   UNK N   1      22.159  17.689   3.839  0.00  0.00     0.218 C 
HETATM   19  N   UNK N   1      21.823  18.938   3.441  0.00  0.00    -0.347 N 
HETATM   20  H   UNK N   1      22.215  19.704   3.919  0.00  0.00     0.163 HD
HETATM   21  O   UNK N   1      21.719  16.710   3.258  0.00  0.00    -0.274 OA
BRANCH  19  22
HETATM   22  C   UNK N   1      20.915  19.201   2.346  0.00  0.00     0.178 C 
HETATM   23  C   UNK N   1      19.478  19.196   2.848  0.00  0.00     0.043 C 
BRANCH  22  24
HETATM   24  C   UNK N   1      21.234  20.536   1.734  0.00  0.00     0.163 C 
HETATM   25  O   UNK N   1      21.322  20.645   0.521  0.00  0.00    -0.648 OA
BRANCH  24  26
HETATM   26  O   UNK N   1      21.444  21.615   2.515  0.00  0.00    -0.775 OA
HETATM   27  H   UNK N   1      21.099  22.452   2.273  0.00  0.00     0.167 HD
ENDBRANCH  24  26
ENDBRANCH  22  24
ENDBRANCH  19  22
ENDBRANCH  17  18
ENDBRANCH  16  17
ENDBRANCH  15  16
ENDBRANCH   1  15
TORSDOF 11
ENDMDL
MODEL 5
REMARK VINA RESULT:      -6.4     11.501     13.934
REMARK  11 active torsions:
REMARK  status: ('A' for Active; 'I' for Inactive)
REMARK    1  A    between atoms: P_1  and  O_2 
REMARK    2  A    between atoms: P_1  and  O_3 
REMARK    3  A    between atoms: P_1  and  C_5 
REMARK    4  A    between atoms: O_2  and  C_16 
REMARK    5  A    between atoms: C_5  and  C_6 
REMARK    6  A    between atoms: C_6  and  C_7 
REMARK    7  A    between atoms: C_7  and  C_8 
REMARK       I    between atoms: C_8  and  N_9 
REMARK    8  A    between atoms: N_9  and  C_11 
REMARK    9  A    between atoms: C_11  and  C_13 
REMARK   10  A    between atoms: C_13  and  O_15 
REMARK   11  A    between atoms: C_19  and  N_22 
ROOT
HETATM    1  P   UNK N   1      35.350  15.852  10.156  0.00  0.00     0.243 P 
HETATM    2  O   UNK N   1      34.386  15.245  11.211  0.00  0.00    -0.653 OA
ENDROOT
BRANCH   1   3
HETATM    3  O   UNK N   1      34.504  17.250   9.624  0.00  0.00    -0.276 OA
BRANCH   3   4
HETATM    4  C   UNK N   1      33.752  17.262   8.501  0.00  0.00     0.079 A 
HETATM    5  C   UNK N   1      34.310  17.556   7.245  0.00  0.00     0.040 A 
HETATM    6  C   UNK N   1      33.531  17.482   6.091  0.00  0.00     0.039 A 
HETATM    7  C   UNK N   1      32.183  17.102   6.174  0.00  0.00     0.103 A 
HETATM    8  C   UNK N   1      31.621  16.831   7.430  0.00  0.00     0.039 A 
HETATM    9  C   UNK N   1      32.401  16.918   8.587  0.00  0.00     0.040 A 
BRANCH   7  10
HETATM   10  N   UNK N   1      31.401  16.969   4.995  0.00  0.00    -0.116 N 
HETATM   11  O   UNK N   1      31.859  16.451   4.022  0.00  0.00    -0.532 OA
HETATM   12  O   UNK N   1      30.146  17.368   4.986  0.00  0.00    -0.532 OA
ENDBRANCH   7  10
ENDBRANCH   3   4
ENDBRANCH   1   3
BRANCH   1  13
HETATM   13  O   UNK N   1      36.698  16.406  11.097  0.00  0.00    -0.329 OA
HETATM   14  H   UNK N   1      36.842  17.353  11.252  0.00  0.00     0.220 HD
ENDBRANCH   1  13
BRANCH   1  15
HETATM   15  C   UNK N   1      35.756  14.597   8.828  0.00  0.00     0.126 C 
BRANCH  15  16
HETATM   16  C   UNK N   1      36.381  13.308   9.366  0.00  0.00     0.021 C 
BRANCH  16  17
HETATM   17  C   UNK N   1      37.537  13.486  10.349  0.00  0.00     0.103 C 
BRANCH  17  18
HETATM   18  C   UNK N   1      37.243  12.937  11.705  0.00  0.00     0.218 C 
HETATM   19  N   UNK N   1      36.827  13.778  12.679  0.00  0.00    -0.347 N 
HETATM   20  H   UNK N   1      36.702  14.729  12.456  0.00  0.00     0.163 HD
HETATM   21  O   UNK N   1      37.386  11.745  11.928  0.00  0.00    -0.274 OA
BRANCH  19  22
HETATM   22  C   UNK N   1      36.556  13.346  14.034  0.00  0.00     0.178 C 
HETATM   23  C   UNK N   1      37.000  14.418  15.020  0.00  0.00     0.043 C 
BRANCH  22  24
HETATM   24  C   UNK N   1      35.085  13.086  14.197  0.00  0.00     0.163 C 
HETATM   25  O   UNK N   1      34.607  12.972  15.315  0.00  0.00    -0.648 OA
BRANCH  24  26
HETATM   26  O   UNK N   1      34.288  12.958  13.118  0.00  0.00    -0.775 OA
HETATM   27  H   UNK N   1      34.286  12.164  12.619  0.00  0.00     0.167 HD
ENDBRANCH  24  26
ENDBRANCH  22  24
ENDBRANCH  19  22
ENDBRANCH  17  18
ENDBRANCH  16  17
ENDBRANCH  15  16
ENDBRANCH   1  15
TORSDOF 11
ENDMDL
MODEL 6
REMARK VINA RESULT:      -6.3      1.673      9.603
REMARK  11 active torsions:
REMARK  status: ('A' for Active; 'I' for Inactive)
REMARK    1  A    between atoms: P_1  and  O_2 
REMARK    2  A    between atoms: P_1  and  O_3 
REMARK    3  A    between atoms: P_1  and  C_5 
REMARK    4  A    between atoms: O_2  and  C_16 
REMARK    5  A    between atoms: C_5  and  C_6 
REMARK    6  A    between atoms: C_6  and  C_7 
REMARK    7  A    between atoms: C_7  and  C_8 
REMARK       I    between atoms: C_8  and  N_9 
REMARK    8  A    between atoms: N_9  and  C_11 
REMARK    9  A    between atoms: C_11  and  C_13 
REMARK   10  A    between atoms: C_13  and  O_15 
REMARK   11  A    between atoms: C_19  and  N_22 
ROOT
HETATM    1  P   UNK N   1      20.591  14.758   6.285  0.00  0.00     0.243 P 
HETATM    2  O   UNK N   1      21.845  15.468   6.865  0.00  0.00    -0.653 OA
ENDROOT
BRANCH   1   3
HETATM    3  O   UNK N   1      20.618  13.230   7.073  0.00  0.00    -0.276 OA
BRANCH   3   4
HETATM    4  C   UNK N   1      21.334  13.005   8.197  0.00  0.00     0.079 A 
HETATM    5  C   UNK N   1      20.877  13.425   9.458  0.00  0.00     0.040 A 
HETATM    6  C   UNK N   1      21.596  13.110  10.610  0.00  0.00     0.039 A 
HETATM    7  C   UNK N   1      22.778  12.361  10.521  0.00  0.00     0.103 A 
HETATM    8  C   UNK N   1      23.246  11.962   9.261  0.00  0.00     0.039 A 
HETATM    9  C   UNK N   1      22.530  12.289   8.105  0.00  0.00     0.040 A 
BRANCH   7  10
HETATM   10  N   UNK N   1      23.482  11.987  11.698  0.00  0.00    -0.116 N 
HETATM   11  O   UNK N   1      24.675  11.937  11.697  0.00  0.00    -0.532 OA
HETATM   12  O   UNK N   1      22.824  11.746  12.813  0.00  0.00    -0.532 OA
ENDBRANCH   7  10
ENDBRANCH   3   4
ENDBRANCH   1   3
BRANCH   1  13
HETATM   13  O   UNK N   1      19.263  15.649   6.957  0.00  0.00    -0.329 OA
HETATM   14  H   UNK N   1      18.700  15.260   7.645  0.00  0.00     0.220 HD
ENDBRANCH   1  13
BRANCH   1  15
HETATM   15  C   UNK N   1      20.663  14.707   4.416  0.00  0.00     0.126 C 
BRANCH  15  16
HETATM   16  C   UNK N   1      21.106  16.025   3.778  0.00  0.00     0.021 C 
BRANCH  16  17
HETATM   17  C   UNK N   1      20.003  17.054   3.535  0.00  0.00     0.103 C 
BRANCH  17  18
HETATM   18  C   UNK N   1      20.492  18.462   3.594  0.00  0.00     0.218 C 
HETATM   19  N   UNK N   1      20.661  19.148   2.440  0.00  0.00    -0.347 N 
HETATM   20  H   UNK N   1      20.427  18.705   1.592  0.00  0.00     0.163 HD
HETATM   21  O   UNK N   1      20.744  18.980   4.671  0.00  0.00    -0.274 OA
BRANCH  19  22
HETATM   22  C   UNK N   1      21.169  20.502   2.393  0.00  0.00     0.178 C 
HETATM   23  C   UNK N   1      22.672  20.504   2.635  0.00  0.00     0.043 C 
BRANCH  22  24
HETATM   24  C   UNK N   1      20.872  21.107   1.050  0.00  0.00     0.163 C 
HETATM   25  O   UNK N   1      21.087  20.468   0.033  0.00  0.00    -0.648 OA
BRANCH  24  26
HETATM   26  O   UNK N   1      20.387  22.362   0.956  0.00  0.00    -0.775 OA
HETATM   27  H   UNK N   1      20.956  23.100   1.045  0.00  0.00     0.167 HD
ENDBRANCH  24  26
ENDBRANCH  22  24
ENDBRANCH  19  22
ENDBRANCH  17  18
ENDBRANCH  16  17
ENDBRANCH  15  16
ENDBRANCH   1  15
TORSDOF 11
ENDMDL
MODEL 7
REMARK VINA RESULT:      -6.3     14.865     16.352
REMARK  11 active torsions:
REMARK  status: ('A' for Active; 'I' for Inactive)
REMARK    1  A    between atoms: P_1  and  O_2 
REMARK    2  A    between atoms: P_1  and  O_3 
REMARK    3  A    between atoms: P_1  and  C_5 
REMARK    4  A    between atoms: O_2  and  C_16 
REMARK    5  A    between atoms: C_5  and  C_6 
REMARK    6  A    between atoms: C_6  and  C_7 
REMARK    7  A    between atoms: C_7  and  C_8 
REMARK       I    between atoms: C_8  and  N_9 
REMARK    8  A    between atoms: N_9  and  C_11 
REMARK    9  A    between atoms: C_11  and  C_13 
REMARK   10  A    between atoms: C_13  and  O_15 
REMARK   11  A    between atoms: C_19  and  N_22 
ROOT
HETATM    1  P   UNK N   1      25.942  23.420  -7.372  0.00  0.00     0.243 P 
HETATM    2  O   UNK N   1      24.933  23.875  -8.462  0.00  0.00    -0.653 OA
ENDROOT
BRANCH   1   3
HETATM    3  O   UNK N   1      25.225  24.002  -5.922  0.00  0.00    -0.276 OA
BRANCH   3   4
HETATM    4  C   UNK N   1      25.586  25.173  -5.351  0.00  0.00     0.079 A 
HETATM    5  C   UNK N   1      25.232  26.409  -5.920  0.00  0.00     0.040 A 
HETATM    6  C   UNK N   1      25.547  27.601  -5.269  0.00  0.00     0.039 A 
HETATM    7  C   UNK N   1      26.213  27.576  -4.035  0.00  0.00     0.103 A 
HETATM    8  C   UNK N   1      26.587  26.344  -3.481  0.00  0.00     0.039 A 
HETATM    9  C   UNK N   1      26.280  25.149  -4.140  0.00  0.00     0.040 A 
BRANCH   7  10
HETATM   10  N   UNK N   1      26.484  28.787  -3.341  0.00  0.00    -0.116 N 
HETATM   11  O   UNK N   1      26.122  29.832  -3.788  0.00  0.00    -0.532 OA
HETATM   12  O   UNK N   1      27.092  28.756  -2.174  0.00  0.00    -0.532 OA
ENDBRANCH   7  10
ENDBRANCH   3   4
ENDBRANCH   1   3
BRANCH   1  13
HETATM   13  O   UNK N   1      25.783  21.693  -7.355  0.00  0.00    -0.329 OA
HETATM   14  H   UNK N   1      24.919  21.271  -7.485  0.00  0.00     0.220 HD
ENDBRANCH   1  13
BRANCH   1  15
HETATM   15  C   UNK N   1      27.658  24.068  -7.744  0.00  0.00     0.126 C 
BRANCH  15  16
HETATM   16  C   UNK N   1      28.685  23.757  -6.654  0.00  0.00     0.021 C 
BRANCH  16  17
HETATM   17  C   UNK N   1      29.395  24.964  -6.042  0.00  0.00     0.103 C 
BRANCH  17  18
HETATM   18  C   UNK N   1      30.039  24.663  -4.731  0.00  0.00     0.218 C 
HETATM   19  N   UNK N   1      29.844  23.449  -4.166  0.00  0.00    -0.347 N 
HETATM   20  H   UNK N   1      29.303  22.786  -4.653  0.00  0.00     0.163 HD
HETATM   21  O   UNK N   1      30.726  25.506  -4.176  0.00  0.00    -0.274 OA
BRANCH  19  22
HETATM   22  C   UNK N   1      30.393  23.079  -2.879  0.00  0.00     0.178 C 
HETATM   23  C   UNK N   1      29.281  22.996  -1.843  0.00  0.00     0.043 C 
BRANCH  22  24
HETATM   24  C   UNK N   1      31.084  21.749  -2.988  0.00  0.00     0.163 C 
HETATM   25  O   UNK N   1      30.672  20.911  -3.774  0.00  0.00    -0.648 OA
BRANCH  24  26
HETATM   26  O   UNK N   1      32.146  21.463  -2.209  0.00  0.00    -0.775 OA
HETATM   27  H   UNK N   1      32.058  21.428  -1.277  0.00  0.00     0.167 HD
ENDBRANCH  24  26
ENDBRANCH  22  24
ENDBRANCH  19  22
ENDBRANCH  17  18
ENDBRANCH  16  17
ENDBRANCH  15  16
ENDBRANCH   1  15
TORSDOF 11
ENDMDL
MODEL 8
REMARK VINA RESULT:      -6.2     15.320     16.352
REMARK  11 active torsions:
REMARK  status: ('A' for Active; 'I' for Inactive)
REMARK    1  A    between atoms: P_1  and  O_2 
REMARK    2  A    between atoms: P_1  and  O_3 
REMARK    3  A    between atoms: P_1  and  C_5 
REMARK    4  A    between atoms: O_2  and  C_16 
REMARK    5  A    between atoms: C_5  and  C_6 
REMARK    6  A    between atoms: C_6  and  C_7 
REMARK    7  A    between atoms: C_7  and  C_8 
REMARK       I    between atoms: C_8  and  N_9 
REMARK    8  A    between atoms: N_9  and  C_11 
REMARK    9  A    between atoms: C_11  and  C_13 
REMARK   10  A    between atoms: C_13  and  O_15 
REMARK   11  A    between atoms: C_19  and  N_22 
ROOT
HETATM    1  P   UNK N   1      26.676  26.063  -3.703  0.00  0.00     0.243 P 
HETATM    2  O   UNK N   1      26.635  24.824  -2.768  0.00  0.00    -0.653 OA
ENDROOT
BRANCH   1   3
HETATM    3  O   UNK N   1      25.493  25.682  -4.892  0.00  0.00    -0.276 OA
BRANCH   3   4
HETATM    4  C   UNK N   1      25.777  24.946  -5.990  0.00  0.00     0.079 A 
HETATM    5  C   UNK N   1      25.934  23.551  -5.920  0.00  0.00     0.040 A 
HETATM    6  C   UNK N   1      26.146  22.806  -7.079  0.00  0.00     0.039 A 
HETATM    7  C   UNK N   1      26.195  23.443  -8.327  0.00  0.00     0.103 A 
HETATM    8  C   UNK N   1      26.062  24.837  -8.393  0.00  0.00     0.039 A 
HETATM    9  C   UNK N   1      25.861  25.585  -7.229  0.00  0.00     0.040 A 
BRANCH   7  10
HETATM   10  N   UNK N   1      26.353  22.681  -9.517  0.00  0.00    -0.116 N 
HETATM   11  O   UNK N   1      25.398  22.323 -10.136  0.00  0.00    -0.532 OA
HETATM   12  O   UNK N   1      27.559  22.409  -9.971  0.00  0.00    -0.532 OA
ENDBRANCH   7  10
ENDBRANCH   3   4
ENDBRANCH   1   3
BRANCH   1  13
HETATM   13  O   UNK N   1      26.018  27.339  -2.729  0.00  0.00    -0.329 OA
HETATM   14  H   UNK N   1      26.598  27.985  -2.297  0.00  0.00     0.220 HD
ENDBRANCH   1  13
BRANCH   1  15
HETATM   15  C   UNK N   1      28.408  26.352  -4.348  0.00  0.00     0.126 C 
BRANCH  15  16
HETATM   16  C   UNK N   1      29.268  25.088  -4.397  0.00  0.00     0.021 C 
BRANCH  16  17
HETATM   17  C   UNK N   1      30.333  24.962  -3.308  0.00  0.00     0.103 C 
BRANCH  17  18
HETATM   18  C   UNK N   1      30.652  23.547  -2.963  0.00  0.00     0.218 C 
HETATM   19  N   UNK N   1      30.976  22.685  -3.953  0.00  0.00    -0.347 N 
HETATM   20  H   UNK N   1      31.020  23.025  -4.876  0.00  0.00     0.163 HD
HETATM   21  O   UNK N   1      30.612  23.175  -1.800  0.00  0.00    -0.274 OA
BRANCH  19  22
HETATM   22  C   UNK N   1      31.262  21.285  -3.722  0.00  0.00     0.178 C 
HETATM   23  C   UNK N   1      31.069  20.495  -5.008  0.00  0.00     0.043 C 
BRANCH  22  24
HETATM   24  C   UNK N   1      32.676  21.131  -3.239  0.00  0.00     0.163 C 
HETATM   25  O   UNK N   1      33.585  21.005  -4.045  0.00  0.00    -0.648 OA
BRANCH  24  26
HETATM   26  O   UNK N   1      32.952  21.110  -1.920  0.00  0.00    -0.775 OA
HETATM   27  H   UNK N   1      33.839  21.097  -1.618  0.00  0.00     0.167 HD
ENDBRANCH  24  26
ENDBRANCH  22  24
ENDBRANCH  19  22
ENDBRANCH  17  18
ENDBRANCH  16  17
ENDBRANCH  15  16
ENDBRANCH   1  15
TORSDOF 11
ENDMDL
MODEL 9
REMARK VINA RESULT:      -6.2      1.879      9.004
REMARK  11 active torsions:
REMARK  status: ('A' for Active; 'I' for Inactive)
REMARK    1  A    between atoms: P_1  and  O_2 
REMARK    2  A    between atoms: P_1  and  O_3 
REMARK    3  A    between atoms: P_1  and  C_5 
REMARK    4  A    between atoms: O_2  and  C_16 
REMARK    5  A    between atoms: C_5  and  C_6 
REMARK    6  A    between atoms: C_6  and  C_7 
REMARK    7  A    between atoms: C_7  and  C_8 
REMARK       I    between atoms: C_8  and  N_9 
REMARK    8  A    between atoms: N_9  and  C_11 
REMARK    9  A    between atoms: C_11  and  C_13 
REMARK   10  A    between atoms: C_13  and  O_15 
REMARK   11  A    between atoms: C_19  and  N_22 
ROOT
HETATM    1  P   UNK N   1      20.709  14.650   6.572  0.00  0.00     0.243 P 
HETATM    2  O   UNK N   1      21.001  15.678   7.700  0.00  0.00    -0.653 OA
ENDROOT
BRANCH   1   3
HETATM    3  O   UNK N   1      20.697  13.152   7.415  0.00  0.00    -0.276 OA
BRANCH   3   4
HETATM    4  C   UNK N   1      21.417  12.946   8.541  0.00  0.00     0.079 A 
HETATM    5  C   UNK N   1      20.827  13.015   9.815  0.00  0.00     0.040 A 
HETATM    6  C   UNK N   1      21.572  12.719  10.955  0.00  0.00     0.039 A 
HETATM    7  C   UNK N   1      22.917  12.339  10.839  0.00  0.00     0.103 A 
HETATM    8  C   UNK N   1      23.512  12.294   9.570  0.00  0.00     0.039 A 
HETATM    9  C   UNK N   1      22.766  12.602   8.428  0.00  0.00     0.040 A 
BRANCH   7  10
HETATM   10  N   UNK N   1      23.665  11.981  11.994  0.00  0.00    -0.116 N 
HETATM   11  O   UNK N   1      24.852  11.875  11.935  0.00  0.00    -0.532 OA
HETATM   12  O   UNK N   1      23.055  11.814  13.149  0.00  0.00    -0.532 OA
ENDBRANCH   7  10
ENDBRANCH   3   4
ENDBRANCH   1   3
BRANCH   1  13
HETATM   13  O   UNK N   1      19.069  14.987   6.120  0.00  0.00    -0.329 OA
HETATM   14  H   UNK N   1      18.868  15.585   5.383  0.00  0.00     0.220 HD
ENDBRANCH   1  13
BRANCH   1  15
HETATM   15  C   UNK N   1      21.970  14.797   5.198  0.00  0.00     0.126 C 
BRANCH  15  16
HETATM   16  C   UNK N   1      21.512  15.670   4.029  0.00  0.00     0.021 C 
BRANCH  16  17
HETATM   17  C   UNK N   1      21.079  17.091   4.387  0.00  0.00     0.103 C 
BRANCH  17  18
HETATM   18  C   UNK N   1      22.227  17.997   4.681  0.00  0.00     0.218 C 
HETATM   19  N   UNK N   1      22.895  18.568   3.653  0.00  0.00    -0.347 N 
HETATM   20  H   UNK N   1      22.584  18.391   2.735  0.00  0.00     0.163 HD
HETATM   21  O   UNK N   1      22.562  18.209   5.837  0.00  0.00    -0.274 OA
BRANCH  19  22
HETATM   22  C   UNK N   1      24.045  19.427   3.836  0.00  0.00     0.178 C 
HETATM   23  C   UNK N   1      25.324  18.649   3.561  0.00  0.00     0.043 C 
BRANCH  22  24
HETATM   24  C   UNK N   1      23.955  20.600   2.901  0.00  0.00     0.163 C 
HETATM   25  O   UNK N   1      24.885  20.856   2.153  0.00  0.00    -0.648 OA
BRANCH  24  26
HETATM   26  O   UNK N   1      22.861  21.387   2.894  0.00  0.00    -0.775 OA
HETATM   27  H   UNK N   1      22.603  21.838   2.114  0.00  0.00     0.167 HD
ENDBRANCH  24  26
ENDBRANCH  22  24
ENDBRANCH  19  22
ENDBRANCH  17  18
ENDBRANCH  16  17
ENDBRANCH  15  16
ENDBRANCH   1  15
TORSDOF 11
ENDMDL
