MODEL 1
REMARK VINA RESULT:      -6.7      0.000      0.000
REMARK  8 active torsions:
REMARK  status: ('A' for Active; 'I' for Inactive)
REMARK    1  A    between atoms: C_1  and  N_12 
REMARK    2  A    between atoms: C_4  and  N_13 
REMARK    3  A    between atoms: C_7  and  C_8 
REMARK    4  A    between atoms: C_7  and  N_13 
REMARK    5  A    between atoms: C_7  and  O_16 
REMARK    6  A    between atoms: C_8  and  C_9 
REMARK    7  A    between atoms: C_9  and  C_10 
REMARK    8  A    between atoms: C_10  and  O_17 
ROOT
HETATM    1  C   UNK N   1      28.266  18.330   6.533  0.00  0.00     0.045 A 
HETATM    2  C   UNK N   1      28.214  18.599   7.910  0.00  0.00     0.032 A 
HETATM    3  C   UNK N   1      29.226  18.168   8.765  0.00  0.00     0.031 A 
HETATM    4  C   UNK N   1      30.323  17.457   8.268  0.00  0.00     0.029 A 
HETATM    5  C   UNK N   1      30.401  17.200   6.893  0.00  0.00     0.031 A 
HETATM    6  C   UNK N   1      29.379  17.625   6.035  0.00  0.00     0.032 A 
ENDROOT
BRANCH   4   7
HETATM    7  N   UNK N   1      31.370  17.007   9.123  0.00  0.00    -0.364 N 
HETATM    8  H   UNK N   1      31.625  17.601   9.865  0.00  0.00     0.162 HD
BRANCH   7   9
HETATM    9  C   UNK N   1      32.098  15.752   9.004  0.00  0.00     0.218 C 
BRANCH   9  10
HETATM   10  C   UNK N   1      33.486  16.017   8.431  0.00  0.00     0.064 C 
BRANCH  10  11
HETATM   11  C   UNK N   1      34.182  17.207   9.098  0.00  0.00     0.114 C 
BRANCH  11  12
HETATM   12  C   UNK N   1      34.630  18.270   8.133  0.00  0.00     0.139 C 
HETATM   13  O   UNK N   1      35.282  19.230   8.512  0.00  0.00    -0.650 OA
BRANCH  12  14
HETATM   14  O   UNK N   1      34.320  18.150   6.829  0.00  0.00    -0.776 OA
HETATM   15  H   UNK N   1      34.649  18.755   6.193  0.00  0.00     0.167 HD
ENDBRANCH  12  14
ENDBRANCH  11  12
ENDBRANCH  10  11
ENDBRANCH   9  10
BRANCH   9  16
HETATM   16  O   UNK N   1      32.207  15.090  10.230  0.00  0.00    -0.377 OA
HETATM   17  H   UNK N   1      32.258  14.137  10.401  0.00  0.00     0.212 HD
ENDBRANCH   9  16
ENDBRANCH   7   9
ENDBRANCH   4   7
BRANCH   1  18
HETATM   18  N   UNK N   1      27.203  18.772   5.660  0.00  0.00    -0.252 N 
HETATM   19  C   UNK N   1      26.227  17.988   5.165  0.00  0.00     0.231 A 
HETATM   20  O   UNK N   1      26.125  16.795   5.406  0.00  0.00    -0.273 OA
HETATM   21  C   UNK N   1      25.265  18.726   4.291  0.00  0.00     0.113 A 
HETATM   22  C   UNK N   1      25.829  20.167   4.319  0.00  0.00     0.113 A 
HETATM   23  C   UNK N   1      27.026  20.026   5.208  0.00  0.00     0.231 A 
HETATM   24  O   UNK N   1      27.764  20.959   5.483  0.00  0.00    -0.273 OA
ENDBRANCH   1  18
TORSDOF 8
ENDMDL
MODEL 2
REMARK VINA RESULT:      -6.6      0.373      1.956
REMARK  8 active torsions:
REMARK  status: ('A' for Active; 'I' for Inactive)
REMARK    1  A    between atoms: C_1  and  N_12 
REMARK    2  A    between atoms: C_4  and  N_13 
REMARK    3  A    between atoms: C_7  and  C_8 
REMARK    4  A    between atoms: C_7  and  N_13 
REMARK    5  A    between atoms: C_7  and  O_16 
REMARK    6  A    between atoms: C_8  and  C_9 
REMARK    7  A    between atoms: C_9  and  C_10 
REMARK    8  A    between atoms: C_10  and  O_17 
ROOT
HETATM    1  C   UNK N   1      28.433  18.057   6.323  0.00  0.00     0.045 A 
HETATM    2  C   UNK N   1      29.640  17.503   5.871  0.00  0.00     0.032 A 
HETATM    3  C   UNK N   1      30.643  17.136   6.766  0.00  0.00     0.031 A 
HETATM    4  C   UNK N   1      30.465  17.309   8.143  0.00  0.00     0.029 A 
HETATM    5  C   UNK N   1      29.257  17.840   8.612  0.00  0.00     0.031 A 
HETATM    6  C   UNK N   1      28.254  18.219   7.711  0.00  0.00     0.032 A 
ENDROOT
BRANCH   4   7
HETATM    7  N   UNK N   1      31.476  16.940   9.077  0.00  0.00    -0.364 N 
HETATM    8  H   UNK N   1      31.695  17.595   9.778  0.00  0.00     0.162 HD
BRANCH   7   9
HETATM    9  C   UNK N   1      32.214  15.685   9.093  0.00  0.00     0.218 C 
BRANCH   9  10
HETATM   10  C   UNK N   1      33.632  15.918   8.580  0.00  0.00     0.064 C 
BRANCH  10  11
HETATM   11  C   UNK N   1      34.266  17.187   9.157  0.00  0.00     0.114 C 
BRANCH  11  12
HETATM   12  C   UNK N   1      34.629  18.213   8.119  0.00  0.00     0.139 C 
HETATM   13  O   UNK N   1      35.146  19.272   8.435  0.00  0.00    -0.650 OA
BRANCH  12  14
HETATM   14  O   UNK N   1      34.393  17.949   6.821  0.00  0.00    -0.776 OA
HETATM   15  H   UNK N   1      35.040  18.121   6.165  0.00  0.00     0.167 HD
ENDBRANCH  12  14
ENDBRANCH  11  12
ENDBRANCH  10  11
ENDBRANCH   9  10
BRANCH   9  16
HETATM   16  O   UNK N   1      32.257  15.117  10.369  0.00  0.00    -0.377 OA
HETATM   17  H   UNK N   1      31.547  14.676  10.860  0.00  0.00     0.212 HD
ENDBRANCH   9  16
ENDBRANCH   7   9
ENDBRANCH   4   7
BRANCH   1  18
HETATM   18  N   UNK N   1      27.408  18.445   5.382  0.00  0.00    -0.252 N 
HETATM   19  C   UNK N   1      27.262  19.675   4.854  0.00  0.00     0.231 A 
HETATM   20  O   UNK N   1      27.997  20.617   5.112  0.00  0.00    -0.273 OA
HETATM   21  C   UNK N   1      26.111  19.778   3.906  0.00  0.00     0.113 A 
HETATM   22  C   UNK N   1      25.531  18.343   3.934  0.00  0.00     0.113 A 
HETATM   23  C   UNK N   1      26.445  17.645   4.892  0.00  0.00     0.231 A 
HETATM   24  O   UNK N   1      26.316  16.470   5.198  0.00  0.00    -0.273 OA
ENDBRANCH   1  18
TORSDOF 8
ENDMDL
MODEL 3
REMARK VINA RESULT:      -6.5      6.705     11.428
REMARK  8 active torsions:
REMARK  status: ('A' for Active; 'I' for Inactive)
REMARK    1  A    between atoms: C_1  and  N_12 
REMARK    2  A    between atoms: C_4  and  N_13 
REMARK    3  A    between atoms: C_7  and  C_8 
REMARK    4  A    between atoms: C_7  and  N_13 
REMARK    5  A    between atoms: C_7  and  O_16 
REMARK    6  A    between atoms: C_8  and  C_9 
REMARK    7  A    between atoms: C_9  and  C_10 
REMARK    8  A    between atoms: C_10  and  O_17 
ROOT
HETATM    1  C   UNK N   1      35.770  12.576  14.909  0.00  0.00     0.045 A 
HETATM    2  C   UNK N   1      35.033  12.058  13.833  0.00  0.00     0.032 A 
HETATM    3  C   UNK N   1      34.953  12.740  12.621  0.00  0.00     0.031 A 
HETATM    4  C   UNK N   1      35.612  13.961  12.448  0.00  0.00     0.029 A 
HETATM    5  C   UNK N   1      36.371  14.481  13.504  0.00  0.00     0.031 A 
HETATM    6  C   UNK N   1      36.442  13.800  14.726  0.00  0.00     0.032 A 
ENDROOT
BRANCH   4   7
HETATM    7  N   UNK N   1      35.546  14.677  11.217  0.00  0.00    -0.364 N 
HETATM    8  H   UNK N   1      36.268  14.515  10.569  0.00  0.00     0.162 HD
BRANCH   7   9
HETATM    9  C   UNK N   1      34.510  15.623  10.828  0.00  0.00     0.218 C 
BRANCH   9  10
HETATM   10  C   UNK N   1      34.742  16.073   9.389  0.00  0.00     0.064 C 
BRANCH  10  11
HETATM   11  C   UNK N   1      33.889  17.286   9.007  0.00  0.00     0.114 C 
BRANCH  11  12
HETATM   12  C   UNK N   1      34.583  18.254   8.089  0.00  0.00     0.139 C 
HETATM   13  O   UNK N   1      35.248  19.177   8.534  0.00  0.00    -0.650 OA
BRANCH  12  14
HETATM   14  O   UNK N   1      34.483  18.089   6.757  0.00  0.00    -0.776 OA
HETATM   15  H   UNK N   1      34.968  17.422   6.312  0.00  0.00     0.167 HD
ENDBRANCH  12  14
ENDBRANCH  11  12
ENDBRANCH  10  11
ENDBRANCH   9  10
BRANCH   9  16
HETATM   16  O   UNK N   1      33.228  15.081  10.956  0.00  0.00    -0.377 OA
HETATM   17  H   UNK N   1      32.550  15.278  11.621  0.00  0.00     0.212 HD
ENDBRANCH   9  16
ENDBRANCH   7   9
ENDBRANCH   4   7
BRANCH   1  18
HETATM   18  N   UNK N   1      35.833  11.863  16.164  0.00  0.00    -0.252 N 
HETATM   19  C   UNK N   1      36.473  10.696  16.365  0.00  0.00     0.231 A 
HETATM   20  O   UNK N   1      37.088  10.099  15.494  0.00  0.00    -0.273 OA
HETATM   21  C   UNK N   1      36.366  10.198  17.770  0.00  0.00     0.113 A 
HETATM   22  C   UNK N   1      35.510  11.297  18.446  0.00  0.00     0.113 A 
HETATM   23  C   UNK N   1      35.264  12.251  17.319  0.00  0.00     0.231 A 
HETATM   24  O   UNK N   1      34.605  13.272  17.443  0.00  0.00    -0.273 OA
ENDBRANCH   1  18
TORSDOF 8
ENDMDL
MODEL 4
REMARK VINA RESULT:      -6.3      3.303      5.098
REMARK  8 active torsions:
REMARK  status: ('A' for Active; 'I' for Inactive)
REMARK    1  A    between atoms: C_1  and  N_12 
REMARK    2  A    between atoms: C_4  and  N_13 
REMARK    3  A    between atoms: C_7  and  C_8 
REMARK    4  A    between atoms: C_7  and  N_13 
REMARK    5  A    between atoms: C_7  and  O_16 
REMARK    6  A    between atoms: C_8  and  C_9 
REMARK    7  A    between atoms: C_9  and  C_10 
REMARK    8  A    between atoms: C_10  and  O_17 
ROOT
HETATM    1  C   UNK N   1      31.539  17.202   8.373  0.00  0.00     0.045 A 
HETATM    2  C   UNK N   1      32.684  17.995   8.202  0.00  0.00     0.032 A 
HETATM    3  C   UNK N   1      33.952  17.502   8.502  0.00  0.00     0.031 A 
HETATM    4  C   UNK N   1      34.112  16.198   8.983  0.00  0.00     0.029 A 
HETATM    5  C   UNK N   1      32.982  15.386   9.139  0.00  0.00     0.031 A 
HETATM    6  C   UNK N   1      31.706  15.886   8.845  0.00  0.00     0.032 A 
ENDROOT
BRANCH   4   7
HETATM    7  N   UNK N   1      35.399  15.672   9.297  0.00  0.00    -0.364 N 
HETATM    8  H   UNK N   1      36.001  15.488   8.540  0.00  0.00     0.162 HD
BRANCH   7   9
HETATM    9  C   UNK N   1      35.906  15.381  10.630  0.00  0.00     0.218 C 
BRANCH   9  10
HETATM   10  C   UNK N   1      36.074  13.874  10.797  0.00  0.00     0.064 C 
BRANCH  10  11
HETATM   11  C   UNK N   1      36.808  13.502  12.088  0.00  0.00     0.114 C 
BRANCH  11  12
HETATM   12  C   UNK N   1      36.156  14.034  13.335  0.00  0.00     0.139 C 
HETATM   13  O   UNK N   1      35.028  13.691  13.650  0.00  0.00    -0.650 OA
BRANCH  12  14
HETATM   14  O   UNK N   1      36.835  14.889  14.121  0.00  0.00    -0.776 OA
HETATM   15  H   UNK N   1      37.009  15.768  13.848  0.00  0.00     0.167 HD
ENDBRANCH  12  14
ENDBRANCH  11  12
ENDBRANCH  10  11
ENDBRANCH   9  10
BRANCH   9  16
HETATM   16  O   UNK N   1      37.120  16.025  10.882  0.00  0.00    -0.377 OA
HETATM   17  H   UNK N   1      37.631  16.056  11.706  0.00  0.00     0.212 HD
ENDBRANCH   9  16
ENDBRANCH   7   9
ENDBRANCH   4   7
BRANCH   1  18
HETATM   18  N   UNK N   1      30.230  17.731   8.069  0.00  0.00    -0.252 N 
HETATM   19  C   UNK N   1      29.476  18.471   8.904  0.00  0.00     0.231 A 
HETATM   20  O   UNK N   1      29.823  18.787  10.032  0.00  0.00    -0.273 OA
HETATM   21  C   UNK N   1      28.166  18.879   8.312  0.00  0.00     0.113 A 
HETATM   22  C   UNK N   1      28.226  18.240   6.904  0.00  0.00     0.113 A 
HETATM   23  C   UNK N   1      29.563  17.567   6.912  0.00  0.00     0.231 A 
HETATM   24  O   UNK N   1      29.994  16.930   5.964  0.00  0.00    -0.273 OA
ENDBRANCH   1  18
TORSDOF 8
ENDMDL
MODEL 5
REMARK VINA RESULT:      -6.3      4.540      9.757
REMARK  8 active torsions:
REMARK  status: ('A' for Active; 'I' for Inactive)
REMARK    1  A    between atoms: C_1  and  N_12 
REMARK    2  A    between atoms: C_4  and  N_13 
REMARK    3  A    between atoms: C_7  and  C_8 
REMARK    4  A    between atoms: C_7  and  N_13 
REMARK    5  A    between atoms: C_7  and  O_16 
REMARK    6  A    between atoms: C_8  and  C_9 
REMARK    7  A    between atoms: C_9  and  C_10 
REMARK    8  A    between atoms: C_10  and  O_17 
ROOT
HETATM    1  C   UNK N   1      35.655  14.201  11.805  0.00  0.00     0.045 A 
HETATM    2  C   UNK N   1      34.670  13.910  10.849  0.00  0.00     0.032 A 
HETATM    3  C   UNK N   1      34.110  14.916  10.065  0.00  0.00     0.031 A 
HETATM    4  C   UNK N   1      34.521  16.245  10.213  0.00  0.00     0.029 A 
HETATM    5  C   UNK N   1      35.519  16.549  11.147  0.00  0.00     0.031 A 
HETATM    6  C   UNK N   1      36.075  15.538  11.943  0.00  0.00     0.032 A 
ENDROOT
BRANCH   4   7
HETATM    7  N   UNK N   1      33.963  17.291   9.422  0.00  0.00    -0.364 N 
HETATM    8  H   UNK N   1      33.120  17.687   9.739  0.00  0.00     0.162 HD
BRANCH   7   9
HETATM    9  C   UNK N   1      34.522  17.828   8.190  0.00  0.00     0.218 C 
BRANCH   9  10
HETATM   10  C   UNK N   1      33.448  17.851   7.107  0.00  0.00     0.064 C 
BRANCH  10  11
HETATM   11  C   UNK N   1      32.328  16.840   7.366  0.00  0.00     0.114 C 
BRANCH  11  12
HETATM   12  C   UNK N   1      31.064  17.455   7.900  0.00  0.00     0.139 C 
HETATM   13  O   UNK N   1      30.068  17.554   7.201  0.00  0.00    -0.650 OA
BRANCH  12  14
HETATM   14  O   UNK N   1      31.028  17.888   9.174  0.00  0.00    -0.776 OA
HETATM   15  H   UNK N   1      30.261  18.293   9.528  0.00  0.00     0.167 HD
ENDBRANCH  12  14
ENDBRANCH  11  12
ENDBRANCH  10  11
ENDBRANCH   9  10
BRANCH   9  16
HETATM   16  O   UNK N   1      35.047  19.111   8.367  0.00  0.00    -0.377 OA
HETATM   17  H   UNK N   1      35.904  19.369   8.741  0.00  0.00     0.212 HD
ENDBRANCH   9  16
ENDBRANCH   7   9
ENDBRANCH   4   7
BRANCH   1  18
HETATM   18  N   UNK N   1      36.217  13.149  12.620  0.00  0.00    -0.252 N 
HETATM   19  C   UNK N   1      35.728  12.737  13.805  0.00  0.00     0.231 A 
HETATM   20  O   UNK N   1      34.732  13.210  14.331  0.00  0.00    -0.273 OA
HETATM   21  C   UNK N   1      36.521  11.627  14.417  0.00  0.00     0.113 A 
HETATM   22  C   UNK N   1      37.642  11.406  13.372  0.00  0.00     0.113 A 
HETATM   23  C   UNK N   1      37.311  12.424  12.326  0.00  0.00     0.231 A 
HETATM   24  O   UNK N   1      37.977  12.580  11.315  0.00  0.00    -0.273 OA
ENDBRANCH   1  18
TORSDOF 8
ENDMDL
MODEL 6
REMARK VINA RESULT:      -6.2      8.924     11.456
REMARK  8 active torsions:
REMARK  status: ('A' for Active; 'I' for Inactive)
REMARK    1  A    between atoms: C_1  and  N_12 
REMARK    2  A    between atoms: C_4  and  N_13 
REMARK    3  A    between atoms: C_7  and  C_8 
REMARK    4  A    between atoms: C_7  and  N_13 
REMARK    5  A    between atoms: C_7  and  O_16 
REMARK    6  A    between atoms: C_8  and  C_9 
REMARK    7  A    between atoms: C_9  and  C_10 
REMARK    8  A    between atoms: C_10  and  O_17 
ROOT
HETATM    1  C   UNK N   1      21.482  14.026   7.713  0.00  0.00     0.045 A 
HETATM    2  C   UNK N   1      20.717  13.531   6.646  0.00  0.00     0.032 A 
HETATM    3  C   UNK N   1      20.552  14.269   5.476  0.00  0.00     0.031 A 
HETATM    4  C   UNK N   1      21.149  15.527   5.338  0.00  0.00     0.029 A 
HETATM    5  C   UNK N   1      21.935  16.025   6.385  0.00  0.00     0.031 A 
HETATM    6  C   UNK N   1      22.093  15.287   7.565  0.00  0.00     0.032 A 
ENDROOT
BRANCH   4   7
HETATM    7  N   UNK N   1      20.995  16.299   4.151  0.00  0.00    -0.364 N 
HETATM    8  H   UNK N   1      21.399  15.940   3.329  0.00  0.00     0.162 HD
BRANCH   7   9
HETATM    9  C   UNK N   1      20.294  17.571   4.039  0.00  0.00     0.218 C 
BRANCH   9  10
HETATM   10  C   UNK N   1      21.147  18.558   3.249  0.00  0.00     0.064 C 
BRANCH  10  11
HETATM   11  C   UNK N   1      20.315  19.442   2.316  0.00  0.00     0.114 C 
BRANCH  11  12
HETATM   12  C   UNK N   1      21.056  20.639   1.789  0.00  0.00     0.139 C 
HETATM   13  O   UNK N   1      21.276  20.768   0.595  0.00  0.00    -0.650 OA
BRANCH  12  14
HETATM   14  O   UNK N   1      21.468  21.591   2.647  0.00  0.00    -0.776 OA
HETATM   15  H   UNK N   1      22.075  22.254   2.383  0.00  0.00     0.167 HD
ENDBRANCH  12  14
ENDBRANCH  11  12
ENDBRANCH  10  11
ENDBRANCH   9  10
BRANCH   9  16
HETATM   16  O   UNK N   1      19.044  17.429   3.430  0.00  0.00    -0.377 OA
HETATM   17  H   UNK N   1      18.577  16.615   3.187  0.00  0.00     0.212 HD
ENDBRANCH   9  16
ENDBRANCH   7   9
ENDBRANCH   4   7
BRANCH   1  18
HETATM   18  N   UNK N   1      21.635  13.254   8.924  0.00  0.00    -0.252 N 
HETATM   19  C   UNK N   1      22.685  12.464   9.217  0.00  0.00     0.231 A 
HETATM   20  O   UNK N   1      23.647  12.312   8.480  0.00  0.00    -0.273 OA
HETATM   21  C   UNK N   1      22.565  11.791  10.546  0.00  0.00     0.113 A 
HETATM   22  C   UNK N   1      21.200  12.312  11.059  0.00  0.00     0.113 A 
HETATM   23  C   UNK N   1      20.756  13.204   9.941  0.00  0.00     0.231 A 
HETATM   24  O   UNK N   1      19.698  13.813   9.956  0.00  0.00    -0.273 OA
ENDBRANCH   1  18
TORSDOF 8
ENDMDL
MODEL 7
REMARK VINA RESULT:      -6.1      3.448      5.027
REMARK  8 active torsions:
REMARK  status: ('A' for Active; 'I' for Inactive)
REMARK    1  A    between atoms: C_1  and  N_12 
REMARK    2  A    between atoms: C_4  and  N_13 
REMARK    3  A    between atoms: C_7  and  C_8 
REMARK    4  A    between atoms: C_7  and  N_13 
REMARK    5  A    between atoms: C_7  and  O_16 
REMARK    6  A    between atoms: C_8  and  C_9 
REMARK    7  A    between atoms: C_9  and  C_10 
REMARK    8  A    between atoms: C_10  and  O_17 
ROOT
HETATM    1  C   UNK N   1      31.499  17.225   8.398  0.00  0.00     0.045 A 
HETATM    2  C   UNK N   1      31.634  15.922   8.900  0.00  0.00     0.032 A 
HETATM    3  C   UNK N   1      32.884  15.401   9.224  0.00  0.00     0.031 A 
HETATM    4  C   UNK N   1      34.040  16.172   9.058  0.00  0.00     0.029 A 
HETATM    5  C   UNK N   1      33.921  17.482   8.579  0.00  0.00     0.031 A 
HETATM    6  C   UNK N   1      32.664  18.002   8.243  0.00  0.00     0.032 A 
ENDROOT
BRANCH   4   7
HETATM    7  N   UNK N   1      35.330  15.661   9.383  0.00  0.00    -0.364 N 
HETATM    8  H   UNK N   1      35.902  15.384   8.632  0.00  0.00     0.162 HD
BRANCH   7   9
HETATM    9  C   UNK N   1      35.882  15.512  10.722  0.00  0.00     0.218 C 
BRANCH   9  10
HETATM   10  C   UNK N   1      35.873  14.040  11.119  0.00  0.00     0.064 C 
BRANCH  10  11
HETATM   11  C   UNK N   1      35.383  13.819  12.553  0.00  0.00     0.114 C 
BRANCH  11  12
HETATM   12  C   UNK N   1      36.471  13.903  13.589  0.00  0.00     0.139 C 
HETATM   13  O   UNK N   1      36.635  14.917  14.248  0.00  0.00    -0.650 OA
BRANCH  12  14
HETATM   14  O   UNK N   1      37.265  12.837  13.800  0.00  0.00    -0.776 OA
HETATM   15  H   UNK N   1      37.994  12.883  14.387  0.00  0.00     0.167 HD
ENDBRANCH  12  14
ENDBRANCH  11  12
ENDBRANCH  10  11
ENDBRANCH   9  10
BRANCH   9  16
HETATM   16  O   UNK N   1      37.180  16.023  10.815  0.00  0.00    -0.377 OA
HETATM   17  H   UNK N   1      38.023  15.558  10.701  0.00  0.00     0.212 HD
ENDBRANCH   9  16
ENDBRANCH   7   9
ENDBRANCH   4   7
BRANCH   1  18
HETATM   18  N   UNK N   1      30.197  17.747   8.054  0.00  0.00    -0.252 N 
HETATM   19  C   UNK N   1      29.585  17.590   6.864  0.00  0.00     0.231 A 
HETATM   20  O   UNK N   1      30.070  16.974   5.927  0.00  0.00    -0.273 OA
HETATM   21  C   UNK N   1      28.241  18.240   6.802  0.00  0.00     0.113 A 
HETATM   22  C   UNK N   1      28.108  18.862   8.213  0.00  0.00     0.113 A 
HETATM   23  C   UNK N   1      29.398  18.467   8.861  0.00  0.00     0.231 A 
HETATM   24  O   UNK N   1      29.691  18.778  10.005  0.00  0.00    -0.273 OA
ENDBRANCH   1  18
TORSDOF 8
ENDMDL
MODEL 8
REMARK VINA RESULT:      -6.1      4.555      9.739
REMARK  8 active torsions:
REMARK  status: ('A' for Active; 'I' for Inactive)
REMARK    1  A    between atoms: C_1  and  N_12 
REMARK    2  A    between atoms: C_4  and  N_13 
REMARK    3  A    between atoms: C_7  and  C_8 
REMARK    4  A    between atoms: C_7  and  N_13 
REMARK    5  A    between atoms: C_7  and  O_16 
REMARK    6  A    between atoms: C_8  and  C_9 
REMARK    7  A    between atoms: C_9  and  C_10 
REMARK    8  A    between atoms: C_10  and  O_17 
ROOT
HETATM    1  C   UNK N   1      35.615  14.115  11.796  0.00  0.00     0.045 A 
HETATM    2  C   UNK N   1      36.029  15.438  12.013  0.00  0.00     0.032 A 
HETATM    3  C   UNK N   1      35.513  16.486  11.255  0.00  0.00     0.031 A 
HETATM    4  C   UNK N   1      34.565  16.242  10.255  0.00  0.00     0.029 A 
HETATM    5  C   UNK N   1      34.125  14.930  10.041  0.00  0.00     0.031 A 
HETATM    6  C   UNK N   1      34.651  13.875  10.798  0.00  0.00     0.032 A 
ENDROOT
BRANCH   4   7
HETATM    7  N   UNK N   1      34.023  17.298   9.467  0.00  0.00    -0.364 N 
HETATM    8  H   UNK N   1      33.180  17.698   9.778  0.00  0.00     0.162 HD
BRANCH   7   9
HETATM    9  C   UNK N   1      34.600  17.842   8.246  0.00  0.00     0.218 C 
BRANCH   9  10
HETATM   10  C   UNK N   1      33.514  17.983   7.185  0.00  0.00     0.064 C 
BRANCH  10  11
HETATM   11  C   UNK N   1      32.464  16.872   7.265  0.00  0.00     0.114 C 
BRANCH  11  12
HETATM   12  C   UNK N   1      31.129  17.331   7.785  0.00  0.00     0.139 C 
HETATM   13  O   UNK N   1      31.050  18.044   8.773  0.00  0.00    -0.650 OA
BRANCH  12  14
HETATM   14  O   UNK N   1      30.008  16.963   7.139  0.00  0.00    -0.776 OA
HETATM   15  H   UNK N   1      29.166  17.273   7.410  0.00  0.00     0.167 HD
ENDBRANCH  12  14
ENDBRANCH  11  12
ENDBRANCH  10  11
ENDBRANCH   9  10
BRANCH   9  16
HETATM   16  O   UNK N   1      35.218  19.077   8.462  0.00  0.00    -0.377 OA
HETATM   17  H   UNK N   1      35.052  19.924   8.019  0.00  0.00     0.212 HD
ENDBRANCH   9  16
ENDBRANCH   7   9
ENDBRANCH   4   7
BRANCH   1  18
HETATM   18  N   UNK N   1      36.168  13.036  12.582  0.00  0.00    -0.252 N 
HETATM   19  C   UNK N   1      37.300  12.366  12.296  0.00  0.00     0.231 A 
HETATM   20  O   UNK N   1      38.003  12.602  11.325  0.00  0.00    -0.273 OA
HETATM   21  C   UNK N   1      37.624  11.302  13.295  0.00  0.00     0.113 A 
HETATM   22  C   UNK N   1      36.450  11.420  14.297  0.00  0.00     0.113 A 
HETATM   23  C   UNK N   1      35.640  12.536  13.714  0.00  0.00     0.231 A 
HETATM   24  O   UNK N   1      34.604  12.939  14.217  0.00  0.00    -0.273 OA
ENDBRANCH   1  18
TORSDOF 8
ENDMDL
MODEL 9
REMARK VINA RESULT:      -6.1      7.752     12.039
REMARK  8 active torsions:
REMARK  status: ('A' for Active; 'I' for Inactive)
REMARK    1  A    between atoms: C_1  and  N_12 
REMARK    2  A    between atoms: C_4  and  N_13 
REMARK    3  A    between atoms: C_7  and  C_8 
REMARK    4  A    between atoms: C_7  and  N_13 
REMARK    5  A    between atoms: C_7  and  O_16 
REMARK    6  A    between atoms: C_8  and  C_9 
REMARK    7  A    between atoms: C_9  and  C_10 
REMARK    8  A    between atoms: C_10  and  O_17 
ROOT
HETATM    1  C   UNK N   1      35.586  12.357  15.941  0.00  0.00     0.045 A 
HETATM    2  C   UNK N   1      34.504  12.086  15.089  0.00  0.00     0.032 A 
HETATM    3  C   UNK N   1      34.595  12.311  13.717  0.00  0.00     0.031 A 
HETATM    4  C   UNK N   1      35.774  12.813  13.155  0.00  0.00     0.029 A 
HETATM    5  C   UNK N   1      36.870  13.068  13.988  0.00  0.00     0.031 A 
HETATM    6  C   UNK N   1      36.775  12.851  15.369  0.00  0.00     0.032 A 
ENDROOT
BRANCH   4   7
HETATM    7  N   UNK N   1      35.890  13.050  11.755  0.00  0.00    -0.364 N 
HETATM    8  H   UNK N   1      36.763  13.367  11.428  0.00  0.00     0.162 HD
BRANCH   7   9
HETATM    9  C   UNK N   1      34.841  12.869  10.763  0.00  0.00     0.218 C 
BRANCH   9  10
HETATM   10  C   UNK N   1      34.638  14.167   9.988  0.00  0.00     0.064 C 
BRANCH  10  11
HETATM   11  C   UNK N   1      34.577  15.394  10.901  0.00  0.00     0.114 C 
BRANCH  11  12
HETATM   12  C   UNK N   1      35.723  16.350  10.713  0.00  0.00     0.139 C 
HETATM   13  O   UNK N   1      35.532  17.498  10.345  0.00  0.00    -0.650 OA
BRANCH  12  14
HETATM   14  O   UNK N   1      36.977  15.936  10.973  0.00  0.00    -0.776 OA
HETATM   15  H   UNK N   1      37.647  16.541  11.222  0.00  0.00     0.167 HD
ENDBRANCH  12  14
ENDBRANCH  11  12
ENDBRANCH  10  11
ENDBRANCH   9  10
BRANCH   9  16
HETATM   16  O   UNK N   1      35.129  11.826   9.878  0.00  0.00    -0.377 OA
HETATM   17  H   UNK N   1      34.573  11.073   9.626  0.00  0.00     0.212 HD
ENDBRANCH   9  16
ENDBRANCH   7   9
ENDBRANCH   4   7
BRANCH   1  18
HETATM   18  N   UNK N   1      35.473  12.131  17.363  0.00  0.00    -0.252 N 
HETATM   19  C   UNK N   1      35.586  10.936  17.972  0.00  0.00     0.231 A 
HETATM   20  O   UNK N   1      35.807   9.890  17.381  0.00  0.00    -0.273 OA
HETATM   21  C   UNK N   1      35.424  11.012  19.456  0.00  0.00     0.113 A 
HETATM   22  C   UNK N   1      35.175  12.522  19.685  0.00  0.00     0.113 A 
HETATM   23  C   UNK N   1      35.236  13.073  18.294  0.00  0.00     0.231 A 
HETATM   24  O   UNK N   1      35.078  14.256  18.038  0.00  0.00    -0.273 OA
ENDBRANCH   1  18
TORSDOF 8
ENDMDL
