REMARK  8 active torsions:
REMARK  status: ('A' for Active; 'I' for Inactive)
REMARK    1  A    between atoms: C_1  and  N_12 
REMARK    2  A    between atoms: C_4  and  N_13 
REMARK    3  A    between atoms: C_7  and  C_8 
REMARK    4  A    between atoms: C_7  and  N_13 
REMARK    5  A    between atoms: C_7  and  O_16 
REMARK    6  A    between atoms: C_8  and  C_9 
REMARK    7  A    between atoms: C_9  and  C_10 
REMARK    8  A    between atoms: C_10  and  O_17 
ROOT
HETATM    1  C   UNK N   1       2.361  -0.508  -0.064  0.00  0.00     0.045 A 
HETATM    2  C   UNK N   1       1.150  -1.214   0.000  0.00  0.00     0.032 A 
HETATM    3  C   UNK N   1      -0.073  -0.548  -0.028  0.00  0.00     0.031 A 
HETATM    4  C   UNK N   1      -0.121   0.847  -0.123  0.00  0.00     0.029 A 
HETATM    5  C   UNK N   1       1.078   1.565  -0.210  0.00  0.00     0.031 A 
HETATM    6  C   UNK N   1       2.308   0.895  -0.172  0.00  0.00     0.032 A 
ENDROOT
BRANCH   4   7
HETATM    7  N   UNK N   1      -1.360   1.550  -0.154  0.00  0.00    -0.364 N 
HETATM    8  H   UNK N   1      -1.340   2.473  -0.495  0.00  0.00     0.162 HD
BRANCH   7   9
HETATM    9  C   UNK N   1      -2.653   1.032   0.270  0.00  0.00     0.218 C 
BRANCH   9  10
HETATM   10  C   UNK N   1      -3.552   0.839  -0.947  0.00  0.00     0.064 C 
BRANCH  10  11
HETATM   11  C   UNK N   1      -4.951   0.341  -0.573  0.00  0.00     0.114 C 
BRANCH  11  12
HETATM   12  C   UNK N   1      -5.885   1.430  -0.122  0.00  0.00     0.139 C 
HETATM   13  O   UNK N   1      -5.500   2.583  -0.010  0.00  0.00    -0.650 OA
BRANCH  12  14
HETATM   14  O   UNK N   1      -7.169   1.129   0.146  0.00  0.00    -0.776 OA
HETATM   15  H   UNK N   1      -7.797   1.799   0.332  0.00  0.00     0.167 HD
ENDBRANCH  12  14
ENDBRANCH  11  12
ENDBRANCH  10  11
ENDBRANCH   9  10
BRANCH   9  16
HETATM   16  O   UNK N   1      -2.533  -0.172   0.969  0.00  0.00    -0.377 OA
HETATM   17  H   UNK N   1      -3.215  -0.662   1.454  0.00  0.00     0.212 HD
ENDBRANCH   9  16
ENDBRANCH   7   9
ENDBRANCH   4   7
BRANCH   1  18
HETATM   18  N   UNK N   1       3.622  -1.212  -0.021  0.00  0.00    -0.252 N 
HETATM   19  C   UNK N   1       3.765  -2.550   0.021  0.00  0.00     0.231 A 
HETATM   20  O   UNK N   1       2.828  -3.334   0.022  0.00  0.00    -0.273 OA
HETATM   21  C   UNK N   1       5.193  -2.990   0.057  0.00  0.00     0.113 A 
HETATM   22  C   UNK N   1       5.955  -1.643   0.034  0.00  0.00     0.113 A 
HETATM   23  C   UNK N   1       4.841  -0.644  -0.014  0.00  0.00     0.231 A 
HETATM   24  O   UNK N   1       5.029   0.562  -0.036  0.00  0.00    -0.273 OA
ENDBRANCH   1  18
TORSDOF 8
