MODEL 1
REMARK VINA RESULT:      -8.0      0.000      0.000
REMARK  4 active torsions:
REMARK  status: ('A' for Active; 'I' for Inactive)
REMARK    1  A    between atoms: C_5  and  O_7 
REMARK    2  A    between atoms: O_7  and  C_8 
REMARK    3  A    between atoms: C_12  and  C_14 
REMARK    4  A    between atoms: C_14  and  C_17 
ROOT
HETATM    1  C   UNK N   1      20.510  16.193   7.663  0.00  0.00     0.136 A 
HETATM    2  C   UNK N   1      21.488  16.755   6.777  0.00  0.00     0.071 A 
HETATM    3  C   UNK N   1      22.636  16.023   6.476  0.00  0.00     0.027 A 
HETATM    4  C   UNK N   1      22.844  14.756   6.997  0.00  0.00     0.012 A 
HETATM    5  C   UNK N   1      21.916  14.175   7.852  0.00  0.00    -0.011 A 
HETATM    6  C   UNK N   1      20.756  14.906   8.198  0.00  0.00     0.158 A 
HETATM    7 Cl   UNK N   1      21.425  18.312   5.985  0.00  0.00    -0.081 Cl
HETATM    8  F   UNK N   1      19.839  14.382   9.048  0.00  0.00    -0.203 F 
ENDROOT
BRANCH   5   9
HETATM    9  C   UNK N   1      22.237  12.767   8.299  0.00  0.00     0.100 C 
BRANCH   9  10
HETATM   10  C   UNK N   1      22.667  12.468   9.703  0.00  0.00     0.030 A 
HETATM   11  C   UNK N   1      21.697  12.172  10.661  0.00  0.00     0.032 A 
HETATM   12  C   UNK N   1      22.077  12.005  11.991  0.00  0.00     0.077 A 
HETATM   13  C   UNK N   1      23.419  12.142  12.331  0.00  0.00     0.259 A 
HETATM   14  N   UNK N   1      24.335  12.445  11.359  0.00  0.00    -0.266 N 
HETATM   15  O   UNK N   1      23.776  11.997  13.485  0.00  0.00    -0.267 OA
HETATM   16  N   UNK N   1      23.963  12.624  10.089  0.00  0.00    -0.302 N 
HETATM   17  H   UNK N   1      25.286  12.535  11.601  0.00  0.00     0.190 HD
ATOM     18  HN  UNK N   1      24.664  12.882   9.394  1.00  0.00     0.186 HD
ENDBRANCH   9  10
ENDBRANCH   5   9
BRANCH   1  19
HETATM   19  O   UNK N   1      19.320  16.759   8.045  0.00  0.00    -0.306 OA
BRANCH  19  20
HETATM   20  C   UNK N   1      18.762  17.519   9.029  0.00  0.00     0.076 A 
HETATM   21  C   UNK N   1      17.485  17.313   9.551  0.00  0.00     0.037 A 
HETATM   22  C   UNK N   1      16.982  18.128  10.571  0.00  0.00     0.003 A 
HETATM   23  C   UNK N   1      17.762  19.164  11.083  0.00  0.00     0.000 A 
HETATM   24  C   UNK N   1      19.040  19.387  10.570  0.00  0.00     0.003 A 
HETATM   25  C   UNK N   1      19.534  18.569   9.548  0.00  0.00     0.037 A 
ENDBRANCH  19  20
ENDBRANCH   1  19
TORSDOF 4
ENDMDL
MODEL 2
REMARK VINA RESULT:      -7.4      8.397      9.912
REMARK  4 active torsions:
REMARK  status: ('A' for Active; 'I' for Inactive)
REMARK    1  A    between atoms: C_5  and  O_7 
REMARK    2  A    between atoms: O_7  and  C_8 
REMARK    3  A    between atoms: C_12  and  C_14 
REMARK    4  A    between atoms: C_14  and  C_17 
ROOT
HETATM    1  C   UNK N   1      27.996  18.394   6.001  0.00  0.00     0.136 A 
HETATM    2  C   UNK N   1      27.843  19.288   7.112  0.00  0.00     0.071 A 
HETATM    3  C   UNK N   1      28.678  19.150   8.219  0.00  0.00     0.027 A 
HETATM    4  C   UNK N   1      29.669  18.183   8.262  0.00  0.00     0.012 A 
HETATM    5  C   UNK N   1      29.853  17.303   7.203  0.00  0.00    -0.011 A 
HETATM    6  C   UNK N   1      29.001  17.401   6.079  0.00  0.00     0.158 A 
HETATM    7 Cl   UNK N   1      26.690  20.594   7.265  0.00  0.00    -0.081 Cl
HETATM    8  F   UNK N   1      29.135  16.545   5.035  0.00  0.00    -0.203 F 
ENDROOT
BRANCH   5   9
HETATM    9  C   UNK N   1      31.006  16.337   7.354  0.00  0.00     0.100 C 
BRANCH   9  10
HETATM   10  C   UNK N   1      32.226  16.688   8.150  0.00  0.00     0.030 A 
HETATM   11  C   UNK N   1      33.136  17.607   7.628  0.00  0.00     0.032 A 
HETATM   12  C   UNK N   1      34.326  17.854   8.308  0.00  0.00     0.077 A 
HETATM   13  C   UNK N   1      34.579  17.173   9.495  0.00  0.00     0.259 A 
HETATM   14  N   UNK N   1      33.661  16.270   9.964  0.00  0.00    -0.266 N 
HETATM   15  O   UNK N   1      35.610  17.375  10.109  0.00  0.00    -0.267 OA
HETATM   16  N   UNK N   1      32.531  16.023   9.298  0.00  0.00    -0.302 N 
HETATM   17  H   UNK N   1      33.840  15.794  10.808  0.00  0.00     0.190 HD
ATOM     18  HN  UNK N   1      31.884  15.320   9.656  1.00  0.00     0.186 HD
ENDBRANCH   9  10
ENDBRANCH   5   9
BRANCH   1  19
HETATM   19  O   UNK N   1      27.282  18.402   4.830  0.00  0.00    -0.306 OA
BRANCH  19  20
HETATM   20  C   UNK N   1      26.259  19.049   4.202  0.00  0.00     0.076 A 
HETATM   21  C   UNK N   1      24.913  18.713   4.346  0.00  0.00     0.037 A 
HETATM   22  C   UNK N   1      23.915  19.431   3.679  0.00  0.00     0.003 A 
HETATM   23  C   UNK N   1      24.260  20.503   2.856  0.00  0.00     0.000 A 
HETATM   24  C   UNK N   1      25.602  20.850   2.698  0.00  0.00     0.003 A 
HETATM   25  C   UNK N   1      26.593  20.124   3.367  0.00  0.00     0.037 A 
ENDBRANCH  19  20
ENDBRANCH   1  19
TORSDOF 4
ENDMDL
MODEL 3
REMARK VINA RESULT:      -7.4      9.877     11.283
REMARK  4 active torsions:
REMARK  status: ('A' for Active; 'I' for Inactive)
REMARK    1  A    between atoms: C_5  and  O_7 
REMARK    2  A    between atoms: O_7  and  C_8 
REMARK    3  A    between atoms: C_12  and  C_14 
REMARK    4  A    between atoms: C_14  and  C_17 
ROOT
HETATM    1  C   UNK N   1      31.043  17.360   5.825  0.00  0.00     0.136 A 
HETATM    2  C   UNK N   1      31.660  16.882   4.621  0.00  0.00     0.071 A 
HETATM    3  C   UNK N   1      33.046  16.745   4.573  0.00  0.00     0.027 A 
HETATM    4  C   UNK N   1      33.841  17.037   5.669  0.00  0.00     0.012 A 
HETATM    5  C   UNK N   1      33.280  17.495   6.855  0.00  0.00    -0.011 A 
HETATM    6  C   UNK N   1      31.879  17.672   6.923  0.00  0.00     0.158 A 
HETATM    7 Cl   UNK N   1      30.860  16.427   3.134  0.00  0.00    -0.081 Cl
HETATM    8  F   UNK N   1      31.297  18.139   8.056  0.00  0.00    -0.203 F 
ENDROOT
BRANCH   5   9
HETATM    9  C   UNK N   1      34.254  17.719   7.990  0.00  0.00     0.100 C 
BRANCH   9  10
HETATM   10  C   UNK N   1      34.412  16.720   9.096  0.00  0.00     0.030 A 
HETATM   11  C   UNK N   1      33.913  15.429   8.921  0.00  0.00     0.032 A 
HETATM   12  C   UNK N   1      33.955  14.530   9.984  0.00  0.00     0.077 A 
HETATM   13  C   UNK N   1      34.493  14.945  11.199  0.00  0.00     0.259 A 
HETATM   14  N   UNK N   1      34.960  16.226  11.328  0.00  0.00    -0.266 N 
HETATM   15  O   UNK N   1      34.543  14.176  12.140  0.00  0.00    -0.267 OA
HETATM   16  N   UNK N   1      34.900  17.090  10.312  0.00  0.00    -0.302 N 
HETATM   17  H   UNK N   1      35.347  16.515  12.187  0.00  0.00     0.190 HD
ATOM     18  HN  UNK N   1      35.225  18.048  10.450  1.00  0.00     0.186 HD
ENDBRANCH   9  10
ENDBRANCH   5   9
BRANCH   1  19
HETATM   19  O   UNK N   1      29.701  17.531   6.054  0.00  0.00    -0.306 OA
BRANCH  19  20
HETATM   20  C   UNK N   1      28.701  18.449   5.929  0.00  0.00     0.076 A 
HETATM   21  C   UNK N   1      28.142  19.149   6.997  0.00  0.00     0.037 A 
HETATM   22  C   UNK N   1      27.125  20.088   6.792  0.00  0.00     0.003 A 
HETATM   23  C   UNK N   1      26.656  20.335   5.502  0.00  0.00     0.000 A 
HETATM   24  C   UNK N   1      27.202  19.641   4.422  0.00  0.00     0.003 A 
HETATM   25  C   UNK N   1      28.217  18.702   4.638  0.00  0.00     0.037 A 
ENDBRANCH  19  20
ENDBRANCH   1  19
TORSDOF 4
ENDMDL
MODEL 4
REMARK VINA RESULT:      -7.0     12.913     16.063
REMARK  4 active torsions:
REMARK  status: ('A' for Active; 'I' for Inactive)
REMARK    1  A    between atoms: C_5  and  O_7 
REMARK    2  A    between atoms: O_7  and  C_8 
REMARK    3  A    between atoms: C_12  and  C_14 
REMARK    4  A    between atoms: C_14  and  C_17 
ROOT
HETATM    1  C   UNK N   1      36.523  13.077  12.885  0.00  0.00     0.136 A 
HETATM    2  C   UNK N   1      36.449  12.067  11.868  0.00  0.00     0.071 A 
HETATM    3  C   UNK N   1      36.111  12.434  10.566  0.00  0.00     0.027 A 
HETATM    4  C   UNK N   1      35.866  13.755  10.226  0.00  0.00     0.012 A 
HETATM    5  C   UNK N   1      35.935  14.761  11.182  0.00  0.00    -0.011 A 
HETATM    6  C   UNK N   1      36.247  14.415  12.516  0.00  0.00     0.158 A 
HETATM    7 Cl   UNK N   1      36.744  10.355  12.057  0.00  0.00    -0.081 Cl
HETATM    8  F   UNK N   1      36.300  15.367  13.481  0.00  0.00    -0.203 F 
ENDROOT
BRANCH   5   9
HETATM    9  C   UNK N   1      35.704  16.164  10.665  0.00  0.00     0.100 C 
BRANCH   9  10
HETATM   10  C   UNK N   1      34.526  16.498   9.802  0.00  0.00     0.030 A 
HETATM   11  C   UNK N   1      34.632  17.545   8.885  0.00  0.00     0.032 A 
HETATM   12  C   UNK N   1      33.509  17.936   8.161  0.00  0.00     0.077 A 
HETATM   13  C   UNK N   1      32.304  17.272   8.372  0.00  0.00     0.259 A 
HETATM   14  N   UNK N   1      32.244  16.258   9.292  0.00  0.00    -0.266 N 
HETATM   15  O   UNK N   1      31.310  17.593   7.749  0.00  0.00    -0.267 OA
HETATM   16  N   UNK N   1      33.319  15.900   9.998  0.00  0.00    -0.302 N 
HETATM   17  H   UNK N   1      31.392  15.784   9.435  0.00  0.00     0.190 HD
ATOM     18  HN  UNK N   1      33.234  15.164  10.699  1.00  0.00     0.186 HD
ENDBRANCH   9  10
ENDBRANCH   5   9
BRANCH   1  19
HETATM   19  O   UNK N   1      36.861  12.898  14.202  0.00  0.00    -0.306 OA
BRANCH  19  20
HETATM   20  C   UNK N   1      36.339  12.512  15.400  0.00  0.00     0.076 A 
HETATM   21  C   UNK N   1      35.572  13.336  16.224  0.00  0.00     0.037 A 
HETATM   22  C   UNK N   1      35.057  12.866  17.437  0.00  0.00     0.003 A 
HETATM   23  C   UNK N   1      35.308  11.554  17.838  0.00  0.00     0.000 A 
HETATM   24  C   UNK N   1      36.076  10.718  17.028  0.00  0.00     0.003 A 
HETATM   25  C   UNK N   1      36.589  11.197  15.819  0.00  0.00     0.037 A 
ENDBRANCH  19  20
ENDBRANCH   1  19
TORSDOF 4
ENDMDL
MODEL 5
REMARK VINA RESULT:      -7.0      4.136      7.206
REMARK  4 active torsions:
REMARK  status: ('A' for Active; 'I' for Inactive)
REMARK    1  A    between atoms: C_5  and  O_7 
REMARK    2  A    between atoms: O_7  and  C_8 
REMARK    3  A    between atoms: C_12  and  C_14 
REMARK    4  A    between atoms: C_14  and  C_17 
ROOT
HETATM    1  C   UNK N   1      21.869  15.263   7.392  0.00  0.00     0.136 A 
HETATM    2  C   UNK N   1      20.820  16.155   7.795  0.00  0.00     0.071 A 
HETATM    3  C   UNK N   1      20.697  17.392   7.165  0.00  0.00     0.027 A 
HETATM    4  C   UNK N   1      21.552  17.772   6.142  0.00  0.00     0.012 A 
HETATM    5  C   UNK N   1      22.575  16.932   5.720  0.00  0.00    -0.011 A 
HETATM    6  C   UNK N   1      22.741  15.683   6.361  0.00  0.00     0.158 A 
HETATM    7 Cl   UNK N   1      19.616  15.879   9.031  0.00  0.00    -0.081 Cl
HETATM    8  F   UNK N   1      23.743  14.846   5.992  0.00  0.00    -0.203 F 
ENDROOT
BRANCH   5   9
HETATM    9  C   UNK N   1      23.397  17.443   4.557  0.00  0.00     0.100 C 
BRANCH   9  10
HETATM   10  C   UNK N   1      24.572  18.349   4.765  0.00  0.00     0.030 A 
HETATM   11  C   UNK N   1      24.709  19.479   3.959  0.00  0.00     0.032 A 
HETATM   12  C   UNK N   1      25.855  20.263   4.068  0.00  0.00     0.077 A 
HETATM   13  C   UNK N   1      26.840  19.895   4.980  0.00  0.00     0.259 A 
HETATM   14  N   UNK N   1      26.668  18.770   5.743  0.00  0.00    -0.266 N 
HETATM   15  O   UNK N   1      27.848  20.566   5.096  0.00  0.00    -0.267 OA
HETATM   16  N   UNK N   1      25.576  18.011   5.620  0.00  0.00    -0.302 N 
HETATM   17  H   UNK N   1      27.363  18.516   6.392  0.00  0.00     0.190 HD
ATOM     18  HN  UNK N   1      25.494  17.161   6.178  1.00  0.00     0.186 HD
ENDBRANCH   9  10
ENDBRANCH   5   9
BRANCH   1  19
HETATM   19  O   UNK N   1      22.119  14.007   7.884  0.00  0.00    -0.306 OA
BRANCH  19  20
HETATM   20  C   UNK N   1      22.380  13.343   9.045  0.00  0.00     0.076 A 
HETATM   21  C   UNK N   1      21.400  12.918   9.943  0.00  0.00     0.037 A 
HETATM   22  C   UNK N   1      21.742  12.229  11.112  0.00  0.00     0.003 A 
HETATM   23  C   UNK N   1      23.080  11.957  11.393  0.00  0.00     0.000 A 
HETATM   24  C   UNK N   1      24.073  12.378  10.508  0.00  0.00     0.003 A 
HETATM   25  C   UNK N   1      23.722  13.068   9.343  0.00  0.00     0.037 A 
ENDBRANCH  19  20
ENDBRANCH   1  19
TORSDOF 4
ENDMDL
MODEL 6
REMARK VINA RESULT:      -7.0      5.293      7.001
REMARK  4 active torsions:
REMARK  status: ('A' for Active; 'I' for Inactive)
REMARK    1  A    between atoms: C_5  and  O_7 
REMARK    2  A    between atoms: O_7  and  C_8 
REMARK    3  A    between atoms: C_12  and  C_14 
REMARK    4  A    between atoms: C_14  and  C_17 
ROOT
HETATM    1  C   UNK N   1      23.421  18.477   4.261  0.00  0.00     0.136 A 
HETATM    2  C   UNK N   1      23.034  19.575   3.424  0.00  0.00     0.071 A 
HETATM    3  C   UNK N   1      23.992  20.512   3.040  0.00  0.00     0.027 A 
HETATM    4  C   UNK N   1      25.316  20.394   3.431  0.00  0.00     0.012 A 
HETATM    5  C   UNK N   1      25.731  19.341   4.236  0.00  0.00    -0.011 A 
HETATM    6  C   UNK N   1      24.775  18.392   4.665  0.00  0.00     0.158 A 
HETATM    7 Cl   UNK N   1      21.439  19.907   2.788  0.00  0.00    -0.081 Cl
HETATM    8  F   UNK N   1      25.138  17.363   5.470  0.00  0.00    -0.203 F 
ENDROOT
BRANCH   5   9
HETATM    9  C   UNK N   1      27.212  19.300   4.539  0.00  0.00     0.100 C 
BRANCH   9  10
HETATM   10  C   UNK N   1      27.722  19.056   5.927  0.00  0.00     0.030 A 
HETATM   11  C   UNK N   1      28.690  18.073   6.132  0.00  0.00     0.032 A 
HETATM   12  C   UNK N   1      29.086  17.762   7.431  0.00  0.00     0.077 A 
HETATM   13  C   UNK N   1      28.501  18.441   8.495  0.00  0.00     0.259 A 
HETATM   14  N   UNK N   1      27.546  19.391   8.248  0.00  0.00    -0.266 N 
HETATM   15  O   UNK N   1      28.834  18.189   9.638  0.00  0.00    -0.267 OA
HETATM   16  N   UNK N   1      27.156  19.671   7.002  0.00  0.00    -0.302 N 
HETATM   17  H   UNK N   1      27.138  19.876   9.002  0.00  0.00     0.190 HD
ATOM     18  HN  UNK N   1      26.418  20.360   6.852  1.00  0.00     0.186 HD
ENDBRANCH   9  10
ENDBRANCH   5   9
BRANCH   1  19
HETATM   19  O   UNK N   1      22.620  17.459   4.711  0.00  0.00    -0.306 OA
BRANCH  19  20
HETATM   20  C   UNK N   1      22.016  16.988   5.838  0.00  0.00     0.076 A 
HETATM   21  C   UNK N   1      22.241  15.721   6.378  0.00  0.00     0.037 A 
HETATM   22  C   UNK N   1      21.594  15.310   7.548  0.00  0.00     0.003 A 
HETATM   23  C   UNK N   1      20.708  16.172   8.194  0.00  0.00     0.000 A 
HETATM   24  C   UNK N   1      20.468  17.440   7.665  0.00  0.00     0.003 A 
HETATM   25  C   UNK N   1      21.118  17.842   6.494  0.00  0.00     0.037 A 
ENDBRANCH  19  20
ENDBRANCH   1  19
TORSDOF 4
ENDMDL
MODEL 7
REMARK VINA RESULT:      -6.8     17.671     18.532
REMARK  4 active torsions:
REMARK  status: ('A' for Active; 'I' for Inactive)
REMARK    1  A    between atoms: C_5  and  O_7 
REMARK    2  A    between atoms: O_7  and  C_8 
REMARK    3  A    between atoms: C_12  and  C_14 
REMARK    4  A    between atoms: C_14  and  C_17 
ROOT
HETATM    1  C   UNK N   1      26.857  22.957  -6.401  0.00  0.00     0.136 A 
HETATM    2  C   UNK N   1      26.275  22.206  -7.476  0.00  0.00     0.071 A 
HETATM    3  C   UNK N   1      27.097  21.418  -8.281  0.00  0.00     0.027 A 
HETATM    4  C   UNK N   1      28.461  21.327  -8.053  0.00  0.00     0.012 A 
HETATM    5  C   UNK N   1      29.060  22.034  -7.018  0.00  0.00    -0.011 A 
HETATM    6  C   UNK N   1      28.255  22.864  -6.203  0.00  0.00     0.158 A 
HETATM    7 Cl   UNK N   1      24.588  22.145  -7.929  0.00  0.00    -0.081 Cl
HETATM    8  F   UNK N   1      28.808  23.587  -5.198  0.00  0.00    -0.203 F 
ENDROOT
BRANCH   5   9
HETATM    9  C   UNK N   1      30.543  21.798  -6.843  0.00  0.00     0.100 C 
BRANCH   9  10
HETATM   10  C   UNK N   1      31.170  21.716  -5.484  0.00  0.00     0.030 A 
HETATM   11  C   UNK N   1      32.276  22.516  -5.197  0.00  0.00     0.032 A 
HETATM   12  C   UNK N   1      32.932  22.364  -3.979  0.00  0.00     0.077 A 
HETATM   13  C   UNK N   1      32.469  21.412  -3.076  0.00  0.00     0.259 A 
HETATM   14  N   UNK N   1      31.386  20.639  -3.406  0.00  0.00    -0.266 N 
HETATM   15  O   UNK N   1      33.024  21.263  -2.004  0.00  0.00    -0.267 OA
HETATM   16  N   UNK N   1      30.772  20.776  -4.584  0.00  0.00    -0.302 N 
HETATM   17  H   UNK N   1      31.055  19.971  -2.762  0.00  0.00     0.190 HD
ATOM     18  HN  UNK N   1      29.990  20.162  -4.813  1.00  0.00     0.186 HD
ENDBRANCH   9  10
ENDBRANCH   5   9
BRANCH   1  19
HETATM   19  O   UNK N   1      26.199  23.759  -5.503  0.00  0.00    -0.306 OA
BRANCH  19  20
HETATM   20  C   UNK N   1      25.944  25.067  -5.220  0.00  0.00     0.076 A 
HETATM   21  C   UNK N   1      25.289  25.943  -6.086  0.00  0.00     0.037 A 
HETATM   22  C   UNK N   1      25.050  27.273  -5.723  0.00  0.00     0.003 A 
HETATM   23  C   UNK N   1      25.468  27.740  -4.477  0.00  0.00     0.000 A 
HETATM   24  C   UNK N   1      26.128  26.879  -3.601  0.00  0.00     0.003 A 
HETATM   25  C   UNK N   1      26.365  25.552  -3.974  0.00  0.00     0.037 A 
ENDBRANCH  19  20
ENDBRANCH   1  19
TORSDOF 4
ENDMDL
MODEL 8
REMARK VINA RESULT:      -6.8     14.382     16.689
REMARK  4 active torsions:
REMARK  status: ('A' for Active; 'I' for Inactive)
REMARK    1  A    between atoms: C_5  and  O_7 
REMARK    2  A    between atoms: O_7  and  C_8 
REMARK    3  A    between atoms: C_12  and  C_14 
REMARK    4  A    between atoms: C_14  and  C_17 
ROOT
HETATM    1  C   UNK N   1      35.966  10.693  14.581  0.00  0.00     0.136 A 
HETATM    2  C   UNK N   1      37.244  10.132  14.248  0.00  0.00     0.071 A 
HETATM    3  C   UNK N   1      37.717  10.240  12.941  0.00  0.00     0.027 A 
HETATM    4  C   UNK N   1      36.990  10.896  11.961  0.00  0.00     0.012 A 
HETATM    5  C   UNK N   1      35.753  11.458  12.246  0.00  0.00    -0.011 A 
HETATM    6  C   UNK N   1      35.235  11.338  13.557  0.00  0.00     0.158 A 
HETATM    7 Cl   UNK N   1      38.340   9.291  15.320  0.00  0.00    -0.081 Cl
HETATM    8  F   UNK N   1      34.019  11.854  13.867  0.00  0.00    -0.203 F 
ENDROOT
BRANCH   5   9
HETATM    9  C   UNK N   1      35.094  12.196  11.102  0.00  0.00     0.100 C 
BRANCH   9  10
HETATM   10  C   UNK N   1      35.195  13.685  10.967  0.00  0.00     0.030 A 
HETATM   11  C   UNK N   1      34.235  14.365  10.218  0.00  0.00     0.032 A 
HETATM   12  C   UNK N   1      34.384  15.731   9.993  0.00  0.00     0.077 A 
HETATM   13  C   UNK N   1      35.493  16.385  10.521  0.00  0.00     0.259 A 
HETATM   14  N   UNK N   1      36.417  15.674  11.240  0.00  0.00    -0.266 N 
HETATM   15  O   UNK N   1      35.643  17.579  10.341  0.00  0.00    -0.267 OA
HETATM   16  N   UNK N   1      36.280  14.360  11.436  0.00  0.00    -0.302 N 
HETATM   17  H   UNK N   1      37.198  16.141  11.619  0.00  0.00     0.190 HD
ATOM     18  HN  UNK N   1      37.002  13.853  11.947  1.00  0.00     0.186 HD
ENDBRANCH   9  10
ENDBRANCH   5   9
BRANCH   1  19
HETATM   19  O   UNK N   1      35.363  10.699  15.813  0.00  0.00    -0.306 OA
BRANCH  19  20
HETATM   20  C   UNK N   1      35.316  11.401  16.980  0.00  0.00     0.076 A 
HETATM   21  C   UNK N   1      35.423  10.827  18.246  0.00  0.00     0.037 A 
HETATM   22  C   UNK N   1      35.379  11.613  19.402  0.00  0.00     0.003 A 
HETATM   23  C   UNK N   1      35.226  12.996  19.298  0.00  0.00     0.000 A 
HETATM   24  C   UNK N   1      35.113  13.587  18.040  0.00  0.00     0.003 A 
HETATM   25  C   UNK N   1      35.156  12.792  16.890  0.00  0.00     0.037 A 
ENDBRANCH  19  20
ENDBRANCH   1  19
TORSDOF 4
ENDMDL
MODEL 9
REMARK VINA RESULT:      -6.7     17.889     20.011
REMARK  4 active torsions:
REMARK  status: ('A' for Active; 'I' for Inactive)
REMARK    1  A    between atoms: C_5  and  O_7 
REMARK    2  A    between atoms: O_7  and  C_8 
REMARK    3  A    between atoms: C_12  and  C_14 
REMARK    4  A    between atoms: C_14  and  C_17 
ROOT
HETATM    1  C   UNK N   1      27.579  23.678  -5.330  0.00  0.00     0.136 A 
HETATM    2  C   UNK N   1      27.393  23.144  -6.649  0.00  0.00     0.071 A 
HETATM    3  C   UNK N   1      26.481  23.755  -7.509  0.00  0.00     0.027 A 
HETATM    4  C   UNK N   1      25.766  24.879  -7.127  0.00  0.00     0.012 A 
HETATM    5  C   UNK N   1      25.925  25.428  -5.861  0.00  0.00    -0.011 A 
HETATM    6  C   UNK N   1      26.822  24.813  -4.958  0.00  0.00     0.158 A 
HETATM    7 Cl   UNK N   1      28.201  21.763  -7.353  0.00  0.00    -0.081 Cl
HETATM    8  F   UNK N   1      26.986  25.307  -3.705  0.00  0.00    -0.203 F 
ENDROOT
BRANCH   5   9
HETATM    9  C   UNK N   1      25.130  26.687  -5.595  0.00  0.00     0.100 C 
BRANCH   9  10
HETATM   10  C   UNK N   1      25.785  27.935  -5.084  0.00  0.00     0.030 A 
HETATM   11  C   UNK N   1      26.866  28.470  -5.784  0.00  0.00     0.032 A 
HETATM   12  C   UNK N   1      27.551  29.561  -5.256  0.00  0.00     0.077 A 
HETATM   13  C   UNK N   1      27.139  30.091  -4.037  0.00  0.00     0.259 A 
HETATM   14  N   UNK N   1      26.079  29.525  -3.378  0.00  0.00    -0.266 N 
HETATM   15  O   UNK N   1      27.719  31.046  -3.557  0.00  0.00    -0.267 OA
HETATM   16  N   UNK N   1      25.438  28.466  -3.880  0.00  0.00    -0.302 N 
HETATM   17  H   UNK N   1      25.785  29.906  -2.519  0.00  0.00     0.190 HD
ATOM     18  HN  UNK N   1      24.674  28.047  -3.349  1.00  0.00     0.186 HD
ENDBRANCH   9  10
ENDBRANCH   5   9
BRANCH   1  19
HETATM   19  O   UNK N   1      28.446  23.221  -4.370  0.00  0.00    -0.306 OA
BRANCH  19  20
HETATM   20  C   UNK N   1      29.754  22.891  -4.176  0.00  0.00     0.076 A 
HETATM   21  C   UNK N   1      30.201  21.994  -3.206  0.00  0.00     0.037 A 
HETATM   22  C   UNK N   1      31.561  21.693  -3.073  0.00  0.00     0.003 A 
HETATM   23  C   UNK N   1      32.493  22.294  -3.919  0.00  0.00     0.000 A 
HETATM   24  C   UNK N   1      32.063  23.196  -4.892  0.00  0.00     0.003 A 
HETATM   25  C   UNK N   1      30.702  23.493  -5.016  0.00  0.00     0.037 A 
ENDBRANCH  19  20
ENDBRANCH   1  19
TORSDOF 4
ENDMDL
