MODEL 1
REMARK VINA RESULT:      -7.0      0.000      0.000
REMARK  5 active torsions:
REMARK  status: ('A' for Active; 'I' for Inactive)
REMARK    1  A    between atoms: C_16  and  C_2 
REMARK    2  A    between atoms: C_4  and  O_9 
REMARK    3  A    between atoms: C_14  and  C_13 
REMARK    4  A    between atoms: C_22  and  C_23 
REMARK    5  A    between atoms: C_25  and  O_26 
ROOT
HETATM    1  C   UNK N   1      27.573  17.632   6.353  0.00  0.00     0.123 A 
HETATM    2  C   UNK N   1      26.015  18.067   4.945  0.00  0.00     0.072 A 
HETATM    3  N   UNK N   1      26.759  18.618   5.923  0.00  0.00    -0.339 N 
HETATM    4  N   UNK N   1      27.391  16.474   5.689  0.00  0.00    -0.339 N 
ATOM      5  HN  UNK N   1      27.881  15.592   5.836  1.00  0.00     0.167 HD
HETATM    6  C   UNK N   1      26.421  16.728   4.784  0.00  0.00     0.072 A 
HETATM    7  H   UNK N   1      26.718  19.543   6.254  0.00  0.00     0.167 HD
ENDROOT
BRANCH   2   8
HETATM    8  C   UNK N   1      24.954  18.851   4.251  0.00  0.00    -0.007 A 
HETATM    9  C   UNK N   1      23.609  18.475   4.387  0.00  0.00     0.016 A 
HETATM   10  C   UNK N   1      22.596  19.226   3.776  0.00  0.00     0.037 A 
HETATM   11  C   UNK N   1      22.916  20.351   3.006  0.00  0.00     0.068 A 
HETATM   12  C   UNK N   1      24.261  20.695   2.827  0.00  0.00     0.037 A 
HETATM   13  C   UNK N   1      25.259  19.945   3.439  0.00  0.00     0.016 A 
BRANCH  11  14
HETATM   14  O   UNK N   1      21.923  21.089   2.459  0.00  0.00    -0.356 OA
HETATM   15  C   UNK N   1      20.957  20.553   1.633  0.00  0.00     0.210 C 
ENDBRANCH  11  14
ENDBRANCH   2   8
BRANCH   6  16
HETATM   16  C   UNK N   1      25.982  15.698   3.800  0.00  0.00    -0.007 A 
HETATM   17  C   UNK N   1      25.973  15.959   2.428  0.00  0.00     0.016 A 
HETATM   18  C   UNK N   1      25.538  15.014   1.507  0.00  0.00     0.037 A 
HETATM   19  C   UNK N   1      25.112  13.756   1.945  0.00  0.00     0.068 A 
HETATM   20  C   UNK N   1      25.162  13.456   3.313  0.00  0.00     0.037 A 
HETATM   21  C   UNK N   1      25.601  14.419   4.235  0.00  0.00     0.016 A 
BRANCH  19  22
HETATM   22  O   UNK N   1      24.645  12.832   1.072  0.00  0.00    -0.356 OA
HETATM   23  C   UNK N   1      23.706  13.120   0.106  0.00  0.00     0.210 C 
ENDBRANCH  19  22
ENDBRANCH   6  16
BRANCH   1  24
HETATM   24  C   UNK N   1      28.560  17.817   7.425  0.00  0.00     0.049 A 
HETATM   25  C   UNK N   1      28.344  18.467   8.639  0.00  0.00     0.023 A 
HETATM   26  C   UNK N   1      29.501  18.490   9.468  0.00  0.00     0.009 A 
HETATM   27  C   UNK N   1      30.622  17.861   8.903  0.00  0.00     0.050 A 
HETATM   28  S   UNK N   1      30.132  17.307   7.416  0.00  0.00    -0.098 SA
ENDBRANCH   1  24
TORSDOF 5
ENDMDL
MODEL 2
REMARK VINA RESULT:      -6.9      0.110      5.049
REMARK  5 active torsions:
REMARK  status: ('A' for Active; 'I' for Inactive)
REMARK    1  A    between atoms: C_16  and  C_2 
REMARK    2  A    between atoms: C_4  and  O_9 
REMARK    3  A    between atoms: C_14  and  C_13 
REMARK    4  A    between atoms: C_22  and  C_23 
REMARK    5  A    between atoms: C_25  and  O_26 
ROOT
HETATM    1  C   UNK N   1      27.563  17.698   6.334  0.00  0.00     0.123 A 
HETATM    2  C   UNK N   1      26.423  16.794   4.758  0.00  0.00     0.072 A 
HETATM    3  N   UNK N   1      27.386  16.540   5.665  0.00  0.00    -0.339 N 
HETATM    4  N   UNK N   1      26.752  18.682   5.902  0.00  0.00    -0.339 N 
ATOM      5  HN  UNK N   1      26.705  19.641   6.247  1.00  0.00     0.167 HD
HETATM    6  C   UNK N   1      26.012  18.131   4.916  0.00  0.00     0.072 A 
HETATM    7  H   UNK N   1      27.859  15.689   5.810  0.00  0.00     0.167 HD
ENDROOT
BRANCH   2   8
HETATM    8  C   UNK N   1      25.983  15.749   3.790  0.00  0.00    -0.007 A 
HETATM    9  C   UNK N   1      25.556  14.498   4.263  0.00  0.00     0.016 A 
HETATM   10  C   UNK N   1      25.099  13.519   3.370  0.00  0.00     0.037 A 
HETATM   11  C   UNK N   1      25.080  13.772   1.992  0.00  0.00     0.068 A 
HETATM   12  C   UNK N   1      25.556  14.999   1.517  0.00  0.00     0.037 A 
HETATM   13  C   UNK N   1      26.006  15.965   2.411  0.00  0.00     0.016 A 
BRANCH  11  14
HETATM   14  O   UNK N   1      24.596  12.831   1.148  0.00  0.00    -0.356 OA
HETATM   15  C   UNK N   1      23.719  13.122   0.125  0.00  0.00     0.210 C 
ENDBRANCH  11  14
ENDBRANCH   2   8
BRANCH   6  16
HETATM   16  C   UNK N   1      24.935  18.898   4.227  0.00  0.00    -0.007 A 
HETATM   17  C   UNK N   1      23.592  18.531   4.342  0.00  0.00     0.016 A 
HETATM   18  C   UNK N   1      22.586  19.223   3.680  0.00  0.00     0.037 A 
HETATM   19  C   UNK N   1      22.904  20.330   2.887  0.00  0.00     0.068 A 
HETATM   20  C   UNK N   1      24.240  20.746   2.799  0.00  0.00     0.037 A 
HETATM   21  C   UNK N   1      25.249  20.038   3.471  0.00  0.00     0.016 A 
BRANCH  19  22
HETATM   22  O   UNK N   1      21.948  20.998   2.199  0.00  0.00    -0.356 OA
HETATM   23  C   UNK N   1      20.740  20.431   1.854  0.00  0.00     0.210 C 
ENDBRANCH  19  22
ENDBRANCH   6  16
BRANCH   1  24
HETATM   24  C   UNK N   1      28.534  17.852   7.424  0.00  0.00     0.049 A 
HETATM   25  C   UNK N   1      28.317  18.515   8.632  0.00  0.00     0.023 A 
HETATM   26  C   UNK N   1      29.457  18.500   9.484  0.00  0.00     0.009 A 
HETATM   27  C   UNK N   1      30.566  17.831   8.944  0.00  0.00     0.050 A 
HETATM   28  S   UNK N   1      30.087  17.288   7.449  0.00  0.00    -0.098 SA
ENDBRANCH   1  24
TORSDOF 5
ENDMDL
MODEL 3
REMARK VINA RESULT:      -6.8      7.137     10.277
REMARK  5 active torsions:
REMARK  status: ('A' for Active; 'I' for Inactive)
REMARK    1  A    between atoms: C_16  and  C_2 
REMARK    2  A    between atoms: C_4  and  O_9 
REMARK    3  A    between atoms: C_14  and  C_13 
REMARK    4  A    between atoms: C_22  and  C_23 
REMARK    5  A    between atoms: C_25  and  O_26 
ROOT
HETATM    1  C   UNK N   1      20.464  15.535   5.135  0.00  0.00     0.123 A 
HETATM    2  C   UNK N   1      20.694  15.009   7.201  0.00  0.00     0.072 A 
HETATM    3  N   UNK N   1      21.102  14.680   5.961  0.00  0.00    -0.339 N 
HETATM    4  N   UNK N   1      19.671  16.404   5.791  0.00  0.00    -0.339 N 
ATOM      5  HN  UNK N   1      19.089  17.137   5.386  1.00  0.00     0.167 HD
HETATM    6  C   UNK N   1      19.811  16.101   7.099  0.00  0.00     0.072 A 
HETATM    7  H   UNK N   1      21.733  13.967   5.710  0.00  0.00     0.167 HD
ENDROOT
BRANCH   2   8
HETATM    8  C   UNK N   1      21.159  14.243   8.393  0.00  0.00    -0.007 A 
HETATM    9  C   UNK N   1      20.256  13.946   9.425  0.00  0.00     0.016 A 
HETATM   10  C   UNK N   1      20.666  13.190  10.532  0.00  0.00     0.037 A 
HETATM   11  C   UNK N   1      21.988  12.739  10.630  0.00  0.00     0.068 A 
HETATM   12  C   UNK N   1      22.902  13.081   9.627  0.00  0.00     0.037 A 
HETATM   13  C   UNK N   1      22.486  13.829   8.532  0.00  0.00     0.016 A 
BRANCH  11  14
HETATM   14  O   UNK N   1      22.355  11.975  11.685  0.00  0.00    -0.356 OA
HETATM   15  C   UNK N   1      23.638  11.962  12.192  0.00  0.00     0.210 C 
ENDBRANCH  11  14
ENDBRANCH   2   8
BRANCH   6  16
HETATM   16  C   UNK N   1      19.134  16.899   8.162  0.00  0.00    -0.007 A 
HETATM   17  C   UNK N   1      19.806  17.911   8.851  0.00  0.00     0.016 A 
HETATM   18  C   UNK N   1      19.191  18.639   9.861  0.00  0.00     0.037 A 
HETATM   19  C   UNK N   1      17.860  18.377  10.201  0.00  0.00     0.068 A 
HETATM   20  C   UNK N   1      17.152  17.400   9.487  0.00  0.00     0.037 A 
HETATM   21  C   UNK N   1      17.784  16.669   8.468  0.00  0.00     0.016 A 
BRANCH  19  22
HETATM   22  O   UNK N   1      17.249  19.044  11.209  0.00  0.00    -0.356 OA
HETATM   23  C   UNK N   1      17.606  18.891  12.532  0.00  0.00     0.210 C 
ENDBRANCH  19  22
ENDBRANCH   6  16
BRANCH   1  24
HETATM   24  C   UNK N   1      20.635  15.518   3.677  0.00  0.00     0.049 A 
HETATM   25  C   UNK N   1      20.365  16.571   2.804  0.00  0.00     0.023 A 
HETATM   26  C   UNK N   1      20.625  16.242   1.443  0.00  0.00     0.009 A 
HETATM   27  C   UNK N   1      21.093  14.934   1.251  0.00  0.00     0.050 A 
HETATM   28  S   UNK N   1      21.168  14.249   2.762  0.00  0.00    -0.098 SA
ENDBRANCH   1  24
TORSDOF 5
ENDMDL
MODEL 4
REMARK VINA RESULT:      -6.8      4.270      7.380
REMARK  5 active torsions:
REMARK  status: ('A' for Active; 'I' for Inactive)
REMARK    1  A    between atoms: C_16  and  C_2 
REMARK    2  A    between atoms: C_4  and  O_9 
REMARK    3  A    between atoms: C_14  and  C_13 
REMARK    4  A    between atoms: C_22  and  C_23 
REMARK    5  A    between atoms: C_25  and  O_26 
ROOT
HETATM    1  C   UNK N   1      28.486  14.881   3.377  0.00  0.00     0.123 A 
HETATM    2  C   UNK N   1      28.517  16.765   4.399  0.00  0.00     0.072 A 
HETATM    3  N   UNK N   1      27.701  15.912   3.751  0.00  0.00    -0.339 N 
HETATM    4  N   UNK N   1      29.767  15.030   3.764  0.00  0.00    -0.339 N 
ATOM      5  HN  UNK N   1      30.543  14.389   3.595  1.00  0.00     0.167 HD
HETATM    6  C   UNK N   1      29.808  16.207   4.425  0.00  0.00     0.072 A 
HETATM    7  H   UNK N   1      26.737  16.019   3.585  0.00  0.00     0.167 HD
ENDROOT
BRANCH   2   8
HETATM    8  C   UNK N   1      28.008  18.064   4.928  0.00  0.00    -0.007 A 
HETATM    9  C   UNK N   1      27.541  19.043   4.038  0.00  0.00     0.016 A 
HETATM   10  C   UNK N   1      27.021  20.252   4.519  0.00  0.00     0.037 A 
HETATM   11  C   UNK N   1      26.979  20.505   5.896  0.00  0.00     0.068 A 
HETATM   12  C   UNK N   1      27.494  19.551   6.781  0.00  0.00     0.037 A 
HETATM   13  C   UNK N   1      28.007  18.354   6.294  0.00  0.00     0.016 A 
BRANCH  11  14
HETATM   14  O   UNK N   1      26.435  21.659   6.346  0.00  0.00    -0.356 OA
HETATM   15  C   UNK N   1      25.918  21.800   7.617  0.00  0.00     0.210 C 
ENDBRANCH  11  14
ENDBRANCH   2   8
BRANCH   6  16
HETATM   16  C   UNK N   1      31.059  16.694   5.074  0.00  0.00    -0.007 A 
HETATM   17  C   UNK N   1      32.121  17.200   4.321  0.00  0.00     0.016 A 
HETATM   18  C   UNK N   1      33.300  17.629   4.917  0.00  0.00     0.037 A 
HETATM   19  C   UNK N   1      33.440  17.577   6.307  0.00  0.00     0.068 A 
HETATM   20  C   UNK N   1      32.368  17.120   7.085  0.00  0.00     0.037 A 
HETATM   21  C   UNK N   1      31.181  16.688   6.472  0.00  0.00     0.016 A 
BRANCH  19  22
HETATM   22  O   UNK N   1      34.594  17.951   6.909  0.00  0.00    -0.356 OA
HETATM   23  C   UNK N   1      34.651  18.376   8.219  0.00  0.00     0.210 C 
ENDBRANCH  19  22
ENDBRANCH   6  16
BRANCH   1  24
HETATM   24  C   UNK N   1      27.981  13.717   2.637  0.00  0.00     0.049 A 
HETATM   25  C   UNK N   1      28.731  12.873   1.820  0.00  0.00     0.023 A 
HETATM   26  C   UNK N   1      27.952  11.836   1.232  0.00  0.00     0.009 A 
HETATM   27  C   UNK N   1      26.595  11.871   1.586  0.00  0.00     0.050 A 
HETATM   28  S   UNK N   1      26.422  13.171   2.605  0.00  0.00    -0.098 SA
ENDBRANCH   1  24
TORSDOF 5
ENDMDL
MODEL 5
REMARK VINA RESULT:      -6.5      1.728      2.169
REMARK  5 active torsions:
REMARK  status: ('A' for Active; 'I' for Inactive)
REMARK    1  A    between atoms: C_16  and  C_2 
REMARK    2  A    between atoms: C_4  and  O_9 
REMARK    3  A    between atoms: C_14  and  C_13 
REMARK    4  A    between atoms: C_22  and  C_23 
REMARK    5  A    between atoms: C_25  and  O_26 
ROOT
HETATM    1  C   UNK N   1      28.889  17.087   4.633  0.00  0.00     0.123 A 
HETATM    2  C   UNK N   1      26.955  17.702   3.940  0.00  0.00     0.072 A 
HETATM    3  N   UNK N   1      28.084  18.162   4.512  0.00  0.00    -0.339 N 
HETATM    4  N   UNK N   1      28.330  15.957   4.156  0.00  0.00    -0.339 N 
ATOM      5  HN  UNK N   1      28.739  15.023   4.142  1.00  0.00     0.167 HD
HETATM    6  C   UNK N   1      27.113  16.324   3.700  0.00  0.00     0.072 A 
HETATM    7  H   UNK N   1      28.280  19.087   4.785  0.00  0.00     0.167 HD
ENDROOT
BRANCH   2   8
HETATM    8  C   UNK N   1      25.797  18.607   3.686  0.00  0.00    -0.007 A 
HETATM    9  C   UNK N   1      26.009  19.852   3.074  0.00  0.00     0.016 A 
HETATM   10  C   UNK N   1      24.927  20.697   2.790  0.00  0.00     0.037 A 
HETATM   11  C   UNK N   1      23.623  20.315   3.130  0.00  0.00     0.068 A 
HETATM   12  C   UNK N   1      23.418  19.097   3.788  0.00  0.00     0.037 A 
HETATM   13  C   UNK N   1      24.498  18.265   4.065  0.00  0.00     0.016 A 
BRANCH  11  14
HETATM   14  O   UNK N   1      22.586  21.124   2.809  0.00  0.00    -0.356 OA
HETATM   15  C   UNK N   1      21.298  20.661   2.641  0.00  0.00     0.210 C 
ENDBRANCH  11  14
ENDBRANCH   2   8
BRANCH   6  16
HETATM   16  C   UNK N   1      26.207  15.351   3.025  0.00  0.00    -0.007 A 
HETATM   17  C   UNK N   1      25.798  15.534   1.702  0.00  0.00     0.016 A 
HETATM   18  C   UNK N   1      24.931  14.647   1.077  0.00  0.00     0.037 A 
HETATM   19  C   UNK N   1      24.459  13.526   1.767  0.00  0.00     0.068 A 
HETATM   20  C   UNK N   1      24.898  13.296   3.078  0.00  0.00     0.037 A 
HETATM   21  C   UNK N   1      25.773  14.200   3.701  0.00  0.00     0.016 A 
BRANCH  19  22
HETATM   22  O   UNK N   1      23.582  12.668   1.194  0.00  0.00    -0.356 OA
HETATM   23  C   UNK N   1      23.580  12.389  -0.156  0.00  0.00     0.210 C 
ENDBRANCH  19  22
ENDBRANCH   6  16
BRANCH   1  24
HETATM   24  C   UNK N   1      30.235  17.155   5.214  0.00  0.00     0.049 A 
HETATM   25  C   UNK N   1      31.415  17.436   4.526  0.00  0.00     0.023 A 
HETATM   26  C   UNK N   1      32.564  17.421   5.368  0.00  0.00     0.009 A 
HETATM   27  C   UNK N   1      32.284  17.126   6.711  0.00  0.00     0.050 A 
HETATM   28  S   UNK N   1      30.641  16.901   6.797  0.00  0.00    -0.098 SA
ENDBRANCH   1  24
TORSDOF 5
ENDMDL
MODEL 6
REMARK VINA RESULT:      -6.5      1.634      5.358
REMARK  5 active torsions:
REMARK  status: ('A' for Active; 'I' for Inactive)
REMARK    1  A    between atoms: C_16  and  C_2 
REMARK    2  A    between atoms: C_4  and  O_9 
REMARK    3  A    between atoms: C_14  and  C_13 
REMARK    4  A    between atoms: C_22  and  C_23 
REMARK    5  A    between atoms: C_25  and  O_26 
ROOT
HETATM    1  C   UNK N   1      29.220  17.168   4.885  0.00  0.00     0.123 A 
HETATM    2  C   UNK N   1      27.518  16.397   3.834  0.00  0.00     0.072 A 
HETATM    3  N   UNK N   1      28.708  16.039   4.353  0.00  0.00    -0.339 N 
HETATM    4  N   UNK N   1      28.409  18.232   4.738  0.00  0.00    -0.339 N 
ATOM      5  HN  UNK N   1      28.579  19.188   5.051  1.00  0.00     0.167 HD
HETATM    6  C   UNK N   1      27.320  17.767   4.089  0.00  0.00     0.072 A 
HETATM    7  H   UNK N   1      29.117  15.144   4.347  0.00  0.00     0.167 HD
ENDROOT
BRANCH   2   8
HETATM    8  C   UNK N   1      26.666  15.409   3.111  0.00  0.00    -0.007 A 
HETATM    9  C   UNK N   1      26.477  14.127   3.649  0.00  0.00     0.016 A 
HETATM   10  C   UNK N   1      25.646  13.201   3.004  0.00  0.00     0.037 A 
HETATM   11  C   UNK N   1      25.009  13.538   1.803  0.00  0.00     0.068 A 
HETATM   12  C   UNK N   1      25.241  14.798   1.239  0.00  0.00     0.037 A 
HETATM   13  C   UNK N   1      26.065  15.711   1.887  0.00  0.00     0.016 A 
BRANCH  11  14
HETATM   14  O   UNK N   1      24.177  12.647   1.217  0.00  0.00    -0.356 OA
HETATM   15  C   UNK N   1      23.499  12.912   0.045  0.00  0.00     0.210 C 
ENDBRANCH  11  14
ENDBRANCH   2   8
BRANCH   6  16
HETATM   16  C   UNK N   1      26.149  18.644   3.799  0.00  0.00    -0.007 A 
HETATM   17  C   UNK N   1      24.859  18.290   4.199  0.00  0.00     0.016 A 
HETATM   18  C   UNK N   1      23.760  19.088   3.907  0.00  0.00     0.037 A 
HETATM   19  C   UNK N   1      23.932  20.289   3.213  0.00  0.00     0.068 A 
HETATM   20  C   UNK N   1      25.225  20.688   2.848  0.00  0.00     0.037 A 
HETATM   21  C   UNK N   1      26.329  19.873   3.146  0.00  0.00     0.016 A 
BRANCH  19  22
HETATM   22  O   UNK N   1      22.873  21.066   2.881  0.00  0.00    -0.356 OA
HETATM   23  C   UNK N   1      21.631  20.549   2.582  0.00  0.00     0.210 C 
ENDBRANCH  19  22
ENDBRANCH   6  16
BRANCH   1  24
HETATM   24  C   UNK N   1      30.522  17.215   5.563  0.00  0.00     0.049 A 
HETATM   25  C   UNK N   1      30.735  17.175   6.940  0.00  0.00     0.023 A 
HETATM   26  C   UNK N   1      32.114  17.248   7.289  0.00  0.00     0.009 A 
HETATM   27  C   UNK N   1      32.978  17.347   6.187  0.00  0.00     0.050 A 
HETATM   28  S   UNK N   1      32.005  17.337   4.842  0.00  0.00    -0.098 SA
ENDBRANCH   1  24
TORSDOF 5
ENDMDL
MODEL 7
REMARK VINA RESULT:      -6.4     10.917     14.917
REMARK  5 active torsions:
REMARK  status: ('A' for Active; 'I' for Inactive)
REMARK    1  A    between atoms: C_16  and  C_2 
REMARK    2  A    between atoms: C_4  and  O_9 
REMARK    3  A    between atoms: C_14  and  C_13 
REMARK    4  A    between atoms: C_22  and  C_23 
REMARK    5  A    between atoms: C_25  and  O_26 
ROOT
HETATM    1  C   UNK N   1      35.962  12.719  14.493  0.00  0.00     0.123 A 
HETATM    2  C   UNK N   1      36.743  12.645  12.498  0.00  0.00     0.072 A 
HETATM    3  N   UNK N   1      36.821  12.046  13.701  0.00  0.00    -0.339 N 
HETATM    4  N   UNK N   1      35.328  13.719  13.849  0.00  0.00    -0.339 N 
ATOM      5  HN  UNK N   1      34.641  14.366  14.235  1.00  0.00     0.167 HD
HETATM    6  C   UNK N   1      35.795  13.682  12.583  0.00  0.00     0.072 A 
HETATM    7  H   UNK N   1      37.386  11.280  13.951  0.00  0.00     0.167 HD
ENDROOT
BRANCH   2   8
HETATM    8  C   UNK N   1      37.596  12.199  11.359  0.00  0.00    -0.007 A 
HETATM    9  C   UNK N   1      38.327  13.145  10.624  0.00  0.00     0.016 A 
HETATM   10  C   UNK N   1      39.166  12.738   9.578  0.00  0.00     0.037 A 
HETATM   11  C   UNK N   1      39.271  11.382   9.242  0.00  0.00     0.068 A 
HETATM   12  C   UNK N   1      38.503  10.445   9.941  0.00  0.00     0.037 A 
HETATM   13  C   UNK N   1      37.674  10.857  10.978  0.00  0.00     0.016 A 
BRANCH  11  14
HETATM   14  O   UNK N   1      40.119  11.003   8.257  0.00  0.00    -0.356 OA
HETATM   15  C   UNK N   1      41.007  11.871   7.657  0.00  0.00     0.210 C 
ENDBRANCH  11  14
ENDBRANCH   2   8
BRANCH   6  16
HETATM   16  C   UNK N   1      35.273  14.603  11.532  0.00  0.00    -0.007 A 
HETATM   17  C   UNK N   1      34.281  14.198  10.637  0.00  0.00     0.016 A 
HETATM   18  C   UNK N   1      33.810  15.040   9.638  0.00  0.00     0.037 A 
HETATM   19  C   UNK N   1      34.320  16.336   9.519  0.00  0.00     0.068 A 
HETATM   20  C   UNK N   1      35.280  16.780  10.438  0.00  0.00     0.037 A 
HETATM   21  C   UNK N   1      35.750  15.920  11.444  0.00  0.00     0.016 A 
BRANCH  19  22
HETATM   22  O   UNK N   1      33.908  17.163   8.529  0.00  0.00    -0.356 OA
HETATM   23  C   UNK N   1      34.559  18.336   8.213  0.00  0.00     0.210 C 
ENDBRANCH  19  22
ENDBRANCH   6  16
BRANCH   1  24
HETATM   24  C   UNK N   1      35.739  12.381  15.904  0.00  0.00     0.049 A 
HETATM   25  C   UNK N   1      35.297  13.250  16.900  0.00  0.00     0.023 A 
HETATM   26  C   UNK N   1      35.187  12.624  18.174  0.00  0.00     0.009 A 
HETATM   27  C   UNK N   1      35.546  11.267  18.176  0.00  0.00     0.050 A 
HETATM   28  S   UNK N   1      35.976  10.906  16.613  0.00  0.00    -0.098 SA
ENDBRANCH   1  24
TORSDOF 5
ENDMDL
MODEL 8
REMARK VINA RESULT:      -6.4     10.915     14.103
REMARK  5 active torsions:
REMARK  status: ('A' for Active; 'I' for Inactive)
REMARK    1  A    between atoms: C_16  and  C_2 
REMARK    2  A    between atoms: C_4  and  O_9 
REMARK    3  A    between atoms: C_14  and  C_13 
REMARK    4  A    between atoms: C_22  and  C_23 
REMARK    5  A    between atoms: C_25  and  O_26 
ROOT
HETATM    1  C   UNK N   1      35.943  12.665  14.438  0.00  0.00     0.123 A 
HETATM    2  C   UNK N   1      35.762  13.634  12.535  0.00  0.00     0.072 A 
HETATM    3  N   UNK N   1      35.284  13.650  13.794  0.00  0.00    -0.339 N 
HETATM    4  N   UNK N   1      36.828  12.023  13.652  0.00  0.00    -0.339 N 
ATOM      5  HN  UNK N   1      37.435  11.246  13.910  1.00  0.00     0.167 HD
HETATM    6  C   UNK N   1      36.741  12.628  12.447  0.00  0.00     0.072 A 
HETATM    7  H   UNK N   1      34.600  14.252  14.165  0.00  0.00     0.167 HD
ENDROOT
BRANCH   2   8
HETATM    8  C   UNK N   1      35.230  14.567  11.499  0.00  0.00    -0.007 A 
HETATM    9  C   UNK N   1      35.713  15.883  11.435  0.00  0.00     0.016 A 
HETATM   10  C   UNK N   1      35.255  16.760  10.442  0.00  0.00     0.037 A 
HETATM   11  C   UNK N   1      34.296  16.337   9.513  0.00  0.00     0.068 A 
HETATM   12  C   UNK N   1      33.776  15.042   9.610  0.00  0.00     0.037 A 
HETATM   13  C   UNK N   1      34.237  14.179  10.598  0.00  0.00     0.016 A 
BRANCH  11  14
HETATM   14  O   UNK N   1      33.897  17.183   8.534  0.00  0.00    -0.356 OA
HETATM   15  C   UNK N   1      34.594  18.326   8.200  0.00  0.00     0.210 C 
ENDBRANCH  11  14
ENDBRANCH   2   8
BRANCH   6  16
HETATM   16  C   UNK N   1      37.629  12.239  11.313  0.00  0.00    -0.007 A 
HETATM   17  C   UNK N   1      38.364  13.192  10.605  0.00  0.00     0.016 A 
HETATM   18  C   UNK N   1      39.171  12.840   9.530  0.00  0.00     0.037 A 
HETATM   19  C   UNK N   1      39.275  11.501   9.142  0.00  0.00     0.068 A 
HETATM   20  C   UNK N   1      38.585  10.523   9.872  0.00  0.00     0.037 A 
HETATM   21  C   UNK N   1      37.772  10.889  10.956  0.00  0.00     0.016 A 
BRANCH  19  22
HETATM   22  O   UNK N   1      40.022  11.137   8.073  0.00  0.00    -0.356 OA
HETATM   23  C   UNK N   1      41.179  11.793   7.709  0.00  0.00     0.210 C 
ENDBRANCH  19  22
ENDBRANCH   6  16
BRANCH   1  24
HETATM   24  C   UNK N   1      35.718  12.344  15.854  0.00  0.00     0.049 A 
HETATM   25  C   UNK N   1      35.244  13.218  16.831  0.00  0.00     0.023 A 
HETATM   26  C   UNK N   1      35.142  12.610  18.115  0.00  0.00     0.009 A 
HETATM   27  C   UNK N   1      35.539  11.264  18.143  0.00  0.00     0.050 A 
HETATM   28  S   UNK N   1      35.992  10.889  16.590  0.00  0.00    -0.098 SA
ENDBRANCH   1  24
TORSDOF 5
ENDMDL
MODEL 9
REMARK VINA RESULT:      -6.3      5.783      9.761
REMARK  5 active torsions:
REMARK  status: ('A' for Active; 'I' for Inactive)
REMARK    1  A    between atoms: C_16  and  C_2 
REMARK    2  A    between atoms: C_4  and  O_9 
REMARK    3  A    between atoms: C_14  and  C_13 
REMARK    4  A    between atoms: C_22  and  C_23 
REMARK    5  A    between atoms: C_25  and  O_26 
ROOT
HETATM    1  C   UNK N   1      29.341  17.541   5.220  0.00  0.00     0.123 A 
HETATM    2  C   UNK N   1      31.140  16.427   4.871  0.00  0.00     0.072 A 
HETATM    3  N   UNK N   1      29.964  16.765   4.309  0.00  0.00    -0.339 N 
HETATM    4  N   UNK N   1      30.069  17.724   6.338  0.00  0.00    -0.339 N 
ATOM      5  HN  UNK N   1      29.809  18.264   7.164  1.00  0.00     0.167 HD
HETATM    6  C   UNK N   1      31.216  17.041   6.136  0.00  0.00     0.072 A 
HETATM    7  H   UNK N   1      29.629  16.501   3.422  0.00  0.00     0.167 HD
ENDROOT
BRANCH   2   8
HETATM    8  C   UNK N   1      32.096  15.523   4.170  0.00  0.00    -0.007 A 
HETATM    9  C   UNK N   1      33.021  16.059   3.260  0.00  0.00     0.016 A 
HETATM   10  C   UNK N   1      33.955  15.230   2.624  0.00  0.00     0.037 A 
HETATM   11  C   UNK N   1      33.963  13.852   2.875  0.00  0.00     0.068 A 
HETATM   12  C   UNK N   1      33.006  13.310   3.741  0.00  0.00     0.037 A 
HETATM   13  C   UNK N   1      32.085  14.141   4.369  0.00  0.00     0.016 A 
BRANCH  11  14
HETATM   14  O   UNK N   1      34.899  13.072   2.285  0.00  0.00    -0.356 OA
HETATM   15  C   UNK N   1      35.861  13.571   1.433  0.00  0.00     0.210 C 
ENDBRANCH  11  14
ENDBRANCH   2   8
BRANCH   6  16
HETATM   16  C   UNK N   1      32.322  17.059   7.136  0.00  0.00    -0.007 A 
HETATM   17  C   UNK N   1      32.315  16.210   8.244  0.00  0.00     0.016 A 
HETATM   18  C   UNK N   1      33.328  16.241   9.195  0.00  0.00     0.037 A 
HETATM   19  C   UNK N   1      34.399  17.128   9.047  0.00  0.00     0.068 A 
HETATM   20  C   UNK N   1      34.451  17.953   7.915  0.00  0.00     0.037 A 
HETATM   21  C   UNK N   1      33.422  17.914   6.961  0.00  0.00     0.016 A 
BRANCH  19  22
HETATM   22  O   UNK N   1      35.377  17.207   9.979  0.00  0.00    -0.356 OA
HETATM   23  C   UNK N   1      35.486  16.320  11.028  0.00  0.00     0.210 C 
ENDBRANCH  19  22
ENDBRANCH   6  16
BRANCH   1  24
HETATM   24  C   UNK N   1      28.014  18.130   4.998  0.00  0.00     0.049 A 
HETATM   25  C   UNK N   1      27.750  19.450   4.638  0.00  0.00     0.023 A 
HETATM   26  C   UNK N   1      26.357  19.720   4.505  0.00  0.00     0.009 A 
HETATM   27  C   UNK N   1      25.534  18.613   4.764  0.00  0.00     0.050 A 
HETATM   28  S   UNK N   1      26.558  17.360   5.139  0.00  0.00    -0.098 SA
ENDBRANCH   1  24
TORSDOF 5
ENDMDL
