MODEL 1
REMARK VINA RESULT:      -8.9      0.000      0.000
REMARK  6 active torsions:
REMARK  status: ('A' for Active; 'I' for Inactive)
REMARK    1  A    between atoms: C_4  and  O_18 
REMARK    2  A    between atoms: C_5  and  C_4 
REMARK    3  A    between atoms: O_18  and  C_19 
REMARK    4  A    between atoms: C_22  and  C_23 
REMARK    5  A    between atoms: C_24  and  C_28 
REMARK    6  A    between atoms: C_28  and  C_29 
ROOT
HETATM    1  C   UNK N   1      33.845  14.717   9.225  0.00  0.00     0.016 A 
HETATM    2  C   UNK N   1      35.003  16.748   9.771  0.00  0.00     0.016 A 
HETATM    3  C   UNK N   1      34.816  14.925  11.405  0.00  0.00     0.069 A 
HETATM    4  C   UNK N   1      35.276  16.217  11.064  0.00  0.00     0.037 A 
HETATM    5  C   UNK N   1      34.100  14.202  10.456  0.00  0.00     0.037 A 
HETATM    6  C   UNK N   1      34.272  15.976   8.839  0.00  0.00    -0.007 A 
ENDROOT
BRANCH   6   7
HETATM    7  C   UNK N   1      33.916  16.409   7.452  0.00  0.00     0.066 A 
HETATM    8  C   UNK N   1      32.822  17.201   7.121  0.00  0.00    -0.008 A 
HETATM    9  C   UNK N   1      32.873  17.353   5.754  0.00  0.00     0.116 A 
HETATM   10  N   UNK N   1      33.957  16.675   5.304  0.00  0.00    -0.311 N 
HETATM   11  N   UNK N   1      34.587  16.104   6.332  0.00  0.00    -0.300 N 
HETATM   12  H   UNK N   1      34.237  16.613   4.363  0.00  0.00     0.186 HD
ATOM     13  HN  UNK N   1      35.432  15.536   6.275  1.00  0.00     0.187 HD
BRANCH   8  14
HETATM   14  C   UNK N   1      31.853  17.722   8.149  0.00  0.00     0.081 C 
BRANCH  14  15
HETATM   15  C   UNK N   1      30.379  17.667   8.283  0.00  0.00    -0.051 A 
HETATM   16  C   UNK N   1      29.683  17.950   9.457  0.00  0.00     0.024 A 
HETATM   17  C   UNK N   1      28.284  17.860   9.445  0.00  0.00     0.088 A 
HETATM   18  N   UNK N   1      27.623  17.503   8.307  0.00  0.00    -0.375 N 
HETATM   19  C   UNK N   1      28.290  17.225   7.157  0.00  0.00     0.088 A 
ATOM     20  HN  UNK N   1      26.605  17.443   8.320  1.00  0.00     0.164 HD
HETATM   21  C   UNK N   1      29.678  17.303   7.130  0.00  0.00     0.024 A 
ENDBRANCH  14  15
ENDBRANCH   8  14
ENDBRANCH   6   7
BRANCH   3  22
HETATM   22  O   UNK N   1      35.040  14.353  12.623  0.00  0.00    -0.345 OA
BRANCH  22  23
HETATM   23  C   UNK N   1      34.919  12.972  12.700  0.00  0.00     0.232 C 
BRANCH  23  24
HETATM   24  C   UNK N   1      34.980  12.295  14.011  0.00  0.00     0.034 A 
HETATM   25  C   UNK N   1      34.964  10.904  14.157  0.00  0.00     0.028 A 
HETATM   26  C   UNK N   1      35.025  10.356  15.444  0.00  0.00     0.016 A 
HETATM   27  C   UNK N   1      35.101  11.202  16.558  0.00  0.00    -0.009 A 
HETATM   28  C   UNK N   1      35.114  12.596  16.362  0.00  0.00     0.042 A 
HETATM   29  C   UNK N   1      35.163  10.684  17.854  0.00  0.00     0.013 A 
HETATM   30  N   UNK N   1      35.054  13.097  15.107  0.00  0.00    -0.357 N 
HETATM   31  C   UNK N   1      35.189  13.461  17.456  0.00  0.00     0.030 A 
ATOM     32  HN  UNK N   1      35.064  14.108  14.978  1.00  0.00     0.166 HD
HETATM   33  C   UNK N   1      35.251  12.940  18.750  0.00  0.00     0.002 A 
HETATM   34  C   UNK N   1      35.238  11.554  18.949  0.00  0.00     0.001 A 
ENDBRANCH  23  24
ENDBRANCH  22  23
ENDBRANCH   3  22
TORSDOF 6
ENDMDL
MODEL 2
REMARK VINA RESULT:      -8.7      5.724     12.026
REMARK  6 active torsions:
REMARK  status: ('A' for Active; 'I' for Inactive)
REMARK    1  A    between atoms: C_4  and  O_18 
REMARK    2  A    between atoms: C_5  and  C_4 
REMARK    3  A    between atoms: O_18  and  C_19 
REMARK    4  A    between atoms: C_22  and  C_23 
REMARK    5  A    between atoms: C_24  and  C_28 
REMARK    6  A    between atoms: C_28  and  C_29 
ROOT
HETATM    1  C   UNK N   1      30.301  16.482   7.167  0.00  0.00     0.016 A 
HETATM    2  C   UNK N   1      30.370  18.243   8.797  0.00  0.00     0.016 A 
HETATM    3  C   UNK N   1      28.534  18.101   7.173  0.00  0.00     0.069 A 
HETATM    4  C   UNK N   1      29.154  18.754   8.263  0.00  0.00     0.037 A 
HETATM    5  C   UNK N   1      29.140  16.962   6.649  0.00  0.00     0.037 A 
HETATM    6  C   UNK N   1      30.949  17.084   8.233  0.00  0.00    -0.007 A 
ENDROOT
BRANCH   6   7
HETATM    7  C   UNK N   1      32.218  16.442   8.695  0.00  0.00     0.066 A 
HETATM    8  C   UNK N   1      33.430  16.494   8.014  0.00  0.00    -0.008 A 
HETATM    9  C   UNK N   1      34.319  15.779   8.784  0.00  0.00     0.116 A 
HETATM   10  N   UNK N   1      33.651  15.326   9.873  0.00  0.00    -0.311 N 
HETATM   11  N   UNK N   1      32.381  15.727   9.818  0.00  0.00    -0.300 N 
HETATM   12  H   UNK N   1      34.044  14.784  10.595  0.00  0.00     0.186 HD
ATOM     13  HN  UNK N   1      31.659  15.526  10.510  1.00  0.00     0.187 HD
BRANCH   8  14
HETATM   14  C   UNK N   1      33.600  17.221   6.707  0.00  0.00     0.081 C 
BRANCH  14  15
HETATM   15  C   UNK N   1      33.360  16.851   5.293  0.00  0.00    -0.051 A 
HETATM   16  C   UNK N   1      32.579  17.589   4.407  0.00  0.00     0.024 A 
HETATM   17  C   UNK N   1      32.435  17.124   3.092  0.00  0.00     0.088 A 
HETATM   18  N   UNK N   1      33.049  15.972   2.695  0.00  0.00    -0.375 N 
HETATM   19  C   UNK N   1      33.812  15.244   3.550  0.00  0.00     0.088 A 
ATOM     20  HN  UNK N   1      32.931  15.651   1.734  1.00  0.00     0.164 HD
HETATM   21  C   UNK N   1      33.979  15.674   4.862  0.00  0.00     0.024 A 
ENDBRANCH  14  15
ENDBRANCH   8  14
ENDBRANCH   6   7
BRANCH   3  22
HETATM   22  O   UNK N   1      27.370  18.533   6.610  0.00  0.00    -0.345 OA
BRANCH  22  23
HETATM   23  C   UNK N   1      27.341  18.632   5.225  0.00  0.00     0.232 C 
BRANCH  23  24
HETATM   24  C   UNK N   1      26.129  19.129   4.543  0.00  0.00     0.034 A 
HETATM   25  C   UNK N   1      26.155  20.124   3.561  0.00  0.00     0.028 A 
HETATM   26  C   UNK N   1      24.951  20.529   2.972  0.00  0.00     0.016 A 
HETATM   27  C   UNK N   1      23.748  19.936   3.372  0.00  0.00    -0.009 A 
HETATM   28  C   UNK N   1      23.770  18.938   4.365  0.00  0.00     0.042 A 
HETATM   29  C   UNK N   1      22.530  20.319   2.802  0.00  0.00     0.013 A 
HETATM   30  N   UNK N   1      24.948  18.568   4.916  0.00  0.00    -0.357 N 
HETATM   31  C   UNK N   1      22.582  18.331   4.781  0.00  0.00     0.030 A 
ATOM     32  HN  UNK N   1      24.951  17.844   5.634  1.00  0.00     0.166 HD
HETATM   33  C   UNK N   1      21.368  18.717   4.209  0.00  0.00     0.002 A 
HETATM   34  C   UNK N   1      21.342  19.709   3.222  0.00  0.00     0.001 A 
ENDBRANCH  23  24
ENDBRANCH  22  23
ENDBRANCH   3  22
TORSDOF 6
ENDMDL
MODEL 3
REMARK VINA RESULT:      -8.6      1.468      2.575
REMARK  6 active torsions:
REMARK  status: ('A' for Active; 'I' for Inactive)
REMARK    1  A    between atoms: C_4  and  O_18 
REMARK    2  A    between atoms: C_5  and  C_4 
REMARK    3  A    between atoms: O_18  and  C_19 
REMARK    4  A    between atoms: C_22  and  C_23 
REMARK    5  A    between atoms: C_24  and  C_28 
REMARK    6  A    between atoms: C_28  and  C_29 
ROOT
HETATM    1  C   UNK N   1      33.391  15.446   7.385  0.00  0.00     0.016 A 
HETATM    2  C   UNK N   1      33.798  17.783   7.753  0.00  0.00     0.016 A 
HETATM    3  C   UNK N   1      34.371  16.119   9.464  0.00  0.00     0.069 A 
HETATM    4  C   UNK N   1      34.326  17.465   9.036  0.00  0.00     0.037 A 
HETATM    5  C   UNK N   1      33.892  15.132   8.607  0.00  0.00     0.037 A 
HETATM    6  C   UNK N   1      33.323  16.748   6.916  0.00  0.00    -0.007 A 
ENDROOT
BRANCH   6   7
HETATM    7  C   UNK N   1      32.746  16.940   5.550  0.00  0.00     0.066 A 
HETATM    8  C   UNK N   1      31.395  16.835   5.235  0.00  0.00    -0.008 A 
HETATM    9  C   UNK N   1      31.309  17.084   3.884  0.00  0.00     0.116 A 
HETATM   10  N   UNK N   1      32.563  17.326   3.428  0.00  0.00    -0.311 N 
HETATM   11  N   UNK N   1      33.430  17.238   4.437  0.00  0.00    -0.300 N 
HETATM   12  H   UNK N   1      32.797  17.534   2.495  0.00  0.00     0.186 HD
ATOM     13  HN  UNK N   1      34.440  17.375   4.372  1.00  0.00     0.187 HD
BRANCH   8  14
HETATM   14  C   UNK N   1      30.342  16.508   6.259  0.00  0.00     0.081 C 
BRANCH  14  15
HETATM   15  C   UNK N   1      29.724  17.270   7.369  0.00  0.00    -0.051 A 
HETATM   16  C   UNK N   1      30.080  17.140   8.709  0.00  0.00     0.024 A 
HETATM   17  C   UNK N   1      29.413  17.925   9.660  0.00  0.00     0.088 A 
HETATM   18  N   UNK N   1      28.437  18.797   9.275  0.00  0.00    -0.375 N 
HETATM   19  C   UNK N   1      28.081  18.933   7.972  0.00  0.00     0.088 A 
ATOM     20  HN  UNK N   1      27.964  19.359   9.983  1.00  0.00     0.164 HD
HETATM   21  C   UNK N   1      28.721  18.171   7.000  0.00  0.00     0.024 A 
ENDBRANCH  14  15
ENDBRANCH   8  14
ENDBRANCH   6   7
BRANCH   3  22
HETATM   22  O   UNK N   1      34.863  15.740  10.679  0.00  0.00    -0.345 OA
BRANCH  22  23
HETATM   23  C   UNK N   1      35.063  14.380  10.879  0.00  0.00     0.232 C 
BRANCH  23  24
HETATM   24  C   UNK N   1      35.297  13.859  12.241  0.00  0.00     0.034 A 
HETATM   25  C   UNK N   1      36.152  14.473  13.161  0.00  0.00     0.028 A 
HETATM   26  C   UNK N   1      36.309  13.902  14.429  0.00  0.00     0.016 A 
HETATM   27  C   UNK N   1      35.612  12.732  14.756  0.00  0.00    -0.009 A 
HETATM   28  C   UNK N   1      34.762  12.148  13.797  0.00  0.00     0.042 A 
HETATM   29  C   UNK N   1      35.748  12.139  16.014  0.00  0.00     0.013 A 
HETATM   30  N   UNK N   1      34.630  12.723  12.580  0.00  0.00    -0.357 N 
HETATM   31  C   UNK N   1      34.056  10.981  14.099  0.00  0.00     0.030 A 
ATOM     32  HN  UNK N   1      34.012  12.291  11.895  1.00  0.00     0.166 HD
HETATM   33  C   UNK N   1      34.194  10.391  15.357  0.00  0.00     0.002 A 
HETATM   34  C   UNK N   1      35.039  10.969  16.313  0.00  0.00     0.001 A 
ENDBRANCH  23  24
ENDBRANCH  22  23
ENDBRANCH   3  22
TORSDOF 6
ENDMDL
MODEL 4
REMARK VINA RESULT:      -8.6      2.062      3.435
REMARK  6 active torsions:
REMARK  status: ('A' for Active; 'I' for Inactive)
REMARK    1  A    between atoms: C_4  and  O_18 
REMARK    2  A    between atoms: C_5  and  C_4 
REMARK    3  A    between atoms: O_18  and  C_19 
REMARK    4  A    between atoms: C_22  and  C_23 
REMARK    5  A    between atoms: C_24  and  C_28 
REMARK    6  A    between atoms: C_28  and  C_29 
ROOT
HETATM    1  C   UNK N   1      33.646  17.964   7.109  0.00  0.00     0.016 A 
HETATM    2  C   UNK N   1      33.812  15.576   6.925  0.00  0.00     0.016 A 
HETATM    3  C   UNK N   1      34.854  16.771   8.800  0.00  0.00     0.069 A 
HETATM    4  C   UNK N   1      34.573  15.560   8.128  0.00  0.00     0.037 A 
HETATM    5  C   UNK N   1      34.371  17.959   8.257  0.00  0.00     0.037 A 
HETATM    6  C   UNK N   1      33.343  16.806   6.411  0.00  0.00    -0.007 A 
ENDROOT
BRANCH   6   7
HETATM    7  C   UNK N   1      32.536  16.968   5.163  0.00  0.00     0.066 A 
HETATM    8  C   UNK N   1      31.156  16.814   5.080  0.00  0.00    -0.008 A 
HETATM    9  C   UNK N   1      30.834  17.050   3.763  0.00  0.00     0.116 A 
HETATM   10  N   UNK N   1      31.983  17.331   3.102  0.00  0.00    -0.311 N 
HETATM   11  N   UNK N   1      33.012  17.282   3.949  0.00  0.00    -0.300 N 
HETATM   12  H   UNK N   1      32.048  17.541   2.142  0.00  0.00     0.186 HD
ATOM     13  HN  UNK N   1      33.990  17.452   3.713  1.00  0.00     0.187 HD
BRANCH   8  14
HETATM   14  C   UNK N   1      30.304  16.459   6.269  0.00  0.00     0.081 C 
BRANCH  14  15
HETATM   15  C   UNK N   1      29.655  17.255   7.336  0.00  0.00    -0.051 A 
HETATM   16  C   UNK N   1      28.524  18.048   7.152  0.00  0.00     0.024 A 
HETATM   17  C   UNK N   1      28.012  18.752   8.251  0.00  0.00     0.088 A 
HETATM   18  N   UNK N   1      28.612  18.659   9.472  0.00  0.00    -0.375 N 
HETATM   19  C   UNK N   1      29.714  17.890   9.665  0.00  0.00     0.088 A 
ATOM     20  HN  UNK N   1      28.223  19.180  10.259  1.00  0.00     0.164 HD
HETATM   21  C   UNK N   1      30.251  17.177   8.598  0.00  0.00     0.024 A 
ENDBRANCH  14  15
ENDBRANCH   8  14
ENDBRANCH   6   7
BRANCH   3  22
HETATM   22  O   UNK N   1      35.575  16.832   9.955  0.00  0.00    -0.345 OA
BRANCH  22  23
HETATM   23  C   UNK N   1      35.077  16.131  11.045  0.00  0.00     0.232 C 
BRANCH  23  24
HETATM   24  C   UNK N   1      35.792  14.939  11.548  0.00  0.00     0.034 A 
HETATM   25  C   UNK N   1      36.631  14.155  10.750  0.00  0.00     0.028 A 
HETATM   26  C   UNK N   1      37.264  13.044  11.320  0.00  0.00     0.016 A 
HETATM   27  C   UNK N   1      37.051  12.737  12.669  0.00  0.00    -0.009 A 
HETATM   28  C   UNK N   1      36.198  13.556  13.433  0.00  0.00     0.042 A 
HETATM   29  C   UNK N   1      37.669  11.635  13.265  0.00  0.00     0.013 A 
HETATM   30  N   UNK N   1      35.599  14.622  12.856  0.00  0.00    -0.357 N 
HETATM   31  C   UNK N   1      35.968  13.271  14.781  0.00  0.00     0.030 A 
ATOM     32  HN  UNK N   1      34.984  15.208  13.420  1.00  0.00     0.166 HD
HETATM   33  C   UNK N   1      36.588  12.168  15.373  0.00  0.00     0.002 A 
HETATM   34  C   UNK N   1      37.437  11.352  14.616  0.00  0.00     0.001 A 
ENDBRANCH  23  24
ENDBRANCH  22  23
ENDBRANCH   3  22
TORSDOF 6
ENDMDL
MODEL 5
REMARK VINA RESULT:      -8.6      1.886      4.114
REMARK  6 active torsions:
REMARK  status: ('A' for Active; 'I' for Inactive)
REMARK    1  A    between atoms: C_4  and  O_18 
REMARK    2  A    between atoms: C_5  and  C_4 
REMARK    3  A    between atoms: O_18  and  C_19 
REMARK    4  A    between atoms: C_22  and  C_23 
REMARK    5  A    between atoms: C_24  and  C_28 
REMARK    6  A    between atoms: C_28  and  C_29 
ROOT
HETATM    1  C   UNK N   1      31.928  15.710   9.090  0.00  0.00     0.016 A 
HETATM    2  C   UNK N   1      33.044  17.707   8.363  0.00  0.00     0.016 A 
HETATM    3  C   UNK N   1      34.311  15.663   8.855  0.00  0.00     0.069 A 
HETATM    4  C   UNK N   1      34.286  17.015   8.445  0.00  0.00     0.037 A 
HETATM    5  C   UNK N   1      33.107  15.041   9.171  0.00  0.00     0.037 A 
HETATM    6  C   UNK N   1      31.846  17.035   8.694  0.00  0.00    -0.007 A 
ENDROOT
BRANCH   6   7
HETATM    7  C   UNK N   1      30.478  17.639   8.652  0.00  0.00     0.066 A 
HETATM    8  C   UNK N   1      29.574  17.491   7.606  0.00  0.00    -0.008 A 
HETATM    9  C   UNK N   1      28.456  18.203   7.978  0.00  0.00     0.116 A 
HETATM   10  N   UNK N   1      28.699  18.746   9.196  0.00  0.00    -0.311 N 
HETATM   11  N   UNK N   1      29.922  18.404   9.602  0.00  0.00    -0.300 N 
HETATM   12  H   UNK N   1      28.069  19.307   9.703  0.00  0.00     0.186 HD
ATOM     13  HN  UNK N   1      30.359  18.677  10.484  1.00  0.00     0.187 HD
BRANCH   8  14
HETATM   14  C   UNK N   1      29.881  16.687   6.371  0.00  0.00     0.081 C 
BRANCH  14  15
HETATM   15  C   UNK N   1      31.065  16.584   5.487  0.00  0.00    -0.051 A 
HETATM   16  C   UNK N   1      31.554  17.624   4.699  0.00  0.00     0.024 A 
HETATM   17  C   UNK N   1      32.686  17.390   3.906  0.00  0.00     0.088 A 
HETATM   18  N   UNK N   1      33.292  16.168   3.910  0.00  0.00    -0.375 N 
HETATM   19  C   UNK N   1      32.825  15.146   4.673  0.00  0.00     0.088 A 
ATOM     20  HN  UNK N   1      34.115  16.019   3.325  1.00  0.00     0.164 HD
HETATM   21  C   UNK N   1      31.704  15.341   5.472  0.00  0.00     0.024 A 
ENDBRANCH  14  15
ENDBRANCH   8  14
ENDBRANCH   6   7
BRANCH   3  22
HETATM   22  O   UNK N   1      35.462  14.937   8.956  0.00  0.00    -0.345 OA
BRANCH  22  23
HETATM   23  C   UNK N   1      36.236  15.142  10.090  0.00  0.00     0.232 C 
BRANCH  23  24
HETATM   24  C   UNK N   1      35.952  14.387  11.328  0.00  0.00     0.034 A 
HETATM   25  C   UNK N   1      35.201  13.208  11.351  0.00  0.00     0.028 A 
HETATM   26  C   UNK N   1      34.986  12.563  12.575  0.00  0.00     0.016 A 
HETATM   27  C   UNK N   1      35.523  13.104  13.750  0.00  0.00    -0.009 A 
HETATM   28  C   UNK N   1      36.274  14.294  13.678  0.00  0.00     0.042 A 
HETATM   29  C   UNK N   1      35.326  12.484  14.986  0.00  0.00     0.013 A 
HETATM   30  N   UNK N   1      36.464  14.894  12.481  0.00  0.00    -0.357 N 
HETATM   31  C   UNK N   1      36.820  14.854  14.835  0.00  0.00     0.030 A 
ATOM     32  HN  UNK N   1      37.009  15.755  12.442  1.00  0.00     0.166 HD
HETATM   33  C   UNK N   1      36.621  14.230  16.069  0.00  0.00     0.002 A 
HETATM   34  C   UNK N   1      35.875  13.048  16.144  0.00  0.00     0.001 A 
ENDBRANCH  23  24
ENDBRANCH  22  23
ENDBRANCH   3  22
TORSDOF 6
ENDMDL
MODEL 6
REMARK VINA RESULT:      -8.5     10.539     14.699
REMARK  6 active torsions:
REMARK  status: ('A' for Active; 'I' for Inactive)
REMARK    1  A    between atoms: C_4  and  O_18 
REMARK    2  A    between atoms: C_5  and  C_4 
REMARK    3  A    between atoms: O_18  and  C_19 
REMARK    4  A    between atoms: C_22  and  C_23 
REMARK    5  A    between atoms: C_24  and  C_28 
REMARK    6  A    between atoms: C_28  and  C_29 
ROOT
HETATM    1  C   UNK N   1      21.200  15.187   8.966  0.00  0.00     0.016 A 
HETATM    2  C   UNK N   1      21.007  13.266   7.540  0.00  0.00     0.016 A 
HETATM    3  C   UNK N   1      20.894  15.538   6.616  0.00  0.00     0.069 A 
HETATM    4  C   UNK N   1      20.864  14.138   6.423  0.00  0.00     0.037 A 
HETATM    5  C   UNK N   1      21.064  16.028   7.908  0.00  0.00     0.037 A 
HETATM    6  C   UNK N   1      21.178  13.808   8.833  0.00  0.00    -0.007 A 
ENDROOT
BRANCH   6   7
HETATM    7  C   UNK N   1      21.339  13.011  10.088  0.00  0.00     0.066 A 
HETATM    8  C   UNK N   1      22.554  12.564  10.597  0.00  0.00    -0.008 A 
HETATM    9  C   UNK N   1      22.244  11.881  11.751  0.00  0.00     0.116 A 
HETATM   10  N   UNK N   1      20.899  11.927  11.910  0.00  0.00    -0.311 N 
HETATM   11  N   UNK N   1      20.353  12.611  10.904  0.00  0.00    -0.300 N 
HETATM   12  H   UNK N   1      20.401  11.518  12.654  0.00  0.00     0.186 HD
ATOM     13  HN  UNK N   1      19.357  12.797  10.777  1.00  0.00     0.187 HD
BRANCH   8  14
HETATM   14  C   UNK N   1      23.871  12.841   9.923  0.00  0.00     0.081 C 
BRANCH  14  15
HETATM   15  C   UNK N   1      24.354  12.708   8.529  0.00  0.00    -0.051 A 
HETATM   16  C   UNK N   1      25.113  13.667   7.863  0.00  0.00     0.024 A 
HETATM   17  C   UNK N   1      25.504  13.413   6.541  0.00  0.00     0.088 A 
HETATM   18  N   UNK N   1      25.146  12.250   5.925  0.00  0.00    -0.375 N 
HETATM   19  C   UNK N   1      24.406  11.307   6.564  0.00  0.00     0.088 A 
ATOM     20  HN  UNK N   1      25.442  12.085   4.962  1.00  0.00     0.164 HD
HETATM   21  C   UNK N   1      24.000  11.524   7.876  0.00  0.00     0.024 A 
ENDBRANCH  14  15
ENDBRANCH   8  14
ENDBRANCH   6   7
BRANCH   3  22
HETATM   22  O   UNK N   1      20.764  16.433   5.596  0.00  0.00    -0.345 OA
BRANCH  22  23
HETATM   23  C   UNK N   1      21.080  17.756   5.876  0.00  0.00     0.232 C 
BRANCH  23  24
HETATM   24  C   UNK N   1      22.003  18.499   4.994  0.00  0.00     0.034 A 
HETATM   25  C   UNK N   1      21.574  19.253   3.897  0.00  0.00     0.028 A 
HETATM   26  C   UNK N   1      22.526  19.923   3.119  0.00  0.00     0.016 A 
HETATM   27  C   UNK N   1      23.884  19.830   3.449  0.00  0.00    -0.009 A 
HETATM   28  C   UNK N   1      24.269  19.058   4.562  0.00  0.00     0.042 A 
HETATM   29  C   UNK N   1      24.857  20.487   2.692  0.00  0.00     0.013 A 
HETATM   30  N   UNK N   1      23.327  18.422   5.295  0.00  0.00    -0.357 N 
HETATM   31  C   UNK N   1      25.617  18.949   4.912  0.00  0.00     0.030 A 
ATOM     32  HN  UNK N   1      23.618  17.867   6.098  1.00  0.00     0.166 HD
HETATM   33  C   UNK N   1      26.587  19.608   4.152  0.00  0.00     0.002 A 
HETATM   34  C   UNK N   1      26.208  20.375   3.045  0.00  0.00     0.001 A 
ENDBRANCH  23  24
ENDBRANCH  22  23
ENDBRANCH   3  22
TORSDOF 6
ENDMDL
MODEL 7
REMARK VINA RESULT:      -8.4      2.433     10.948
REMARK  6 active torsions:
REMARK  status: ('A' for Active; 'I' for Inactive)
REMARK    1  A    between atoms: C_4  and  O_18 
REMARK    2  A    between atoms: C_5  and  C_4 
REMARK    3  A    between atoms: O_18  and  C_19 
REMARK    4  A    between atoms: C_22  and  C_23 
REMARK    5  A    between atoms: C_24  and  C_28 
REMARK    6  A    between atoms: C_28  and  C_29 
ROOT
HETATM    1  C   UNK N   1      36.508  13.816  16.185  0.00  0.00     0.016 A 
HETATM    2  C   UNK N   1      34.535  12.579  15.601  0.00  0.00     0.016 A 
HETATM    3  C   UNK N   1      35.868  13.712  13.879  0.00  0.00     0.069 A 
HETATM    4  C   UNK N   1      34.755  12.918  14.236  0.00  0.00     0.037 A 
HETATM    5  C   UNK N   1      36.727  14.144  14.886  0.00  0.00     0.037 A 
HETATM    6  C   UNK N   1      35.433  13.041  16.589  0.00  0.00    -0.007 A 
ENDROOT
BRANCH   6   7
HETATM    7  C   UNK N   1      35.322  12.761  18.054  0.00  0.00     0.066 A 
HETATM    8  C   UNK N   1      35.314  11.492  18.624  0.00  0.00    -0.008 A 
HETATM    9  C   UNK N   1      35.197  11.695  19.980  0.00  0.00     0.116 A 
HETATM   10  N   UNK N   1      35.140  13.032  20.194  0.00  0.00    -0.311 N 
HETATM   11  N   UNK N   1      35.216  13.676  19.029  0.00  0.00    -0.300 N 
HETATM   12  H   UNK N   1      35.056  13.463  21.075  0.00  0.00     0.186 HD
ATOM     13  HN  UNK N   1      35.196  14.688  18.901  1.00  0.00     0.187 HD
BRANCH   8  14
HETATM   14  C   UNK N   1      35.418  10.231  17.808  0.00  0.00     0.081 C 
BRANCH  14  15
HETATM   15  C   UNK N   1      36.541   9.540  17.134  0.00  0.00    -0.051 A 
HETATM   16  C   UNK N   1      37.072   9.914  15.902  0.00  0.00     0.024 A 
HETATM   17  C   UNK N   1      38.138   9.170  15.377  0.00  0.00     0.088 A 
HETATM   18  N   UNK N   1      38.641   8.103  16.063  0.00  0.00    -0.375 N 
HETATM   19  C   UNK N   1      38.132   7.729  17.265  0.00  0.00     0.088 A 
ATOM     20  HN  UNK N   1      39.417   7.575  15.663  1.00  0.00     0.164 HD
HETATM   21  C   UNK N   1      37.074   8.443  17.817  0.00  0.00     0.024 A 
ENDBRANCH  14  15
ENDBRANCH   8  14
ENDBRANCH   6   7
BRANCH   3  22
HETATM   22  O   UNK N   1      36.142  14.076  12.593  0.00  0.00    -0.345 OA
BRANCH  22  23
HETATM   23  C   UNK N   1      35.155  13.831  11.648  0.00  0.00     0.232 C 
BRANCH  23  24
HETATM   24  C   UNK N   1      34.710  14.912  10.745  0.00  0.00     0.034 A 
HETATM   25  C   UNK N   1      35.390  16.126  10.609  0.00  0.00     0.028 A 
HETATM   26  C   UNK N   1      34.888  17.091   9.726  0.00  0.00     0.016 A 
HETATM   27  C   UNK N   1      33.722  16.827   8.998  0.00  0.00    -0.009 A 
HETATM   28  C   UNK N   1      33.070  15.590   9.168  0.00  0.00     0.042 A 
HETATM   29  C   UNK N   1      33.197  17.770   8.110  0.00  0.00     0.013 A 
HETATM   30  N   UNK N   1      33.578  14.678  10.027  0.00  0.00    -0.357 N 
HETATM   31  C   UNK N   1      31.905  15.303   8.453  0.00  0.00     0.030 A 
ATOM     32  HN  UNK N   1      33.098  13.786  10.142  1.00  0.00     0.166 HD
HETATM   33  C   UNK N   1      31.384  16.248   7.566  0.00  0.00     0.002 A 
HETATM   34  C   UNK N   1      32.028  17.479   7.395  0.00  0.00     0.001 A 
ENDBRANCH  23  24
ENDBRANCH  22  23
ENDBRANCH   3  22
TORSDOF 6
ENDMDL
MODEL 8
REMARK VINA RESULT:      -8.2     10.279     14.758
REMARK  6 active torsions:
REMARK  status: ('A' for Active; 'I' for Inactive)
REMARK    1  A    between atoms: C_4  and  O_18 
REMARK    2  A    between atoms: C_5  and  C_4 
REMARK    3  A    between atoms: O_18  and  C_19 
REMARK    4  A    between atoms: C_22  and  C_23 
REMARK    5  A    between atoms: C_24  and  C_28 
REMARK    6  A    between atoms: C_28  and  C_29 
ROOT
HETATM    1  C   UNK N   1      21.288  12.860   8.093  0.00  0.00     0.016 A 
HETATM    2  C   UNK N   1      21.059  14.867   9.390  0.00  0.00     0.016 A 
HETATM    3  C   UNK N   1      20.306  14.783   7.055  0.00  0.00     0.069 A 
HETATM    4  C   UNK N   1      20.472  15.503   8.260  0.00  0.00     0.037 A 
HETATM    5  C   UNK N   1      20.728  13.457   7.009  0.00  0.00     0.037 A 
HETATM    6  C   UNK N   1      21.473  13.519   9.297  0.00  0.00    -0.007 A 
ENDROOT
BRANCH   6   7
HETATM    7  C   UNK N   1      22.102  12.732  10.403  0.00  0.00     0.066 A 
HETATM    8  C   UNK N   1      23.472  12.581  10.594  0.00  0.00    -0.008 A 
HETATM    9  C   UNK N   1      23.606  11.790  11.712  0.00  0.00     0.116 A 
HETATM   10  N   UNK N   1      22.361  11.491  12.157  0.00  0.00    -0.311 N 
HETATM   11  N   UNK N   1      21.452  12.060  11.365  0.00  0.00    -0.300 N 
HETATM   12  H   UNK N   1      22.158  10.937  12.945  0.00  0.00     0.186 HD
ATOM     13  HN  UNK N   1      20.440  11.996  11.472  1.00  0.00     0.187 HD
BRANCH   8  14
HETATM   14  C   UNK N   1      24.495  13.210   9.686  0.00  0.00     0.081 C 
BRANCH  14  15
HETATM   15  C   UNK N   1      24.780  13.101   8.237  0.00  0.00    -0.051 A 
HETATM   16  C   UNK N   1      24.478  11.988   7.456  0.00  0.00     0.024 A 
HETATM   17  C   UNK N   1      24.803  12.017   6.092  0.00  0.00     0.088 A 
HETATM   18  N   UNK N   1      25.402  13.114   5.547  0.00  0.00    -0.375 N 
HETATM   19  C   UNK N   1      25.701  14.206   6.298  0.00  0.00     0.088 A 
ATOM     20  HN  UNK N   1      25.630  13.115   4.552  1.00  0.00     0.164 HD
HETATM   21  C   UNK N   1      25.394  14.214   7.654  0.00  0.00     0.024 A 
ENDBRANCH  14  15
ENDBRANCH   8  14
ENDBRANCH   6   7
BRANCH   3  22
HETATM   22  O   UNK N   1      19.752  15.326   5.933  0.00  0.00    -0.345 OA
BRANCH  22  23
HETATM   23  C   UNK N   1      20.514  15.285   4.774  0.00  0.00     0.232 C 
BRANCH  23  24
HETATM   24  C   UNK N   1      21.585  16.280   4.555  0.00  0.00     0.034 A 
HETATM   25  C   UNK N   1      22.909  16.082   4.959  0.00  0.00     0.028 A 
HETATM   26  C   UNK N   1      23.853  17.085   4.707  0.00  0.00     0.016 A 
HETATM   27  C   UNK N   1      23.461  18.262   4.059  0.00  0.00    -0.009 A 
HETATM   28  C   UNK N   1      22.116  18.417   3.671  0.00  0.00     0.042 A 
HETATM   29  C   UNK N   1      24.380  19.280   3.794  0.00  0.00     0.013 A 
HETATM   30  N   UNK N   1      21.227  17.431   3.928  0.00  0.00    -0.357 N 
HETATM   31  C   UNK N   1      21.699  19.583   3.023  0.00  0.00     0.030 A 
ATOM     32  HN  UNK N   1      20.256  17.555   3.642  1.00  0.00     0.166 HD
HETATM   33  C   UNK N   1      22.621  20.598   2.760  0.00  0.00     0.002 A 
HETATM   34  C   UNK N   1      23.959  20.447   3.145  0.00  0.00     0.001 A 
ENDBRANCH  23  24
ENDBRANCH  22  23
ENDBRANCH   3  22
TORSDOF 6
ENDMDL
MODEL 9
REMARK VINA RESULT:      -8.2      2.753     10.297
REMARK  6 active torsions:
REMARK  status: ('A' for Active; 'I' for Inactive)
REMARK    1  A    between atoms: C_4  and  O_18 
REMARK    2  A    between atoms: C_5  and  C_4 
REMARK    3  A    between atoms: O_18  and  C_19 
REMARK    4  A    between atoms: C_22  and  C_23 
REMARK    5  A    between atoms: C_24  and  C_28 
REMARK    6  A    between atoms: C_28  and  C_29 
ROOT
HETATM    1  C   UNK N   1      35.715  11.681  12.983  0.00  0.00     0.016 A 
HETATM    2  C   UNK N   1      36.973  13.196  14.356  0.00  0.00     0.016 A 
HETATM    3  C   UNK N   1      35.377  14.034  12.689  0.00  0.00     0.069 A 
HETATM    4  C   UNK N   1      36.328  14.285  13.703  0.00  0.00     0.037 A 
HETATM    5  C   UNK N   1      35.095  12.713  12.354  0.00  0.00     0.037 A 
HETATM    6  C   UNK N   1      36.655  11.871  13.983  0.00  0.00    -0.007 A 
ENDROOT
BRANCH   6   7
HETATM    7  C   UNK N   1      37.253  10.638  14.583  0.00  0.00     0.066 A 
HETATM    8  C   UNK N   1      36.791  10.007  15.733  0.00  0.00    -0.008 A 
HETATM    9  C   UNK N   1      37.622   8.927  15.924  0.00  0.00     0.116 A 
HETATM   10  N   UNK N   1      38.536   8.928  14.922  0.00  0.00    -0.311 N 
HETATM   11  N   UNK N   1      38.311   9.963  14.112  0.00  0.00    -0.300 N 
HETATM   12  H   UNK N   1      39.255   8.265  14.810  0.00  0.00     0.186 HD
ATOM     13  HN  UNK N   1      38.852  10.199  13.279  1.00  0.00     0.187 HD
BRANCH   8  14
HETATM   14  C   UNK N   1      35.608  10.509  16.518  0.00  0.00     0.081 C 
BRANCH  14  15
HETATM   15  C   UNK N   1      35.460  11.439  17.661  0.00  0.00    -0.051 A 
HETATM   16  C   UNK N   1      35.548  11.063  19.000  0.00  0.00     0.024 A 
HETATM   17  C   UNK N   1      35.388  12.048  19.985  0.00  0.00     0.088 A 
HETATM   18  N   UNK N   1      35.152  13.344  19.635  0.00  0.00    -0.375 N 
HETATM   19  C   UNK N   1      35.065  13.723  18.333  0.00  0.00     0.088 A 
ATOM     20  HN  UNK N   1      35.039  14.046  20.368  1.00  0.00     0.164 HD
HETATM   21  C   UNK N   1      35.218  12.775  17.328  0.00  0.00     0.024 A 
ENDBRANCH  14  15
ENDBRANCH   8  14
ENDBRANCH   6   7
BRANCH   3  22
HETATM   22  O   UNK N   1      34.721  15.026  12.021  0.00  0.00    -0.345 OA
BRANCH  22  23
HETATM   23  C   UNK N   1      35.471  15.793  11.140  0.00  0.00     0.232 C 
BRANCH  23  24
HETATM   24  C   UNK N   1      35.291  15.635   9.682  0.00  0.00     0.034 A 
HETATM   25  C   UNK N   1      35.836  14.575   8.952  0.00  0.00     0.028 A 
HETATM   26  C   UNK N   1      35.608  14.513   7.572  0.00  0.00     0.016 A 
HETATM   27  C   UNK N   1      34.844  15.506   6.948  0.00  0.00    -0.009 A 
HETATM   28  C   UNK N   1      34.315  16.555   7.724  0.00  0.00     0.042 A 
HETATM   29  C   UNK N   1      34.600  15.471   5.572  0.00  0.00     0.013 A 
HETATM   30  N   UNK N   1      34.551  16.589   9.054  0.00  0.00    -0.357 N 
HETATM   31  C   UNK N   1      33.549  17.558   7.125  0.00  0.00     0.030 A 
ATOM     32  HN  UNK N   1      34.163  17.353   9.606  1.00  0.00     0.166 HD
HETATM   33  C   UNK N   1      33.308  17.519   5.749  0.00  0.00     0.002 A 
HETATM   34  C   UNK N   1      33.832  16.478   4.975  0.00  0.00     0.001 A 
ENDBRANCH  23  24
ENDBRANCH  22  23
ENDBRANCH   3  22
TORSDOF 6
ENDMDL
