MODEL 1
REMARK VINA RESULT:      -7.4      0.000      0.000
REMARK  3 active torsions:
REMARK  status: ('A' for Active; 'I' for Inactive)
REMARK       I    between atoms: C_2  and  N_3 
REMARK    1  A    between atoms: C_2  and  O_21 
REMARK    2  A    between atoms: C_6  and  C_9 
REMARK    3  A    between atoms: C_9  and  C_10 
ROOT
HETATM    1  C   UNK N   1      29.608  16.754   5.646  0.00  0.00    -0.042 A 
HETATM    2  C   UNK N   1      29.060  17.631   6.588  0.00  0.00     0.022 A 
HETATM    3  C   UNK N   1      28.301  18.723   6.162  0.00  0.00    -0.009 A 
HETATM    4  C   UNK N   1      27.742  19.609   7.086  0.00  0.00     0.014 A 
HETATM    5  C   UNK N   1      26.996  20.706   6.638  0.00  0.00     0.001 A 
HETATM    6  C   UNK N   1      26.810  20.920   5.268  0.00  0.00     0.002 A 
HETATM    7  C   UNK N   1      27.363  20.032   4.338  0.00  0.00     0.030 A 
HETATM    8  C   UNK N   1      28.105  18.934   4.779  0.00  0.00     0.042 A 
HETATM    9  N   UNK N   1      28.639  18.068   3.880  0.00  0.00    -0.365 N 
ATOM     10  HN  UNK N   1      28.487  18.225   2.884  1.00  0.00     0.165 HD
HETATM   11  C   UNK N   1      29.371  16.995   4.281  0.00  0.00     0.095 A 
ENDROOT
BRANCH   1  12
HETATM   12  C   UNK N   1      30.458  15.597   6.121  0.00  0.00     0.044 C 
BRANCH  12  13
HETATM   13  C   UNK N   1      31.858  15.982   6.608  0.00  0.00    -0.007 C 
HETATM   14  C   UNK N   1      32.032  15.744   8.105  0.00  0.00     0.025 C 
HETATM   15  C   UNK N   1      33.511  15.938   8.469  0.00  0.00     0.129 C 
HETATM   16  N   UNK N   1      34.024  17.196   7.948  0.00  0.00    -0.329 N 
HETATM   17  C   UNK N   1      34.846  17.974   8.703  0.00  0.00     0.252 C 
HETATM   18  C   UNK N   1      33.717  17.577   6.581  0.00  0.00     0.129 C 
HETATM   19  O   UNK N   1      35.322  19.001   8.244  0.00  0.00    -0.632 OA
HETATM   20  C   UNK N   1      32.225  17.433   6.323  0.00  0.00     0.025 C 
BRANCH  17  21
HETATM   21  O   UNK N   1      35.172  17.603   9.959  0.00  0.00    -0.760 OA
HETATM   22  H   UNK N   1      34.524  17.599  10.636  0.00  0.00     0.169 HD
ENDBRANCH  17  21
ENDBRANCH  12  13
ENDBRANCH   1  12
TORSDOF 3
ENDMDL
MODEL 2
REMARK VINA RESULT:      -7.2      5.780     10.158
REMARK  3 active torsions:
REMARK  status: ('A' for Active; 'I' for Inactive)
REMARK       I    between atoms: C_2  and  N_3 
REMARK    1  A    between atoms: C_2  and  O_21 
REMARK    2  A    between atoms: C_6  and  C_9 
REMARK    3  A    between atoms: C_9  and  C_10 
ROOT
HETATM    1  C   UNK N   1      35.436  13.092  12.441  0.00  0.00    -0.042 A 
HETATM    2  C   UNK N   1      34.901  11.909  12.960  0.00  0.00     0.022 A 
HETATM    3  C   UNK N   1      34.945  11.671  14.336  0.00  0.00    -0.009 A 
HETATM    4  C   UNK N   1      34.413  10.497  14.875  0.00  0.00     0.014 A 
HETATM    5  C   UNK N   1      34.480  10.270  16.255  0.00  0.00     0.001 A 
HETATM    6  C   UNK N   1      35.081  11.214  17.095  0.00  0.00     0.002 A 
HETATM    7  C   UNK N   1      35.610  12.393  16.561  0.00  0.00     0.030 A 
HETATM    8  C   UNK N   1      35.542  12.627  15.185  0.00  0.00     0.042 A 
HETATM    9  N   UNK N   1      36.051  13.773  14.664  0.00  0.00    -0.365 N 
ATOM     10  HN  UNK N   1      36.475  14.460  15.286  1.00  0.00     0.165 HD
HETATM   11  C   UNK N   1      36.005  14.022  13.328  0.00  0.00     0.095 A 
ENDROOT
BRANCH   1  12
HETATM   12  C   UNK N   1      35.413  13.320  10.946  0.00  0.00     0.044 C 
BRANCH  12  13
HETATM   13  C   UNK N   1      34.919  14.703  10.511  0.00  0.00    -0.007 C 
HETATM   14  C   UNK N   1      34.294  14.679   9.119  0.00  0.00     0.025 C 
HETATM   15  C   UNK N   1      33.630  16.036   8.851  0.00  0.00     0.129 C 
HETATM   16  N   UNK N   1      34.539  17.136   9.136  0.00  0.00    -0.329 N 
HETATM   17  C   UNK N   1      34.602  18.213   8.306  0.00  0.00     0.252 C 
HETATM   18  C   UNK N   1      35.320  17.115  10.359  0.00  0.00     0.129 C 
HETATM   19  O   UNK N   1      35.324  19.162   8.577  0.00  0.00    -0.632 OA
HETATM   20  C   UNK N   1      36.010  15.767  10.512  0.00  0.00     0.025 C 
BRANCH  17  21
HETATM   21  O   UNK N   1      33.845  18.260   7.191  0.00  0.00    -0.760 OA
HETATM   22  H   UNK N   1      32.944  18.004   7.218  0.00  0.00     0.169 HD
ENDBRANCH  17  21
ENDBRANCH  12  13
ENDBRANCH   1  12
TORSDOF 3
ENDMDL
MODEL 3
REMARK VINA RESULT:      -6.9      5.702      8.873
REMARK  3 active torsions:
REMARK  status: ('A' for Active; 'I' for Inactive)
REMARK       I    between atoms: C_2  and  N_3 
REMARK    1  A    between atoms: C_2  and  O_21 
REMARK    2  A    between atoms: C_6  and  C_9 
REMARK    3  A    between atoms: C_9  and  C_10 
ROOT
HETATM    1  C   UNK N   1      27.243  19.561   4.878  0.00  0.00    -0.042 A 
HETATM    2  C   UNK N   1      28.199  18.544   4.975  0.00  0.00     0.022 A 
HETATM    3  C   UNK N   1      28.732  18.208   6.221  0.00  0.00    -0.009 A 
HETATM    4  C   UNK N   1      29.686  17.193   6.339  0.00  0.00     0.014 A 
HETATM    5  C   UNK N   1      30.220  16.881   7.596  0.00  0.00     0.001 A 
HETATM    6  C   UNK N   1      29.803  17.583   8.732  0.00  0.00     0.002 A 
HETATM    7  C   UNK N   1      28.844  18.595   8.620  0.00  0.00     0.030 A 
HETATM    8  C   UNK N   1      28.305  18.908   7.369  0.00  0.00     0.042 A 
HETATM    9  N   UNK N   1      27.371  19.888   7.257  0.00  0.00    -0.365 N 
ATOM     10  HN  UNK N   1      27.064  20.384   8.093  1.00  0.00     0.165 HD
HETATM   11  C   UNK N   1      26.835  20.218   6.052  0.00  0.00     0.095 A 
ENDROOT
BRANCH   1  12
HETATM   12  C   UNK N   1      26.701  19.938   3.518  0.00  0.00     0.044 C 
BRANCH  12  13
HETATM   13  C   UNK N   1      25.223  19.601   3.296  0.00  0.00    -0.007 C 
HETATM   14  C   UNK N   1      24.344  20.849   3.280  0.00  0.00     0.025 C 
HETATM   15  C   UNK N   1      22.930  20.453   2.835  0.00  0.00     0.129 C 
HETATM   16  N   UNK N   1      22.433  19.317   3.597  0.00  0.00    -0.329 N 
HETATM   17  C   UNK N   1      21.143  19.288   4.031  0.00  0.00     0.252 C 
HETATM   18  C   UNK N   1      23.301  18.176   3.821  0.00  0.00     0.129 C 
HETATM   19  O   UNK N   1      20.711  18.309   4.622  0.00  0.00    -0.632 OA
HETATM   20  C   UNK N   1      24.654  18.645   4.336  0.00  0.00     0.025 C 
BRANCH  17  21
HETATM   21  O   UNK N   1      20.317  20.326   3.787  0.00  0.00    -0.760 OA
HETATM   22  H   UNK N   1      19.537  20.441   4.292  0.00  0.00     0.169 HD
ENDBRANCH  17  21
ENDBRANCH  12  13
ENDBRANCH   1  12
TORSDOF 3
ENDMDL
MODEL 4
REMARK VINA RESULT:      -6.8      8.739     11.029
REMARK  3 active torsions:
REMARK  status: ('A' for Active; 'I' for Inactive)
REMARK       I    between atoms: C_2  and  N_3 
REMARK    1  A    between atoms: C_2  and  O_21 
REMARK    2  A    between atoms: C_6  and  C_9 
REMARK    3  A    between atoms: C_9  and  C_10 
ROOT
HETATM    1  C   UNK N   1      23.576  14.735   6.842  0.00  0.00    -0.042 A 
HETATM    2  C   UNK N   1      22.311  14.687   7.437  0.00  0.00     0.022 A 
HETATM    3  C   UNK N   1      22.117  13.936   8.598  0.00  0.00    -0.009 A 
HETATM    4  C   UNK N   1      20.862  13.878   9.211  0.00  0.00     0.014 A 
HETATM    5  C   UNK N   1      20.685  13.107  10.366  0.00  0.00     0.001 A 
HETATM    6  C   UNK N   1      21.760  12.393  10.908  0.00  0.00     0.002 A 
HETATM    7  C   UNK N   1      23.019  12.453  10.303  0.00  0.00     0.030 A 
HETATM    8  C   UNK N   1      23.203  13.223   9.152  0.00  0.00     0.042 A 
HETATM    9  N   UNK N   1      24.425  13.287   8.564  0.00  0.00    -0.365 N 
ATOM     10  HN  UNK N   1      25.205  12.774   8.974  1.00  0.00     0.165 HD
HETATM   11  C   UNK N   1      24.631  14.023   7.439  0.00  0.00     0.095 A 
ENDROOT
BRANCH   1  12
HETATM   12  C   UNK N   1      23.762  15.523   5.565  0.00  0.00     0.044 C 
BRANCH  12  13
HETATM   13  C   UNK N   1      22.570  16.400   5.168  0.00  0.00    -0.007 C 
HETATM   14  C   UNK N   1      22.266  16.315   3.675  0.00  0.00     0.025 C 
HETATM   15  C   UNK N   1      20.940  17.035   3.397  0.00  0.00     0.129 C 
HETATM   16  N   UNK N   1      20.925  18.365   3.989  0.00  0.00    -0.329 N 
HETATM   17  C   UNK N   1      20.402  19.419   3.306  0.00  0.00     0.252 C 
HETATM   18  C   UNK N   1      21.398  18.543   5.349  0.00  0.00     0.129 C 
HETATM   19  O   UNK N   1      20.338  20.524   3.825  0.00  0.00    -0.632 OA
HETATM   20  C   UNK N   1      22.752  17.871   5.522  0.00  0.00     0.025 C 
BRANCH  17  21
HETATM   21  O   UNK N   1      19.919  19.251   2.058  0.00  0.00    -0.760 OA
HETATM   22  H   UNK N   1      20.358  18.690   1.450  0.00  0.00     0.169 HD
ENDBRANCH  17  21
ENDBRANCH  12  13
ENDBRANCH   1  12
TORSDOF 3
ENDMDL
MODEL 5
REMARK VINA RESULT:      -6.8      7.366     11.468
REMARK  3 active torsions:
REMARK  status: ('A' for Active; 'I' for Inactive)
REMARK       I    between atoms: C_2  and  N_3 
REMARK    1  A    between atoms: C_2  and  O_21 
REMARK    2  A    between atoms: C_6  and  C_9 
REMARK    3  A    between atoms: C_9  and  C_10 
ROOT
HETATM    1  C   UNK N   1      35.767  11.618  14.117  0.00  0.00    -0.042 A 
HETATM    2  C   UNK N   1      35.430  12.658  14.991  0.00  0.00     0.022 A 
HETATM    3  C   UNK N   1      35.427  12.434  16.369  0.00  0.00    -0.009 A 
HETATM    4  C   UNK N   1      35.097  13.460  17.259  0.00  0.00     0.014 A 
HETATM    5  C   UNK N   1      35.085  13.212  18.637  0.00  0.00     0.001 A 
HETATM    6  C   UNK N   1      35.400  11.939  19.126  0.00  0.00     0.002 A 
HETATM    7  C   UNK N   1      35.737  10.910  18.240  0.00  0.00     0.030 A 
HETATM    8  C   UNK N   1      35.754  11.153  16.864  0.00  0.00     0.042 A 
HETATM    9  N   UNK N   1      36.085  10.158  16.001  0.00  0.00    -0.365 N 
ATOM     10  HN  UNK N   1      36.326   9.238  16.368  1.00  0.00     0.165 HD
HETATM   11  C   UNK N   1      36.103  10.365  14.658  0.00  0.00     0.095 A 
ENDROOT
BRANCH   1  12
HETATM   12  C   UNK N   1      35.732  11.865  12.626  0.00  0.00     0.044 C 
BRANCH  12  13
HETATM   13  C   UNK N   1      35.263  13.265  12.215  0.00  0.00    -0.007 C 
HETATM   14  C   UNK N   1      34.546  13.258  10.867  0.00  0.00     0.025 C 
HETATM   15  C   UNK N   1      33.919  14.639  10.633  0.00  0.00     0.129 C 
HETATM   16  N   UNK N   1      34.886  15.704  10.849  0.00  0.00    -0.329 N 
HETATM   17  C   UNK N   1      34.936  16.773  10.008  0.00  0.00     0.252 C 
HETATM   18  C   UNK N   1      35.746  15.658  12.017  0.00  0.00     0.129 C 
HETATM   19  O   UNK N   1      35.710  17.694  10.223  0.00  0.00    -0.632 OA
HETATM   20  C   UNK N   1      36.392  14.285  12.135  0.00  0.00     0.025 C 
BRANCH  17  21
HETATM   21  O   UNK N   1      34.109  16.844   8.945  0.00  0.00    -0.760 OA
HETATM   22  H   UNK N   1      33.599  17.615   8.791  0.00  0.00     0.169 HD
ENDBRANCH  17  21
ENDBRANCH  12  13
ENDBRANCH   1  12
TORSDOF 3
ENDMDL
MODEL 6
REMARK VINA RESULT:      -6.8      9.249     11.590
REMARK  3 active torsions:
REMARK  status: ('A' for Active; 'I' for Inactive)
REMARK       I    between atoms: C_2  and  N_3 
REMARK    1  A    between atoms: C_2  and  O_21 
REMARK    2  A    between atoms: C_6  and  C_9 
REMARK    3  A    between atoms: C_9  and  C_10 
ROOT
HETATM    1  C   UNK N   1      21.416  14.404   7.825  0.00  0.00    -0.042 A 
HETATM    2  C   UNK N   1      21.186  13.796   9.064  0.00  0.00     0.022 A 
HETATM    3  C   UNK N   1      22.244  13.199   9.752  0.00  0.00    -0.009 A 
HETATM    4  C   UNK N   1      22.037  12.589  10.992  0.00  0.00     0.014 A 
HETATM    5  C   UNK N   1      23.108  11.982  11.659  0.00  0.00     0.001 A 
HETATM    6  C   UNK N   1      24.385  11.982  11.087  0.00  0.00     0.002 A 
HETATM    7  C   UNK N   1      24.599  12.596   9.849  0.00  0.00     0.030 A 
HETATM    8  C   UNK N   1      23.535  13.206   9.180  0.00  0.00     0.042 A 
HETATM    9  N   UNK N   1      23.740  13.807   7.979  0.00  0.00    -0.365 N 
ATOM     10  HN  UNK N   1      24.677  13.813   7.577  1.00  0.00     0.165 HD
HETATM   11  C   UNK N   1      22.722  14.402   7.304  0.00  0.00     0.095 A 
ENDROOT
BRANCH   1  12
HETATM   12  C   UNK N   1      20.254  15.016   7.075  0.00  0.00     0.044 C 
BRANCH  12  13
HETATM   13  C   UNK N   1      20.647  15.984   5.955  0.00  0.00    -0.007 C 
HETATM   14  C   UNK N   1      20.901  17.395   6.477  0.00  0.00     0.025 C 
HETATM   15  C   UNK N   1      21.499  18.242   5.345  0.00  0.00     0.129 C 
HETATM   16  N   UNK N   1      20.709  18.132   4.127  0.00  0.00    -0.329 N 
HETATM   17  C   UNK N   1      20.457  19.231   3.366  0.00  0.00     0.252 C 
HETATM   18  C   UNK N   1      20.261  16.824   3.686  0.00  0.00     0.129 C 
HETATM   19  O   UNK N   1      19.843  19.129   2.314  0.00  0.00    -0.632 OA
HETATM   20  C   UNK N   1      19.609  16.080   4.843  0.00  0.00     0.025 C 
BRANCH  17  21
HETATM   21  O   UNK N   1      20.911  20.443   3.746  0.00  0.00    -0.760 OA
HETATM   22  H   UNK N   1      21.409  20.971   3.154  0.00  0.00     0.169 HD
ENDBRANCH  17  21
ENDBRANCH  12  13
ENDBRANCH   1  12
TORSDOF 3
ENDMDL
MODEL 7
REMARK VINA RESULT:      -6.8      2.926      4.222
REMARK  3 active torsions:
REMARK  status: ('A' for Active; 'I' for Inactive)
REMARK       I    between atoms: C_2  and  N_3 
REMARK    1  A    between atoms: C_2  and  O_21 
REMARK    2  A    between atoms: C_6  and  C_9 
REMARK    3  A    between atoms: C_9  and  C_10 
ROOT
HETATM    1  C   UNK N   1      32.873  17.449   7.698  0.00  0.00    -0.042 A 
HETATM    2  C   UNK N   1      31.944  17.906   8.639  0.00  0.00     0.022 A 
HETATM    3  C   UNK N   1      30.579  17.862   8.346  0.00  0.00    -0.009 A 
HETATM    4  C   UNK N   1      29.635  18.311   9.273  0.00  0.00     0.014 A 
HETATM    5  C   UNK N   1      28.271  18.272   8.954  0.00  0.00     0.001 A 
HETATM    6  C   UNK N   1      27.853  17.789   7.709  0.00  0.00     0.002 A 
HETATM    7  C   UNK N   1      28.794  17.333   6.780  0.00  0.00     0.030 A 
HETATM    8  C   UNK N   1      30.155  17.365   7.094  0.00  0.00     0.042 A 
HETATM    9  N   UNK N   1      31.071  16.920   6.197  0.00  0.00    -0.365 N 
ATOM     10  HN  UNK N   1      30.755  16.557   5.297  1.00  0.00     0.165 HD
HETATM   11  C   UNK N   1      32.402  16.947   6.473  0.00  0.00     0.095 A 
ENDROOT
BRANCH   1  12
HETATM   12  C   UNK N   1      34.349  17.536   8.016  0.00  0.00     0.044 C 
BRANCH  12  13
HETATM   13  C   UNK N   1      34.870  16.453   8.966  0.00  0.00    -0.007 C 
HETATM   14  C   UNK N   1      33.831  15.365   9.223  0.00  0.00     0.025 C 
HETATM   15  C   UNK N   1      34.497  14.217   9.994  0.00  0.00     0.129 C 
HETATM   16  N   UNK N   1      35.223  14.710  11.155  0.00  0.00    -0.329 N 
HETATM   17  C   UNK N   1      35.166  14.043  12.340  0.00  0.00     0.252 C 
HETATM   18  C   UNK N   1      36.076  15.876  11.018  0.00  0.00     0.129 C 
HETATM   19  O   UNK N   1      35.822  14.425  13.298  0.00  0.00    -0.632 OA
HETATM   20  C   UNK N   1      35.320  16.995  10.317  0.00  0.00     0.025 C 
BRANCH  17  21
HETATM   21  O   UNK N   1      34.411  12.932  12.461  0.00  0.00    -0.760 OA
HETATM   22  H   UNK N   1      34.529  12.211  11.875  0.00  0.00     0.169 HD
ENDBRANCH  17  21
ENDBRANCH  12  13
ENDBRANCH   1  12
TORSDOF 3
ENDMDL
MODEL 8
REMARK VINA RESULT:      -6.8      3.710      5.218
REMARK  3 active torsions:
REMARK  status: ('A' for Active; 'I' for Inactive)
REMARK       I    between atoms: C_2  and  N_3 
REMARK    1  A    between atoms: C_2  and  O_21 
REMARK    2  A    between atoms: C_6  and  C_9 
REMARK    3  A    between atoms: C_9  and  C_10 
ROOT
HETATM    1  C   UNK N   1      26.070  19.579   3.947  0.00  0.00    -0.042 A 
HETATM    2  C   UNK N   1      25.163  18.797   4.669  0.00  0.00     0.022 A 
HETATM    3  C   UNK N   1      23.796  18.888   4.396  0.00  0.00    -0.009 A 
HETATM    4  C   UNK N   1      22.873  18.113   5.104  0.00  0.00     0.014 A 
HETATM    5  C   UNK N   1      21.506  18.229   4.826  0.00  0.00     0.001 A 
HETATM    6  C   UNK N   1      21.060  19.121   3.844  0.00  0.00     0.002 A 
HETATM    7  C   UNK N   1      21.980  19.894   3.128  0.00  0.00     0.030 A 
HETATM    8  C   UNK N   1      23.346  19.780   3.399  0.00  0.00     0.042 A 
HETATM    9  N   UNK N   1      24.243  20.526   2.703  0.00  0.00    -0.365 N 
ATOM     10  HN  UNK N   1      23.909  21.163   1.980  1.00  0.00     0.165 HD
HETATM   11  C   UNK N   1      25.577  20.440   2.951  0.00  0.00     0.095 A 
ENDROOT
BRANCH   1  12
HETATM   12  C   UNK N   1      27.543  19.496   4.277  0.00  0.00     0.044 C 
BRANCH  12  13
HETATM   13  C   UNK N   1      27.871  18.776   5.589  0.00  0.00    -0.007 C 
HETATM   14  C   UNK N   1      27.979  19.743   6.765  0.00  0.00     0.025 C 
HETATM   15  C   UNK N   1      28.087  18.933   8.064  0.00  0.00     0.129 C 
HETATM   16  N   UNK N   1      29.117  17.910   7.967  0.00  0.00    -0.329 N 
HETATM   17  C   UNK N   1      29.954  17.672   9.013  0.00  0.00     0.252 C 
HETATM   18  C   UNK N   1      29.193  17.088   6.774  0.00  0.00     0.129 C 
HETATM   19  O   UNK N   1      30.782  16.775   8.952  0.00  0.00    -0.632 OA
HETATM   20  C   UNK N   1      29.162  17.968   5.533  0.00  0.00     0.025 C 
BRANCH  17  21
HETATM   21  O   UNK N   1      29.859  18.403  10.143  0.00  0.00    -0.760 OA
HETATM   22  H   UNK N   1      29.660  17.990  10.960  0.00  0.00     0.169 HD
ENDBRANCH  17  21
ENDBRANCH  12  13
ENDBRANCH   1  12
TORSDOF 3
ENDMDL
MODEL 9
REMARK VINA RESULT:      -6.6      5.109      9.518
REMARK  3 active torsions:
REMARK  status: ('A' for Active; 'I' for Inactive)
REMARK       I    between atoms: C_2  and  N_3 
REMARK    1  A    between atoms: C_2  and  O_21 
REMARK    2  A    between atoms: C_6  and  C_9 
REMARK    3  A    between atoms: C_9  and  C_10 
ROOT
HETATM    1  C   UNK N   1      35.575  12.977  11.433  0.00  0.00    -0.042 A 
HETATM    2  C   UNK N   1      34.847  12.398  12.478  0.00  0.00     0.022 A 
HETATM    3  C   UNK N   1      35.155  12.718  13.802  0.00  0.00    -0.009 A 
HETATM    4  C   UNK N   1      34.437  12.153  14.859  0.00  0.00     0.014 A 
HETATM    5  C   UNK N   1      34.770  12.475  16.180  0.00  0.00     0.001 A 
HETATM    6  C   UNK N   1      35.822  13.359  16.445  0.00  0.00     0.002 A 
HETATM    7  C   UNK N   1      36.540  13.933  15.390  0.00  0.00     0.030 A 
HETATM    8  C   UNK N   1      36.209  13.618  14.070  0.00  0.00     0.042 A 
HETATM    9  N   UNK N   1      36.901  14.175  13.043  0.00  0.00    -0.365 N 
ATOM     10  HN  UNK N   1      37.657  14.829  13.246  1.00  0.00     0.165 HD
HETATM   11  C   UNK N   1      36.605  13.881  11.749  0.00  0.00     0.095 A 
ENDROOT
BRANCH   1  12
HETATM   12  C   UNK N   1      35.254  12.594  10.007  0.00  0.00     0.044 C 
BRANCH  12  13
HETATM   13  C   UNK N   1      34.607  13.702   9.171  0.00  0.00    -0.007 C 
HETATM   14  C   UNK N   1      35.632  14.468   8.338  0.00  0.00     0.025 C 
HETATM   15  C   UNK N   1      34.888  15.400   7.372  0.00  0.00     0.129 C 
HETATM   16  N   UNK N   1      33.890  16.198   8.068  0.00  0.00    -0.329 N 
HETATM   17  C   UNK N   1      33.724  17.514   7.766  0.00  0.00     0.252 C 
HETATM   18  C   UNK N   1      33.014  15.558   9.032  0.00  0.00     0.129 C 
HETATM   19  O   UNK N   1      32.847  18.169   8.311  0.00  0.00    -0.632 OA
HETATM   20  C   UNK N   1      33.832  14.717  10.001  0.00  0.00     0.025 C 
BRANCH  17  21
HETATM   21  O   UNK N   1      34.505  18.105   6.839  0.00  0.00    -0.760 OA
HETATM   22  H   UNK N   1      35.351  17.757   6.639  0.00  0.00     0.169 HD
ENDBRANCH  17  21
ENDBRANCH  12  13
ENDBRANCH   1  12
TORSDOF 3
ENDMDL
