REMARK  5 active torsions:
REMARK  status: ('A' for Active; 'I' for Inactive)
REMARK    1  A    between atoms: C_4  and  C_7 
REMARK    2  A    between atoms: O_18  and  C_6 
REMARK    3  A    between atoms: C_7  and  O_18 
REMARK    4  A    between atoms: C_20  and  C_21 
REMARK    5  A    between atoms: C_26  and  C_22 
ROOT
HETATM    1  C   UNK N   1      -1.784  -0.426  -0.112  0.00  0.00     0.016 A 
HETATM    2  C   UNK N   1      -2.222   2.320  -0.056  0.00  0.00     0.037 A 
HETATM    3  C   UNK N   1      -3.307   1.432  -0.144  0.00  0.00     0.016 A 
HETATM    4  C   UNK N   1      -0.917   1.822   0.045  0.00  0.00     0.069 A 
HETATM    5  C   UNK N   1      -0.706   0.441  -0.006  0.00  0.00     0.037 A 
HETATM    6  C   UNK N   1      -3.094   0.041  -0.149  0.00  0.00    -0.007 A 
ENDROOT
BRANCH   6   7
HETATM    7  C   UNK N   1      -4.258  -0.891  -0.152  0.00  0.00     0.070 A 
HETATM    8  C   UNK N   1      -4.325  -2.299  -0.107  0.00  0.00     0.020 A 
HETATM    9  C   UNK N   1      -5.682  -2.583  -0.125  0.00  0.00     0.121 A 
HETATM   10  N   UNK N   1      -6.368  -1.426  -0.168  0.00  0.00    -0.311 N 
HETATM   11  N   UNK N   1      -5.517  -0.413  -0.183  0.00  0.00    -0.299 N 
HETATM   12  H   UNK N   1      -7.349  -1.347  -0.185  0.00  0.00     0.186 HD
ATOM     13  HN  UNK N   1      -5.774   0.573  -0.214  1.00  0.00     0.187 HD
BRANCH   8  14
HETATM   14  C   UNK N   1      -3.293  -3.382  -0.037  0.00  0.00    -0.020 A 
HETATM   15  C   UNK N   1      -1.929  -3.123   0.098  0.00  0.00     0.029 A 
HETATM   16  C   UNK N   1      -1.007  -4.167   0.168  0.00  0.00     0.088 A 
HETATM   17  N   UNK N   1      -1.435  -5.454   0.104  0.00  0.00    -0.375 N 
HETATM   18  C   UNK N   1      -2.755  -5.750  -0.023  0.00  0.00     0.088 A 
ATOM     19  HN  UNK N   1      -0.753  -6.211   0.153  1.00  0.00     0.164 HD
HETATM   20  C   UNK N   1      -3.702  -4.724  -0.092  0.00  0.00     0.029 A 
ENDBRANCH   8  14
ENDBRANCH   6   7
BRANCH   4  21
HETATM   21  O   UNK N   1       0.116   2.666   0.274  0.00  0.00    -0.345 OA
BRANCH  21  22
HETATM   22  C   UNK N   1       1.155   2.270   1.094  0.00  0.00     0.232 C 
BRANCH  22  23
HETATM   23  C   UNK N   1       2.514   2.488   0.526  0.00  0.00     0.034 A 
HETATM   24  N   UNK N   1       3.382   1.441   0.456  0.00  0.00    -0.357 N 
HETATM   25  C   UNK N   1       4.682   1.617   0.095  0.00  0.00     0.042 A 
ATOM     26  HN  UNK N   1       3.051   0.502   0.680  1.00  0.00     0.166 HD
HETATM   27  C   UNK N   1       5.557   0.528   0.056  0.00  0.00     0.030 A 
HETATM   28  C   UNK N   1       5.156   2.910  -0.212  0.00  0.00    -0.009 A 
HETATM   29  C   UNK N   1       6.901   0.724  -0.283  0.00  0.00     0.002 A 
HETATM   30  C   UNK N   1       7.371   2.007  -0.584  0.00  0.00     0.001 A 
HETATM   31  C   UNK N   1       6.498   3.101  -0.551  0.00  0.00     0.013 A 
HETATM   32  C   UNK N   1       4.276   3.991  -0.157  0.00  0.00     0.016 A 
HETATM   33  C   UNK N   1       2.949   3.783   0.224  0.00  0.00     0.028 A 
ENDBRANCH  22  23
ENDBRANCH  21  22
ENDBRANCH   4  21
TORSDOF 5
