MODEL 1
REMARK VINA RESULT:      -8.5      0.000      0.000
REMARK  5 active torsions:
REMARK  status: ('A' for Active; 'I' for Inactive)
REMARK    1  A    between atoms: C_4  and  C_7 
REMARK    2  A    between atoms: O_18  and  C_6 
REMARK    3  A    between atoms: C_7  and  O_18 
REMARK    4  A    between atoms: C_20  and  C_21 
REMARK    5  A    between atoms: C_26  and  C_22 
ROOT
HETATM    1  C   UNK N   1      34.572  12.346  15.609  0.00  0.00     0.016 A 
HETATM    2  C   UNK N   1      36.558  14.032  14.635  0.00  0.00     0.037 A 
HETATM    3  C   UNK N   1      36.397  13.854  16.019  0.00  0.00     0.016 A 
HETATM    4  C   UNK N   1      35.744  13.327  13.740  0.00  0.00     0.069 A 
HETATM    5  C   UNK N   1      34.735  12.499  14.239  0.00  0.00     0.037 A 
HETATM    6  C   UNK N   1      35.409  12.985  16.518  0.00  0.00    -0.007 A 
ENDROOT
BRANCH   6   7
HETATM    7  C   UNK N   1      35.307  12.736  17.985  0.00  0.00     0.070 A 
HETATM    8  C   UNK N   1      35.337  11.541  18.732  0.00  0.00     0.020 A 
HETATM    9  C   UNK N   1      35.209  11.952  20.050  0.00  0.00     0.121 A 
HETATM   10  N   UNK N   1      35.119  13.294  20.081  0.00  0.00    -0.311 N 
HETATM   11  N   UNK N   1      35.178  13.765  18.845  0.00  0.00    -0.299 N 
HETATM   12  H   UNK N   1      35.024  13.839  20.895  0.00  0.00     0.186 HD
ATOM     13  HN  UNK N   1      35.133  14.750  18.587  1.00  0.00     0.187 HD
BRANCH   8  14
HETATM   14  C   UNK N   1      35.483  10.096  18.367  0.00  0.00    -0.020 A 
HETATM   15  C   UNK N   1      34.578   9.115  18.774  0.00  0.00     0.029 A 
HETATM   16  C   UNK N   1      34.752   7.783  18.400  0.00  0.00     0.088 A 
HETATM   17  N   UNK N   1      35.813   7.429  17.630  0.00  0.00    -0.375 N 
HETATM   18  C   UNK N   1      36.715   8.353  17.209  0.00  0.00     0.088 A 
ATOM     19  HN  UNK N   1      35.933   6.451  17.364  1.00  0.00     0.164 HD
HETATM   20  C   UNK N   1      36.564   9.696  17.565  0.00  0.00     0.029 A 
ENDBRANCH   8  14
ENDBRANCH   6   7
BRANCH   4  21
HETATM   21  O   UNK N   1      35.990  13.384  12.410  0.00  0.00    -0.345 OA
BRANCH  21  22
HETATM   22  C   UNK N   1      34.945  13.261  11.515  0.00  0.00     0.232 C 
BRANCH  22  23
HETATM   23  C   UNK N   1      34.573  14.522  10.815  0.00  0.00     0.034 A 
HETATM   24  N   UNK N   1      33.485  14.532   9.996  0.00  0.00    -0.357 N 
HETATM   25  C   UNK N   1      33.194  15.607   9.213  0.00  0.00     0.042 A 
ATOM     26  HN  UNK N   1      32.874  13.716   9.967  1.00  0.00     0.166 HD
HETATM   27  C   UNK N   1      32.086  15.581   8.363  0.00  0.00     0.030 A 
HETATM   28  C   UNK N   1      34.033  16.741   9.238  0.00  0.00    -0.009 A 
HETATM   29  C   UNK N   1      31.814  16.677   7.536  0.00  0.00     0.002 A 
HETATM   30  C   UNK N   1      32.648  17.800   7.559  0.00  0.00     0.001 A 
HETATM   31  C   UNK N   1      33.758  17.834   8.412  0.00  0.00     0.013 A 
HETATM   32  C   UNK N   1      35.145  16.750  10.082  0.00  0.00     0.016 A 
HETATM   33  C   UNK N   1      35.424  15.631  10.868  0.00  0.00     0.028 A 
ENDBRANCH  22  23
ENDBRANCH  21  22
ENDBRANCH   4  21
TORSDOF 5
ENDMDL
MODEL 2
REMARK VINA RESULT:      -8.3      3.385     11.077
REMARK  5 active torsions:
REMARK  status: ('A' for Active; 'I' for Inactive)
REMARK    1  A    between atoms: C_4  and  C_7 
REMARK    2  A    between atoms: O_18  and  C_6 
REMARK    3  A    between atoms: C_7  and  O_18 
REMARK    4  A    between atoms: C_20  and  C_21 
REMARK    5  A    between atoms: C_26  and  C_22 
ROOT
HETATM    1  C   UNK N   1      32.990  15.956   7.765  0.00  0.00     0.016 A 
HETATM    2  C   UNK N   1      34.614  18.092   8.498  0.00  0.00     0.037 A 
HETATM    3  C   UNK N   1      33.813  18.175   7.347  0.00  0.00     0.016 A 
HETATM    4  C   UNK N   1      34.566  16.947   9.303  0.00  0.00     0.069 A 
HETATM    5  C   UNK N   1      33.763  15.871   8.914  0.00  0.00     0.037 A 
HETATM    6  C   UNK N   1      32.971  17.107   6.984  0.00  0.00    -0.007 A 
ENDROOT
BRANCH   6   7
HETATM    7  C   UNK N   1      32.060  17.243   5.811  0.00  0.00     0.070 A 
HETATM    8  C   UNK N   1      30.653  17.298   5.725  0.00  0.00     0.020 A 
HETATM    9  C   UNK N   1      30.393  17.440   4.371  0.00  0.00     0.121 A 
HETATM   10  N   UNK N   1      31.562  17.477   3.705  0.00  0.00    -0.311 N 
HETATM   11  N   UNK N   1      32.560  17.360   4.566  0.00  0.00    -0.299 N 
HETATM   12  H   UNK N   1      31.659  17.575   2.730  0.00  0.00     0.186 HD
ATOM     13  HN  UNK N   1      33.551  17.357   4.324  1.00  0.00     0.187 HD
BRANCH   8  14
HETATM   14  C   UNK N   1      29.552  17.248   6.739  0.00  0.00    -0.020 A 
HETATM   15  C   UNK N   1      29.647  17.852   7.993  0.00  0.00     0.029 A 
HETATM   16  C   UNK N   1      28.590  17.785   8.900  0.00  0.00     0.088 A 
HETATM   17  N   UNK N   1      27.451  17.125   8.565  0.00  0.00    -0.375 N 
HETATM   18  C   UNK N   1      27.316  16.527   7.353  0.00  0.00     0.088 A 
ATOM     19  HN  UNK N   1      26.684  17.079   9.236  1.00  0.00     0.164 HD
HETATM   20  C   UNK N   1      28.358  16.581   6.423  0.00  0.00     0.029 A 
ENDBRANCH   8  14
ENDBRANCH   6   7
BRANCH   4  21
HETATM   21  O   UNK N   1      35.224  16.920  10.485  0.00  0.00    -0.345 OA
BRANCH  21  22
HETATM   22  C   UNK N   1      36.177  15.947  10.717  0.00  0.00     0.232 C 
BRANCH  22  23
HETATM   23  C   UNK N   1      35.809  14.951  11.761  0.00  0.00     0.034 A 
HETATM   24  N   UNK N   1      36.304  15.095  13.022  0.00  0.00    -0.357 N 
HETATM   25  C   UNK N   1      36.130  14.134  13.969  0.00  0.00     0.042 A 
ATOM     26  HN  UNK N   1      36.818  15.944  13.263  1.00  0.00     0.166 HD
HETATM   27  C   UNK N   1      36.670  14.298  15.247  0.00  0.00     0.030 A 
HETATM   28  C   UNK N   1      35.426  12.954  13.649  0.00  0.00    -0.009 A 
HETATM   29  C   UNK N   1      36.515  13.289  16.205  0.00  0.00     0.002 A 
HETATM   30  C   UNK N   1      35.820  12.117  15.886  0.00  0.00     0.001 A 
HETATM   31  C   UNK N   1      35.273  11.949  14.609  0.00  0.00     0.013 A 
HETATM   32  C   UNK N   1      34.903  12.797  12.366  0.00  0.00     0.016 A 
HETATM   33  C   UNK N   1      35.103  13.795  11.411  0.00  0.00     0.028 A 
ENDBRANCH  22  23
ENDBRANCH  21  22
ENDBRANCH   4  21
TORSDOF 5
ENDMDL
MODEL 3
REMARK VINA RESULT:      -8.3      2.450     10.675
REMARK  5 active torsions:
REMARK  status: ('A' for Active; 'I' for Inactive)
REMARK    1  A    between atoms: C_4  and  C_7 
REMARK    2  A    between atoms: O_18  and  C_6 
REMARK    3  A    between atoms: C_7  and  O_18 
REMARK    4  A    between atoms: C_20  and  C_21 
REMARK    5  A    between atoms: C_26  and  C_22 
ROOT
HETATM    1  C   UNK N   1      33.404  14.884   9.134  0.00  0.00     0.016 A 
HETATM    2  C   UNK N   1      35.187  16.457  10.578  0.00  0.00     0.037 A 
HETATM    3  C   UNK N   1      34.745  16.870   9.310  0.00  0.00     0.016 A 
HETATM    4  C   UNK N   1      34.697  15.270  11.137  0.00  0.00     0.069 A 
HETATM    5  C   UNK N   1      33.819  14.475  10.394  0.00  0.00     0.037 A 
HETATM    6  C   UNK N   1      33.826  16.091   8.584  0.00  0.00    -0.007 A 
ENDROOT
BRANCH   6   7
HETATM    7  C   UNK N   1      33.297  16.584   7.280  0.00  0.00     0.070 A 
HETATM    8  C   UNK N   1      32.054  17.153   6.934  0.00  0.00     0.020 A 
HETATM    9  C   UNK N   1      32.160  17.419   5.577  0.00  0.00     0.121 A 
HETATM   10  N   UNK N   1      33.381  17.043   5.154  0.00  0.00    -0.311 N 
HETATM   11  N   UNK N   1      34.062  16.545   6.173  0.00  0.00    -0.299 N 
HETATM   12  H   UNK N   1      33.714  17.127   4.232  0.00  0.00     0.186 HD
ATOM     13  HN  UNK N   1      35.016  16.186   6.126  1.00  0.00     0.187 HD
BRANCH   8  14
HETATM   14  C   UNK N   1      30.815  17.482   7.708  0.00  0.00    -0.020 A 
HETATM   15  C   UNK N   1      30.830  18.234   8.882  0.00  0.00     0.029 A 
HETATM   16  C   UNK N   1      29.647  18.521   9.562  0.00  0.00     0.088 A 
HETATM   17  N   UNK N   1      28.462  18.065   9.082  0.00  0.00    -0.375 N 
HETATM   18  C   UNK N   1      28.402  17.333   7.939  0.00  0.00     0.088 A 
ATOM     19  HN  UNK N   1      27.602  18.278   9.588  1.00  0.00     0.164 HD
HETATM   20  C   UNK N   1      29.571  17.033   7.234  0.00  0.00     0.029 A 
ENDBRANCH   8  14
ENDBRANCH   6   7
BRANCH   4  21
HETATM   21  O   UNK N   1      35.007  14.941  12.413  0.00  0.00    -0.345 OA
BRANCH  21  22
HETATM   22  C   UNK N   1      36.239  14.385  12.697  0.00  0.00     0.232 C 
BRANCH  22  23
HETATM   23  C   UNK N   1      36.209  13.286  13.701  0.00  0.00     0.034 A 
HETATM   24  N   UNK N   1      35.613  13.502  14.906  0.00  0.00    -0.357 N 
HETATM   25  C   UNK N   1      35.695  12.592  15.915  0.00  0.00     0.042 A 
ATOM     26  HN  UNK N   1      35.092  14.367  15.058  1.00  0.00     0.166 HD
HETATM   27  C   UNK N   1      35.094  12.851  17.149  0.00  0.00     0.030 A 
HETATM   28  C   UNK N   1      36.416  11.395  15.722  0.00  0.00    -0.009 A 
HETATM   29  C   UNK N   1      35.213  11.925  18.192  0.00  0.00     0.002 A 
HETATM   30  C   UNK N   1      35.931  10.739  18.001  0.00  0.00     0.001 A 
HETATM   31  C   UNK N   1      36.531  10.472  16.765  0.00  0.00     0.013 A 
HETATM   32  C   UNK N   1      37.022  11.153  14.489  0.00  0.00     0.016 A 
HETATM   33  C   UNK N   1      36.928  12.108  13.474  0.00  0.00     0.028 A 
ENDBRANCH  22  23
ENDBRANCH  21  22
ENDBRANCH   4  21
TORSDOF 5
ENDMDL
MODEL 4
REMARK VINA RESULT:      -8.3      3.432     10.843
REMARK  5 active torsions:
REMARK  status: ('A' for Active; 'I' for Inactive)
REMARK    1  A    between atoms: C_4  and  C_7 
REMARK    2  A    between atoms: O_18  and  C_6 
REMARK    3  A    between atoms: C_7  and  O_18 
REMARK    4  A    between atoms: C_20  and  C_21 
REMARK    5  A    between atoms: C_26  and  C_22 
ROOT
HETATM    1  C   UNK N   1      31.822  15.545   8.955  0.00  0.00     0.016 A 
HETATM    2  C   UNK N   1      34.156  17.046   8.775  0.00  0.00     0.037 A 
HETATM    3  C   UNK N   1      32.905  17.658   8.589  0.00  0.00     0.016 A 
HETATM    4  C   UNK N   1      34.228  15.684   9.092  0.00  0.00     0.069 A 
HETATM    5  C   UNK N   1      33.050  14.934   9.159  0.00  0.00     0.037 A 
HETATM    6  C   UNK N   1      31.719  16.909   8.703  0.00  0.00    -0.007 A 
ENDROOT
BRANCH   6   7
HETATM    7  C   UNK N   1      30.396  17.588   8.593  0.00  0.00     0.070 A 
HETATM    8  C   UNK N   1      29.561  17.830   7.482  0.00  0.00     0.020 A 
HETATM    9  C   UNK N   1      28.462  18.490   8.010  0.00  0.00     0.121 A 
HETATM   10  N   UNK N   1      28.631  18.621   9.338  0.00  0.00    -0.311 N 
HETATM   11  N   UNK N   1      29.787  18.081   9.689  0.00  0.00    -0.299 N 
HETATM   12  H   UNK N   1      27.993  19.052   9.953  0.00  0.00     0.186 HD
ATOM     13  HN  UNK N   1      30.157  18.044  10.637  1.00  0.00     0.187 HD
BRANCH   8  14
HETATM   14  C   UNK N   1      29.664  17.510   6.022  0.00  0.00    -0.020 A 
HETATM   15  C   UNK N   1      30.869  17.188   5.399  0.00  0.00     0.029 A 
HETATM   16  C   UNK N   1      30.912  16.889   4.037  0.00  0.00     0.088 A 
HETATM   17  N   UNK N   1      29.769  16.909   3.303  0.00  0.00    -0.375 N 
HETATM   18  C   UNK N   1      28.574  17.213   3.873  0.00  0.00     0.088 A 
ATOM     19  HN  UNK N   1      29.811  16.692   2.308  1.00  0.00     0.164 HD
HETATM   20  C   UNK N   1      28.501  17.514   5.236  0.00  0.00     0.029 A 
ENDBRANCH   8  14
ENDBRANCH   6   7
BRANCH   4  21
HETATM   21  O   UNK N   1      35.418  15.124   9.412  0.00  0.00    -0.345 OA
BRANCH  21  22
HETATM   22  C   UNK N   1      35.478  13.781   9.732  0.00  0.00     0.232 C 
BRANCH  22  23
HETATM   23  C   UNK N   1      35.545  13.491  11.191  0.00  0.00     0.034 A 
HETATM   24  N   UNK N   1      34.903  12.395  11.682  0.00  0.00    -0.357 N 
HETATM   25  C   UNK N   1      34.799  12.171  13.020  0.00  0.00     0.042 A 
ATOM     26  HN  UNK N   1      34.490  11.725  11.032  1.00  0.00     0.166 HD
HETATM   27  C   UNK N   1      34.113  11.050  13.496  0.00  0.00     0.030 A 
HETATM   28  C   UNK N   1      35.360  13.090  13.931  0.00  0.00    -0.009 A 
HETATM   29  C   UNK N   1      33.981  10.846  14.874  0.00  0.00     0.002 A 
HETATM   30  C   UNK N   1      34.535  11.760  15.777  0.00  0.00     0.001 A 
HETATM   31  C   UNK N   1      35.227  12.882  15.306  0.00  0.00     0.013 A 
HETATM   32  C   UNK N   1      36.031  14.212  13.444  0.00  0.00     0.016 A 
HETATM   33  C   UNK N   1      36.116  14.421  12.066  0.00  0.00     0.028 A 
ENDBRANCH  22  23
ENDBRANCH  21  22
ENDBRANCH   4  21
TORSDOF 5
ENDMDL
MODEL 5
REMARK VINA RESULT:      -8.2      3.485      5.124
REMARK  5 active torsions:
REMARK  status: ('A' for Active; 'I' for Inactive)
REMARK    1  A    between atoms: C_4  and  C_7 
REMARK    2  A    between atoms: O_18  and  C_6 
REMARK    3  A    between atoms: C_7  and  O_18 
REMARK    4  A    between atoms: C_20  and  C_21 
REMARK    5  A    between atoms: C_26  and  C_22 
ROOT
HETATM    1  C   UNK N   1      35.448  13.912  10.865  0.00  0.00     0.016 A 
HETATM    2  C   UNK N   1      35.379  16.668  10.501  0.00  0.00     0.037 A 
HETATM    3  C   UNK N   1      35.745  16.128  11.745  0.00  0.00     0.016 A 
HETATM    4  C   UNK N   1      35.087  15.818   9.427  0.00  0.00     0.069 A 
HETATM    5  C   UNK N   1      35.103  14.434   9.627  0.00  0.00     0.037 A 
HETATM    6  C   UNK N   1      35.805  14.734  11.929  0.00  0.00    -0.007 A 
ENDROOT
BRANCH   6   7
HETATM    7  C   UNK N   1      36.281  14.174  13.227  0.00  0.00     0.070 A 
HETATM    8  C   UNK N   1      36.262  12.860  13.738  0.00  0.00     0.020 A 
HETATM    9  C   UNK N   1      36.856  12.964  14.986  0.00  0.00     0.121 A 
HETATM   10  N   UNK N   1      37.209  14.246  15.195  0.00  0.00    -0.311 N 
HETATM   11  N   UNK N   1      36.866  14.971  14.142  0.00  0.00    -0.299 N 
HETATM   12  H   UNK N   1      37.652  14.589  16.004  0.00  0.00     0.186 HD
ATOM     13  HN  UNK N   1      37.020  15.973  14.040  1.00  0.00     0.187 HD
BRANCH   8  14
HETATM   14  C   UNK N   1      35.778  11.548  13.201  0.00  0.00    -0.020 A 
HETATM   15  C   UNK N   1      36.632  10.590  12.655  0.00  0.00     0.029 A 
HETATM   16  C   UNK N   1      36.133   9.379  12.176  0.00  0.00     0.088 A 
HETATM   17  N   UNK N   1      34.801   9.122  12.239  0.00  0.00    -0.375 N 
HETATM   18  C   UNK N   1      33.936  10.026  12.768  0.00  0.00     0.088 A 
ATOM     19  HN  UNK N   1      34.446   8.235  11.884  1.00  0.00     0.164 HD
HETATM   20  C   UNK N   1      34.408  11.247  13.259  0.00  0.00     0.029 A 
ENDBRANCH   8  14
ENDBRANCH   6   7
BRANCH   4  21
HETATM   21  O   UNK N   1      34.874  16.330   8.193  0.00  0.00    -0.345 OA
BRANCH  21  22
HETATM   22  C   UNK N   1      34.332  17.594   8.060  0.00  0.00     0.232 C 
BRANCH  22  23
HETATM   23  C   UNK N   1      32.879  17.617   7.736  0.00  0.00     0.034 A 
HETATM   24  N   UNK N   1      31.983  17.914   8.718  0.00  0.00    -0.357 N 
HETATM   25  C   UNK N   1      30.642  17.795   8.517  0.00  0.00     0.042 A 
ATOM     26  HN  UNK N   1      32.324  18.233   9.625  1.00  0.00     0.166 HD
HETATM   27  C   UNK N   1      29.746  18.083   9.551  0.00  0.00     0.030 A 
HETATM   28  C   UNK N   1      30.156  17.350   7.270  0.00  0.00    -0.009 A 
HETATM   29  C   UNK N   1      28.371  17.924   9.346  0.00  0.00     0.002 A 
HETATM   30  C   UNK N   1      27.890  17.480   8.110  0.00  0.00     0.001 A 
HETATM   31  C   UNK N   1      28.782  17.194   7.069  0.00  0.00     0.013 A 
HETATM   32  C   UNK N   1      31.061  17.054   6.250  0.00  0.00     0.016 A 
HETATM   33  C   UNK N   1      32.432  17.177   6.486  0.00  0.00     0.028 A 
ENDBRANCH  22  23
ENDBRANCH  21  22
ENDBRANCH   4  21
TORSDOF 5
ENDMDL
MODEL 6
REMARK VINA RESULT:      -8.1      8.929     13.271
REMARK  5 active torsions:
REMARK  status: ('A' for Active; 'I' for Inactive)
REMARK    1  A    between atoms: C_4  and  C_7 
REMARK    2  A    between atoms: O_18  and  C_6 
REMARK    3  A    between atoms: C_7  and  O_18 
REMARK    4  A    between atoms: C_20  and  C_21 
REMARK    5  A    between atoms: C_26  and  C_22 
ROOT
HETATM    1  C   UNK N   1      28.876  15.257   5.107  0.00  0.00     0.016 A 
HETATM    2  C   UNK N   1      27.162  17.303   5.890  0.00  0.00     0.037 A 
HETATM    3  C   UNK N   1      28.436  17.603   5.378  0.00  0.00     0.016 A 
HETATM    4  C   UNK N   1      26.737  15.971   5.969  0.00  0.00     0.069 A 
HETATM    5  C   UNK N   1      27.614  14.949   5.593  0.00  0.00     0.037 A 
HETATM    6  C   UNK N   1      29.299  16.574   4.958  0.00  0.00    -0.007 A 
ENDROOT
BRANCH   6   7
HETATM    7  C   UNK N   1      30.611  16.910   4.334  0.00  0.00     0.070 A 
HETATM    8  C   UNK N   1      31.876  17.165   4.903  0.00  0.00     0.020 A 
HETATM    9  C   UNK N   1      32.703  17.405   3.817  0.00  0.00     0.121 A 
HETATM   10  N   UNK N   1      31.981  17.291   2.687  0.00  0.00    -0.311 N 
HETATM   11  N   UNK N   1      30.730  16.994   2.995  0.00  0.00    -0.299 N 
HETATM   12  H   UNK N   1      32.331  17.410   1.775  0.00  0.00     0.186 HD
ATOM     13  HN  UNK N   1      29.975  16.852   2.325  1.00  0.00     0.187 HD
BRANCH   8  14
HETATM   14  C   UNK N   1      32.390  17.196   6.309  0.00  0.00    -0.020 A 
HETATM   15  C   UNK N   1      33.646  17.700   6.647  0.00  0.00     0.029 A 
HETATM   16  C   UNK N   1      34.077  17.715   7.973  0.00  0.00     0.088 A 
HETATM   17  N   UNK N   1      33.270  17.234   8.953  0.00  0.00    -0.375 N 
HETATM   18  C   UNK N   1      32.037  16.738   8.668  0.00  0.00     0.088 A 
ATOM     19  HN  UNK N   1      33.594  17.247   9.920  1.00  0.00     0.164 HD
HETATM   20  C   UNK N   1      31.578  16.713   7.348  0.00  0.00     0.029 A 
ENDBRANCH   8  14
ENDBRANCH   6   7
BRANCH   4  21
HETATM   21  O   UNK N   1      25.462  15.685   6.325  0.00  0.00    -0.345 OA
BRANCH  21  22
HETATM   22  C   UNK N   1      25.048  14.369   6.390  0.00  0.00     0.232 C 
BRANCH  22  23
HETATM   23  C   UNK N   1      24.154  14.053   7.538  0.00  0.00     0.034 A 
HETATM   24  N   UNK N   1      24.673  13.434   8.634  0.00  0.00    -0.357 N 
HETATM   25  C   UNK N   1      23.875  12.983   9.640  0.00  0.00     0.042 A 
ATOM     26  HN  UNK N   1      25.682  13.305   8.704  1.00  0.00     0.166 HD
HETATM   27  C   UNK N   1      24.432  12.329  10.743  0.00  0.00     0.030 A 
HETATM   28  C   UNK N   1      22.477  13.149   9.556  0.00  0.00    -0.009 A 
HETATM   29  C   UNK N   1      23.601  11.837  11.756  0.00  0.00     0.002 A 
HETATM   30  C   UNK N   1      22.214  12.000  11.670  0.00  0.00     0.001 A 
HETATM   31  C   UNK N   1      21.651  12.658  10.570  0.00  0.00     0.013 A 
HETATM   32  C   UNK N   1      21.932  13.793   8.444  0.00  0.00     0.016 A 
HETATM   33  C   UNK N   1      22.772  14.239   7.423  0.00  0.00     0.028 A 
ENDBRANCH  22  23
ENDBRANCH  21  22
ENDBRANCH   4  21
TORSDOF 5
ENDMDL
MODEL 7
REMARK VINA RESULT:      -8.0      3.443     11.122
REMARK  5 active torsions:
REMARK  status: ('A' for Active; 'I' for Inactive)
REMARK    1  A    between atoms: C_4  and  C_7 
REMARK    2  A    between atoms: O_18  and  C_6 
REMARK    3  A    between atoms: C_7  and  O_18 
REMARK    4  A    between atoms: C_20  and  C_21 
REMARK    5  A    between atoms: C_26  and  C_22 
ROOT
HETATM    1  C   UNK N   1      32.087  15.726   8.706  0.00  0.00     0.016 A 
HETATM    2  C   UNK N   1      34.106  17.637   8.630  0.00  0.00     0.037 A 
HETATM    3  C   UNK N   1      32.794  17.979   8.263  0.00  0.00     0.016 A 
HETATM    4  C   UNK N   1      34.392  16.340   9.075  0.00  0.00     0.069 A 
HETATM    5  C   UNK N   1      33.375  15.381   9.089  0.00  0.00     0.037 A 
HETATM    6  C   UNK N   1      31.763  17.023   8.321  0.00  0.00    -0.007 A 
ENDROOT
BRANCH   6   7
HETATM    7  C   UNK N   1      30.359  17.421   8.015  0.00  0.00     0.070 A 
HETATM    8  C   UNK N   1      29.655  17.491   6.795  0.00  0.00     0.020 A 
HETATM    9  C   UNK N   1      28.384  17.916   7.151  0.00  0.00     0.121 A 
HETATM   10  N   UNK N   1      28.338  18.078   8.486  0.00  0.00    -0.311 N 
HETATM   11  N   UNK N   1      29.519  17.781   9.004  0.00  0.00    -0.299 N 
HETATM   12  H   UNK N   1      27.549  18.371   8.997  0.00  0.00     0.186 HD
ATOM     13  HN  UNK N   1      29.755  17.820   9.995  1.00  0.00     0.187 HD
BRANCH   8  14
HETATM   14  C   UNK N   1      30.019  17.199   5.372  0.00  0.00    -0.020 A 
HETATM   15  C   UNK N   1      29.116  16.668   4.451  0.00  0.00     0.029 A 
HETATM   16  C   UNK N   1      29.501  16.422   3.133  0.00  0.00     0.088 A 
HETATM   17  N   UNK N   1      30.769  16.700   2.735  0.00  0.00    -0.375 N 
HETATM   18  C   UNK N   1      31.678  17.222   3.599  0.00  0.00     0.088 A 
ATOM     19  HN  UNK N   1      31.042  16.514   1.770  1.00  0.00     0.164 HD
HETATM   20  C   UNK N   1      31.319  17.482   4.925  0.00  0.00     0.029 A 
ENDBRANCH   8  14
ENDBRANCH   6   7
BRANCH   4  21
HETATM   21  O   UNK N   1      35.619  16.046   9.565  0.00  0.00    -0.345 OA
BRANCH  21  22
HETATM   22  C   UNK N   1      35.852  16.130  10.925  0.00  0.00     0.232 C 
BRANCH  22  23
HETATM   23  C   UNK N   1      36.164  14.832  11.584  0.00  0.00     0.034 A 
HETATM   24  N   UNK N   1      35.828  14.651  12.891  0.00  0.00    -0.357 N 
HETATM   25  C   UNK N   1      36.229  13.550  13.583  0.00  0.00     0.042 A 
ATOM     26  HN  UNK N   1      35.262  15.357  13.363  1.00  0.00     0.166 HD
HETATM   27  C   UNK N   1      35.890  13.403  14.931  0.00  0.00     0.030 A 
HETATM   28  C   UNK N   1      37.016  12.569  12.946  0.00  0.00    -0.009 A 
HETATM   29  C   UNK N   1      36.336  12.285  15.645  0.00  0.00     0.002 A 
HETATM   30  C   UNK N   1      37.120  11.313  15.013  0.00  0.00     0.001 A 
HETATM   31  C   UNK N   1      37.458  11.453  13.662  0.00  0.00     0.013 A 
HETATM   32  C   UNK N   1      37.359  12.733  11.604  0.00  0.00     0.016 A 
HETATM   33  C   UNK N   1      36.940  13.876  10.919  0.00  0.00     0.028 A 
ENDBRANCH  22  23
ENDBRANCH  21  22
ENDBRANCH   4  21
TORSDOF 5
ENDMDL
MODEL 8
REMARK VINA RESULT:      -8.0      3.217     10.878
REMARK  5 active torsions:
REMARK  status: ('A' for Active; 'I' for Inactive)
REMARK    1  A    between atoms: C_4  and  C_7 
REMARK    2  A    between atoms: O_18  and  C_6 
REMARK    3  A    between atoms: C_7  and  O_18 
REMARK    4  A    between atoms: C_20  and  C_21 
REMARK    5  A    between atoms: C_26  and  C_22 
ROOT
HETATM    1  C   UNK N   1      33.240  17.419   8.546  0.00  0.00     0.016 A 
HETATM    2  C   UNK N   1      33.181  14.906   9.736  0.00  0.00     0.037 A 
HETATM    3  C   UNK N   1      32.048  15.400   9.070  0.00  0.00     0.016 A 
HETATM    4  C   UNK N   1      34.359  15.663   9.768  0.00  0.00     0.069 A 
HETATM    5  C   UNK N   1      34.371  16.934   9.185  0.00  0.00     0.037 A 
HETATM    6  C   UNK N   1      32.078  16.661   8.445  0.00  0.00    -0.007 A 
ENDROOT
BRANCH   6   7
HETATM    7  C   UNK N   1      30.898  17.134   7.665  0.00  0.00     0.070 A 
HETATM    8  C   UNK N   1      30.630  17.120   6.281  0.00  0.00     0.020 A 
HETATM    9  C   UNK N   1      29.369  17.686   6.166  0.00  0.00     0.121 A 
HETATM   10  N   UNK N   1      28.921  18.002   7.394  0.00  0.00    -0.311 N 
HETATM   11  N   UNK N   1      29.834  17.672   8.292  0.00  0.00    -0.299 N 
HETATM   12  H   UNK N   1      28.049  18.414   7.593  0.00  0.00     0.186 HD
ATOM     13  HN  UNK N   1      29.747  17.804   9.299  1.00  0.00     0.187 HD
BRANCH   8  14
HETATM   14  C   UNK N   1      31.391  16.639   5.084  0.00  0.00    -0.020 A 
HETATM   15  C   UNK N   1      32.202  17.474   4.315  0.00  0.00     0.029 A 
HETATM   16  C   UNK N   1      32.899  16.976   3.214  0.00  0.00     0.088 A 
HETATM   17  N   UNK N   1      32.791  15.664   2.881  0.00  0.00    -0.375 N 
HETATM   18  C   UNK N   1      32.015  14.817   3.606  0.00  0.00     0.088 A 
ATOM     19  HN  UNK N   1      33.302  15.310   2.072  1.00  0.00     0.164 HD
HETATM   20  C   UNK N   1      31.308  15.287   4.716  0.00  0.00     0.029 A 
ENDBRANCH   8  14
ENDBRANCH   6   7
BRANCH   4  21
HETATM   21  O   UNK N   1      35.493  15.133  10.282  0.00  0.00    -0.345 OA
BRANCH  21  22
HETATM   22  C   UNK N   1      35.943  15.548  11.521  0.00  0.00     0.232 C 
BRANCH  22  23
HETATM   23  C   UNK N   1      35.908  14.500  12.578  0.00  0.00     0.034 A 
HETATM   24  N   UNK N   1      35.202  13.357  12.359  0.00  0.00    -0.357 N 
HETATM   25  C   UNK N   1      35.007  12.441  13.346  0.00  0.00     0.042 A 
ATOM     26  HN  UNK N   1      34.809  13.182  11.434  1.00  0.00     0.166 HD
HETATM   27  C   UNK N   1      34.256  11.288  13.100  0.00  0.00     0.030 A 
HETATM   28  C   UNK N   1      35.539  12.671  14.633  0.00  0.00    -0.009 A 
HETATM   29  C   UNK N   1      34.031  10.368  14.131  0.00  0.00     0.002 A 
HETATM   30  C   UNK N   1      34.557  10.599  15.408  0.00  0.00     0.001 A 
HETATM   31  C   UNK N   1      35.313  11.750  15.658  0.00  0.00     0.013 A 
HETATM   32  C   UNK N   1      36.275  13.832  14.869  0.00  0.00     0.016 A 
HETATM   33  C   UNK N   1      36.454  14.759  13.840  0.00  0.00     0.028 A 
ENDBRANCH  22  23
ENDBRANCH  21  22
ENDBRANCH   4  21
TORSDOF 5
ENDMDL
MODEL 9
REMARK VINA RESULT:      -7.9      2.162      3.470
REMARK  5 active torsions:
REMARK  status: ('A' for Active; 'I' for Inactive)
REMARK    1  A    between atoms: C_4  and  C_7 
REMARK    2  A    between atoms: O_18  and  C_6 
REMARK    3  A    between atoms: C_7  and  O_18 
REMARK    4  A    between atoms: C_20  and  C_21 
REMARK    5  A    between atoms: C_26  and  C_22 
ROOT
HETATM    1  C   UNK N   1      35.144  10.728  17.780  0.00  0.00     0.016 A 
HETATM    2  C   UNK N   1      35.060  13.507  17.733  0.00  0.00     0.037 A 
HETATM    3  C   UNK N   1      35.241  12.825  18.947  0.00  0.00     0.016 A 
HETATM    4  C   UNK N   1      34.963  12.788  16.535  0.00  0.00     0.069 A 
HETATM    5  C   UNK N   1      34.984  11.391  16.572  0.00  0.00     0.037 A 
HETATM    6  C   UNK N   1      35.308  11.420  18.976  0.00  0.00    -0.007 A 
ENDROOT
BRANCH   6   7
HETATM    7  C   UNK N   1      35.590  10.713  20.258  0.00  0.00     0.070 A 
HETATM    8  C   UNK N   1      34.932   9.642  20.896  0.00  0.00     0.020 A 
HETATM    9  C   UNK N   1      35.667   9.420  22.051  0.00  0.00     0.121 A 
HETATM   10  N   UNK N   1      36.692  10.291  22.087  0.00  0.00    -0.311 N 
HETATM   11  N   UNK N   1      36.648  11.065  21.015  0.00  0.00    -0.299 N 
HETATM   12  H   UNK N   1      37.368  10.344  22.801  0.00  0.00     0.186 HD
ATOM     13  HN  UNK N   1      37.309  11.809  20.796  1.00  0.00     0.187 HD
BRANCH   8  14
HETATM   14  C   UNK N   1      33.732   8.813  20.553  0.00  0.00    -0.020 A 
HETATM   15  C   UNK N   1      32.431   9.185  20.892  0.00  0.00     0.029 A 
HETATM   16  C   UNK N   1      31.345   8.383  20.542  0.00  0.00     0.088 A 
HETATM   17  N   UNK N   1      31.549   7.225  19.864  0.00  0.00    -0.375 N 
HETATM   18  C   UNK N   1      32.800   6.828  19.511  0.00  0.00     0.088 A 
ATOM     19  HN  UNK N   1      30.749   6.643  19.615  1.00  0.00     0.164 HD
HETATM   20  C   UNK N   1      33.907   7.613  19.845  0.00  0.00     0.029 A 
ENDBRANCH   8  14
ENDBRANCH   6   7
BRANCH   4  21
HETATM   21  O   UNK N   1      34.933  13.443  15.350  0.00  0.00    -0.345 OA
BRANCH  21  22
HETATM   22  C   UNK N   1      36.056  13.453  14.545  0.00  0.00     0.232 C 
BRANCH  22  23
HETATM   23  C   UNK N   1      35.783  13.687  13.100  0.00  0.00     0.034 A 
HETATM   24  N   UNK N   1      35.786  14.962  12.621  0.00  0.00    -0.357 N 
HETATM   25  C   UNK N   1      35.390  15.245  11.350  0.00  0.00     0.042 A 
ATOM     26  HN  UNK N   1      36.092  15.723  13.228  1.00  0.00     0.166 HD
HETATM   27  C   UNK N   1      35.380  16.565  10.892  0.00  0.00     0.030 A 
HETATM   28  C   UNK N   1      34.960  14.204  10.501  0.00  0.00    -0.009 A 
HETATM   29  C   UNK N   1      34.938  16.851   9.595  0.00  0.00     0.002 A 
HETATM   30  C   UNK N   1      34.508  15.819   8.755  0.00  0.00     0.001 A 
HETATM   31  C   UNK N   1      34.521  14.493   9.206  0.00  0.00     0.013 A 
HETATM   32  C   UNK N   1      34.962  12.892  10.974  0.00  0.00     0.016 A 
HETATM   33  C   UNK N   1      35.366  12.630  12.284  0.00  0.00     0.028 A 
ENDBRANCH  22  23
ENDBRANCH  21  22
ENDBRANCH   4  21
TORSDOF 5
ENDMDL
