MODEL 1
REMARK VINA RESULT:      -8.8      0.000      0.000
REMARK  5 active torsions:
REMARK  status: ('A' for Active; 'I' for Inactive)
REMARK    1  A    between atoms: C_14  and  C_10 
REMARK    2  A    between atoms: C_22  and  C_21 
REMARK    3  A    between atoms: O_25  and  C_23 
REMARK    4  A    between atoms: C_26  and  O_25 
REMARK    5  A    between atoms: C_27  and  C_26 
ROOT
HETATM    1  C   UNK N   1      33.407  15.078   9.161  0.00  0.00     0.016 A 
HETATM    2  C   UNK N   1      35.198  16.854  10.326  0.00  0.00     0.037 A 
HETATM    3  C   UNK N   1      34.013  14.754  10.348  0.00  0.00     0.037 A 
HETATM    4  C   UNK N   1      33.654  16.268   8.512  0.00  0.00    -0.007 A 
HETATM    5  C   UNK N   1      34.917  15.629  10.956  0.00  0.00     0.069 A 
HETATM    6  C   UNK N   1      34.564  17.174   9.101  0.00  0.00     0.016 A 
ENDROOT
BRANCH   4   7
HETATM    7  C   UNK N   1      32.965  16.563   7.225  0.00  0.00     0.071 A 
HETATM    8  C   UNK N   1      31.663  17.074   6.969  0.00  0.00     0.020 A 
HETATM    9  C   UNK N   1      31.581  17.136   5.586  0.00  0.00     0.124 A 
HETATM   10  N   UNK N   1      32.741  16.696   5.077  0.00  0.00    -0.306 N 
HETATM   11  C   UNK N   1      33.054  16.606   3.664  0.00  0.00     0.177 C 
HETATM   12  N   UNK N   1      33.576  16.352   6.042  0.00  0.00    -0.298 N 
ATOM     13  HN  UNK N   1      34.520  15.988   5.914  1.00  0.00     0.187 HD
BRANCH   8  14
HETATM   14  C   UNK N   1      30.515  17.501   7.844  0.00  0.00    -0.020 A 
HETATM   15  C   UNK N   1      30.674  18.270   8.999  0.00  0.00     0.029 A 
HETATM   16  C   UNK N   1      29.577  18.640   9.775  0.00  0.00     0.088 A 
HETATM   17  N   UNK N   1      28.329  18.252   9.412  0.00  0.00    -0.375 N 
HETATM   18  C   UNK N   1      28.126  17.503   8.295  0.00  0.00     0.088 A 
ATOM     19  HN  UNK N   1      27.531  18.525   9.985  1.00  0.00     0.164 HD
HETATM   20  C   UNK N   1      29.209  17.118   7.498  0.00  0.00     0.029 A 
ENDBRANCH   8  14
ENDBRANCH   4   7
BRANCH   5  21
HETATM   21  O   UNK N   1      35.499  15.274  12.133  0.00  0.00    -0.345 OA
BRANCH  21  22
HETATM   22  C   UNK N   1      36.357  14.186  12.142  0.00  0.00     0.232 C 
BRANCH  22  23
HETATM   23  C   UNK N   1      36.317  13.312  13.337  0.00  0.00     0.034 A 
HETATM   24  C   UNK N   1      36.876  12.036  13.216  0.00  0.00     0.028 A 
HETATM   25  C   UNK N   1      36.869  11.171  14.303  0.00  0.00     0.016 A 
HETATM   26  C   UNK N   1      36.303  11.587  15.502  0.00  0.00    -0.009 A 
HETATM   27  C   UNK N   1      35.745  12.884  15.594  0.00  0.00     0.042 A 
HETATM   28  C   UNK N   1      36.286  10.733  16.605  0.00  0.00     0.013 A 
HETATM   29  C   UNK N   1      35.175  13.305  16.797  0.00  0.00     0.030 A 
HETATM   30  N   UNK N   1      35.764  13.714  14.514  0.00  0.00    -0.357 N 
HETATM   31  C   UNK N   1      35.160  12.444  17.901  0.00  0.00     0.002 A 
HETATM   32  C   UNK N   1      35.714  11.162  17.804  0.00  0.00     0.001 A 
ATOM     33  HN  UNK N   1      35.359  14.647  14.589  1.00  0.00     0.166 HD
ENDBRANCH  22  23
ENDBRANCH  21  22
ENDBRANCH   5  21
TORSDOF 5
ENDMDL
MODEL 2
REMARK VINA RESULT:      -8.5      1.792      9.613
REMARK  5 active torsions:
REMARK  status: ('A' for Active; 'I' for Inactive)
REMARK    1  A    between atoms: C_14  and  C_10 
REMARK    2  A    between atoms: C_22  and  C_21 
REMARK    3  A    between atoms: O_25  and  C_23 
REMARK    4  A    between atoms: C_26  and  O_25 
REMARK    5  A    between atoms: C_27  and  C_26 
ROOT
HETATM    1  C   UNK N   1      34.606  13.710  11.528  0.00  0.00     0.016 A 
HETATM    2  C   UNK N   1      35.964  16.123  11.763  0.00  0.00     0.037 A 
HETATM    3  C   UNK N   1      34.272  14.762  10.714  0.00  0.00     0.037 A 
HETATM    4  C   UNK N   1      35.605  13.803  12.473  0.00  0.00    -0.007 A 
HETATM    5  C   UNK N   1      34.939  15.986  10.810  0.00  0.00     0.069 A 
HETATM    6  C   UNK N   1      36.297  15.028  12.596  0.00  0.00     0.016 A 
ENDROOT
BRANCH   4   7
HETATM    7  C   UNK N   1      35.923  12.625  13.328  0.00  0.00     0.071 A 
HETATM    8  C   UNK N   1      36.177  12.538  14.724  0.00  0.00     0.020 A 
HETATM    9  C   UNK N   1      36.410  11.190  14.951  0.00  0.00     0.124 A 
HETATM   10  N   UNK N   1      36.300  10.544  13.781  0.00  0.00    -0.306 N 
HETATM   11  C   UNK N   1      36.473   9.115  13.595  0.00  0.00     0.177 C 
HETATM   12  N   UNK N   1      36.010  11.386  12.805  0.00  0.00    -0.298 N 
ATOM     13  HN  UNK N   1      35.875  11.141  11.824  1.00  0.00     0.187 HD
BRANCH   8  14
HETATM   14  C   UNK N   1      36.227  13.543  15.844  0.00  0.00    -0.020 A 
HETATM   15  C   UNK N   1      37.096  14.636  15.857  0.00  0.00     0.029 A 
HETATM   16  C   UNK N   1      37.102  15.540  16.919  0.00  0.00     0.088 A 
HETATM   17  N   UNK N   1      36.256  15.361  17.963  0.00  0.00    -0.375 N 
HETATM   18  C   UNK N   1      35.393  14.311  17.995  0.00  0.00     0.088 A 
ATOM     19  HN  UNK N   1      36.267  16.025  18.738  1.00  0.00     0.164 HD
HETATM   20  C   UNK N   1      35.365  13.390  16.942  0.00  0.00     0.029 A 
ENDBRANCH   8  14
ENDBRANCH   4   7
BRANCH   5  21
HETATM   21  O   UNK N   1      34.580  17.007   9.986  0.00  0.00    -0.345 OA
BRANCH  21  22
HETATM   22  C   UNK N   1      34.297  16.715   8.662  0.00  0.00     0.232 C 
BRANCH  22  23
HETATM   23  C   UNK N   1      32.913  16.971   8.200  0.00  0.00     0.034 A 
HETATM   24  C   UNK N   1      32.604  16.629   6.880  0.00  0.00     0.028 A 
HETATM   25  C   UNK N   1      31.322  16.846   6.390  0.00  0.00     0.016 A 
HETATM   26  C   UNK N   1      30.359  17.401   7.224  0.00  0.00    -0.009 A 
HETATM   27  C   UNK N   1      30.701  17.737   8.555  0.00  0.00     0.042 A 
HETATM   28  C   UNK N   1      29.066  17.626   6.751  0.00  0.00     0.013 A 
HETATM   29  C   UNK N   1      29.735  18.295   9.395  0.00  0.00     0.030 A 
HETATM   30  N   UNK N   1      31.965  17.515   9.012  0.00  0.00    -0.357 N 
HETATM   31  C   UNK N   1      28.439  18.519   8.916  0.00  0.00     0.002 A 
HETATM   32  C   UNK N   1      28.106  18.185   7.598  0.00  0.00     0.001 A 
ATOM     33  HN  UNK N   1      32.203  17.759   9.974  1.00  0.00     0.166 HD
ENDBRANCH  22  23
ENDBRANCH  21  22
ENDBRANCH   5  21
TORSDOF 5
ENDMDL
MODEL 3
REMARK VINA RESULT:      -8.3      1.526      3.711
REMARK  5 active torsions:
REMARK  status: ('A' for Active; 'I' for Inactive)
REMARK    1  A    between atoms: C_14  and  C_10 
REMARK    2  A    between atoms: C_22  and  C_21 
REMARK    3  A    between atoms: O_25  and  C_23 
REMARK    4  A    between atoms: C_26  and  O_25 
REMARK    5  A    between atoms: C_27  and  C_26 
ROOT
HETATM    1  C   UNK N   1      33.654  17.057   8.953  0.00  0.00     0.016 A 
HETATM    2  C   UNK N   1      33.684  14.410   9.797  0.00  0.00     0.037 A 
HETATM    3  C   UNK N   1      34.728  16.579   9.661  0.00  0.00     0.037 A 
HETATM    4  C   UNK N   1      32.573  16.263   8.637  0.00  0.00    -0.007 A 
HETATM    5  C   UNK N   1      34.769  15.253  10.097  0.00  0.00     0.069 A 
HETATM    6  C   UNK N   1      32.584  14.917   9.065  0.00  0.00     0.016 A 
ENDROOT
BRANCH   4   7
HETATM    7  C   UNK N   1      31.436  16.839   7.866  0.00  0.00     0.071 A 
HETATM    8  C   UNK N   1      31.221  16.925   6.463  0.00  0.00     0.020 A 
HETATM    9  C   UNK N   1      29.993  17.559   6.339  0.00  0.00     0.124 A 
HETATM   10  N   UNK N   1      29.531  17.821   7.571  0.00  0.00    -0.306 N 
HETATM   11  C   UNK N   1      28.273  18.478   7.870  0.00  0.00     0.177 C 
HETATM   12  N   UNK N   1      30.381  17.397   8.491  0.00  0.00    -0.298 N 
ATOM     13  HN  UNK N   1      30.258  17.479   9.500  1.00  0.00     0.187 HD
BRANCH   8  14
HETATM   14  C   UNK N   1      32.007  16.495   5.254  0.00  0.00    -0.020 A 
HETATM   15  C   UNK N   1      32.758  15.318   5.205  0.00  0.00     0.029 A 
HETATM   16  C   UNK N   1      33.469  14.964   4.059  0.00  0.00     0.088 A 
HETATM   17  N   UNK N   1      33.440  15.770   2.969  0.00  0.00    -0.375 N 
HETATM   18  C   UNK N   1      32.723  16.925   2.970  0.00  0.00     0.088 A 
ATOM     19  HN  UNK N   1      33.963  15.506   2.134  1.00  0.00     0.164 HD
HETATM   20  C   UNK N   1      31.999  17.304   4.107  0.00  0.00     0.029 A 
ENDBRANCH   8  14
ENDBRANCH   4   7
BRANCH   5  21
HETATM   21  O   UNK N   1      35.850  14.815  10.797  0.00  0.00    -0.345 OA
BRANCH  21  22
HETATM   22  C   UNK N   1      36.050  15.308  12.076  0.00  0.00     0.232 C 
BRANCH  22  23
HETATM   23  C   UNK N   1      35.922  14.344  13.193  0.00  0.00     0.034 A 
HETATM   24  C   UNK N   1      36.651  14.610  14.356  0.00  0.00     0.028 A 
HETATM   25  C   UNK N   1      36.572  13.742  15.438  0.00  0.00     0.016 A 
HETATM   26  C   UNK N   1      35.765  12.614  15.349  0.00  0.00    -0.009 A 
HETATM   27  C   UNK N   1      35.039  12.371  14.159  0.00  0.00     0.042 A 
HETATM   28  C   UNK N   1      35.672  11.730  16.423  0.00  0.00     0.013 A 
HETATM   29  C   UNK N   1      34.227  11.239  14.067  0.00  0.00     0.030 A 
HETATM   30  N   UNK N   1      35.133  13.237  13.112  0.00  0.00    -0.357 N 
HETATM   31  C   UNK N   1      34.137  10.355  15.148  0.00  0.00     0.002 A 
HETATM   32  C   UNK N   1      34.858  10.600  16.323  0.00  0.00     0.001 A 
ATOM     33  HN  UNK N   1      34.606  13.054  12.258  1.00  0.00     0.166 HD
ENDBRANCH  22  23
ENDBRANCH  21  22
ENDBRANCH   5  21
TORSDOF 5
ENDMDL
MODEL 4
REMARK VINA RESULT:      -8.3      1.672      3.559
REMARK  5 active torsions:
REMARK  status: ('A' for Active; 'I' for Inactive)
REMARK    1  A    between atoms: C_14  and  C_10 
REMARK    2  A    between atoms: C_22  and  C_21 
REMARK    3  A    between atoms: O_25  and  C_23 
REMARK    4  A    between atoms: C_26  and  O_25 
REMARK    5  A    between atoms: C_27  and  C_26 
ROOT
HETATM    1  C   UNK N   1      32.726  14.329   8.769  0.00  0.00     0.016 A 
HETATM    2  C   UNK N   1      35.161  15.529   9.361  0.00  0.00     0.037 A 
HETATM    3  C   UNK N   1      33.785  13.557   9.174  0.00  0.00     0.037 A 
HETATM    4  C   UNK N   1      32.822  15.697   8.643  0.00  0.00    -0.007 A 
HETATM    5  C   UNK N   1      35.020  14.134   9.477  0.00  0.00     0.069 A 
HETATM    6  C   UNK N   1      34.058  16.312   8.942  0.00  0.00     0.016 A 
ENDROOT
BRANCH   4   7
HETATM    7  C   UNK N   1      31.636  16.482   8.200  0.00  0.00     0.071 A 
HETATM    8  C   UNK N   1      31.163  16.785   6.893  0.00  0.00     0.020 A 
HETATM    9  C   UNK N   1      30.023  17.545   7.105  0.00  0.00     0.124 A 
HETATM   10  N   UNK N   1      29.845  17.675   8.428  0.00  0.00    -0.306 N 
HETATM   11  C   UNK N   1      28.760  18.402   9.059  0.00  0.00     0.177 C 
HETATM   12  N   UNK N   1      30.799  17.047   9.093  0.00  0.00    -0.298 N 
ATOM     13  HN  UNK N   1      30.887  16.997  10.108  1.00  0.00     0.187 HD
BRANCH   8  14
HETATM   14  C   UNK N   1      31.640  16.455   5.504  0.00  0.00    -0.020 A 
HETATM   15  C   UNK N   1      31.838  15.149   5.050  0.00  0.00     0.029 A 
HETATM   16  C   UNK N   1      32.281  14.897   3.753  0.00  0.00     0.088 A 
HETATM   17  N   UNK N   1      32.528  15.929   2.909  0.00  0.00    -0.375 N 
HETATM   18  C   UNK N   1      32.349  17.218   3.307  0.00  0.00     0.088 A 
ATOM     19  HN  UNK N   1      32.852  15.738   1.961  1.00  0.00     0.164 HD
HETATM   20  C   UNK N   1      31.905  17.499   4.604  0.00  0.00     0.029 A 
ENDBRANCH   8  14
ENDBRANCH   4   7
BRANCH   5  21
HETATM   21  O   UNK N   1      36.049  13.338   9.875  0.00  0.00    -0.345 OA
BRANCH  21  22
HETATM   22  C   UNK N   1      36.846  13.767  10.924  0.00  0.00     0.232 C 
BRANCH  22  23
HETATM   23  C   UNK N   1      36.336  13.529  12.294  0.00  0.00     0.034 A 
HETATM   24  C   UNK N   1      35.312  12.589  12.441  0.00  0.00     0.028 A 
HETATM   25  C   UNK N   1      34.792  12.323  13.702  0.00  0.00     0.016 A 
HETATM   26  C   UNK N   1      35.300  12.997  14.805  0.00  0.00    -0.009 A 
HETATM   27  C   UNK N   1      36.337  13.943  14.625  0.00  0.00     0.042 A 
HETATM   28  C   UNK N   1      34.793  12.744  16.080  0.00  0.00     0.013 A 
HETATM   29  C   UNK N   1      36.850  14.623  15.731  0.00  0.00     0.030 A 
HETATM   30  N   UNK N   1      36.830  14.187  13.378  0.00  0.00    -0.357 N 
HETATM   31  C   UNK N   1      36.337  14.365  17.008  0.00  0.00     0.002 A 
HETATM   32  C   UNK N   1      35.311  13.429  17.181  0.00  0.00     0.001 A 
ATOM     33  HN  UNK N   1      37.578  14.870  13.257  1.00  0.00     0.166 HD
ENDBRANCH  22  23
ENDBRANCH  21  22
ENDBRANCH   5  21
TORSDOF 5
ENDMDL
MODEL 5
REMARK VINA RESULT:      -8.3      3.147      5.150
REMARK  5 active torsions:
REMARK  status: ('A' for Active; 'I' for Inactive)
REMARK    1  A    between atoms: C_14  and  C_10 
REMARK    2  A    between atoms: C_22  and  C_21 
REMARK    3  A    between atoms: O_25  and  C_23 
REMARK    4  A    between atoms: C_26  and  O_25 
REMARK    5  A    between atoms: C_27  and  C_26 
ROOT
HETATM    1  C   UNK N   1      31.033  16.986   6.265  0.00  0.00     0.016 A 
HETATM    2  C   UNK N   1      33.348  17.657   4.882  0.00  0.00     0.037 A 
HETATM    3  C   UNK N   1      32.199  17.208   6.954  0.00  0.00     0.037 A 
HETATM    4  C   UNK N   1      30.963  17.084   4.893  0.00  0.00    -0.007 A 
HETATM    5  C   UNK N   1      33.376  17.547   6.284  0.00  0.00     0.069 A 
HETATM    6  C   UNK N   1      32.138  17.424   4.186  0.00  0.00     0.016 A 
ENDROOT
BRANCH   4   7
HETATM    7  C   UNK N   1      29.668  16.831   4.201  0.00  0.00     0.071 A 
HETATM    8  C   UNK N   1      28.435  17.536   4.260  0.00  0.00     0.020 A 
HETATM    9  C   UNK N   1      27.595  16.837   3.405  0.00  0.00     0.124 A 
HETATM   10  N   UNK N   1      28.284  15.808   2.890  0.00  0.00    -0.306 N 
HETATM   11  C   UNK N   1      27.758  14.837   1.950  0.00  0.00     0.177 C 
HETATM   12  N   UNK N   1      29.521  15.791   3.355  0.00  0.00    -0.298 N 
ATOM     13  HN  UNK N   1      30.240  15.110   3.116  1.00  0.00     0.187 HD
BRANCH   8  14
HETATM   14  C   UNK N   1      27.961  18.756   5.002  0.00  0.00    -0.020 A 
HETATM   15  C   UNK N   1      27.479  19.903   4.367  0.00  0.00     0.029 A 
HETATM   16  C   UNK N   1      27.050  21.007   5.101  0.00  0.00     0.088 A 
HETATM   17  N   UNK N   1      27.099  20.979   6.456  0.00  0.00    -0.375 N 
HETATM   18  C   UNK N   1      27.560  19.884   7.119  0.00  0.00     0.088 A 
ATOM     19  HN  UNK N   1      26.784  21.791   6.988  1.00  0.00     0.164 HD
HETATM   20  C   UNK N   1      27.995  18.762   6.406  0.00  0.00     0.029 A 
ENDBRANCH   8  14
ENDBRANCH   4   7
BRANCH   5  21
HETATM   21  O   UNK N   1      34.513  17.761   7.000  0.00  0.00    -0.345 OA
BRANCH  21  22
HETATM   22  C   UNK N   1      34.433  17.740   8.383  0.00  0.00     0.232 C 
BRANCH  22  23
HETATM   23  C   UNK N   1      34.937  16.525   9.065  0.00  0.00     0.034 A 
HETATM   24  C   UNK N   1      35.177  15.399   8.272  0.00  0.00     0.028 A 
HETATM   25  C   UNK N   1      35.651  14.229   8.854  0.00  0.00     0.016 A 
HETATM   26  C   UNK N   1      35.881  14.195  10.224  0.00  0.00    -0.009 A 
HETATM   27  C   UNK N   1      35.629  15.351  11.001  0.00  0.00     0.042 A 
HETATM   28  C   UNK N   1      36.356  13.031  10.828  0.00  0.00     0.013 A 
HETATM   29  C   UNK N   1      35.859  15.319  12.377  0.00  0.00     0.030 A 
HETATM   30  N   UNK N   1      35.165  16.485  10.406  0.00  0.00    -0.357 N 
HETATM   31  C   UNK N   1      36.336  14.149  12.979  0.00  0.00     0.002 A 
HETATM   32  C   UNK N   1      36.584  13.009  12.205  0.00  0.00     0.001 A 
ATOM     33  HN  UNK N   1      34.986  17.314  10.973  1.00  0.00     0.166 HD
ENDBRANCH  22  23
ENDBRANCH  21  22
ENDBRANCH   5  21
TORSDOF 5
ENDMDL
MODEL 6
REMARK VINA RESULT:      -8.0      1.400      2.029
REMARK  5 active torsions:
REMARK  status: ('A' for Active; 'I' for Inactive)
REMARK    1  A    between atoms: C_14  and  C_10 
REMARK    2  A    between atoms: C_22  and  C_21 
REMARK    3  A    between atoms: O_25  and  C_23 
REMARK    4  A    between atoms: C_26  and  O_25 
REMARK    5  A    between atoms: C_27  and  C_26 
ROOT
HETATM    1  C   UNK N   1      33.682  17.186   7.539  0.00  0.00     0.016 A 
HETATM    2  C   UNK N   1      33.461  15.502   9.737  0.00  0.00     0.037 A 
HETATM    3  C   UNK N   1      34.571  17.301   8.577  0.00  0.00     0.037 A 
HETATM    4  C   UNK N   1      32.668  16.254   7.542  0.00  0.00    -0.007 A 
HETATM    5  C   UNK N   1      34.483  16.467   9.694  0.00  0.00     0.069 A 
HETATM    6  C   UNK N   1      32.551  15.396   8.658  0.00  0.00     0.016 A 
ENDROOT
BRANCH   4   7
HETATM    7  C   UNK N   1      31.733  16.177   6.384  0.00  0.00     0.071 A 
HETATM    8  C   UNK N   1      30.425  16.708   6.215  0.00  0.00     0.020 A 
HETATM    9  C   UNK N   1      30.055  16.317   4.937  0.00  0.00     0.124 A 
HETATM   10  N   UNK N   1      31.066  15.615   4.404  0.00  0.00    -0.306 N 
HETATM   11  C   UNK N   1      31.070  15.029   3.077  0.00  0.00     0.177 C 
HETATM   12  N   UNK N   1      32.073  15.523   5.255  0.00  0.00    -0.298 N 
ATOM     13  HN  UNK N   1      32.956  15.040   5.087  1.00  0.00     0.187 HD
BRANCH   8  14
HETATM   14  C   UNK N   1      29.503  17.518   7.086  0.00  0.00    -0.020 A 
HETATM   15  C   UNK N   1      29.450  17.390   8.476  0.00  0.00     0.029 A 
HETATM   16  C   UNK N   1      28.578  18.166   9.238  0.00  0.00     0.088 A 
HETATM   17  N   UNK N   1      27.762  19.062   8.630  0.00  0.00    -0.375 N 
HETATM   18  C   UNK N   1      27.779  19.221   7.279  0.00  0.00     0.088 A 
ATOM     19  HN  UNK N   1      27.125  19.626   9.193  1.00  0.00     0.164 HD
HETATM   20  C   UNK N   1      28.645  18.456   6.490  0.00  0.00     0.029 A 
ENDBRANCH   8  14
ENDBRANCH   4   7
BRANCH   5  21
HETATM   21  O   UNK N   1      35.382  16.609  10.705  0.00  0.00    -0.345 OA
BRANCH  21  22
HETATM   22  C   UNK N   1      36.315  15.605  10.902  0.00  0.00     0.232 C 
BRANCH  22  23
HETATM   23  C   UNK N   1      36.028  14.624  11.975  0.00  0.00     0.034 A 
HETATM   24  C   UNK N   1      35.413  13.426  11.599  0.00  0.00     0.028 A 
HETATM   25  C   UNK N   1      35.118  12.467  12.561  0.00  0.00     0.016 A 
HETATM   26  C   UNK N   1      35.440  12.714  13.890  0.00  0.00    -0.009 A 
HETATM   27  C   UNK N   1      36.061  13.936  14.240  0.00  0.00     0.042 A 
HETATM   28  C   UNK N   1      35.152  11.765  14.871  0.00  0.00     0.013 A 
HETATM   29  C   UNK N   1      36.385  14.187  15.574  0.00  0.00     0.030 A 
HETATM   30  N   UNK N   1      36.340  14.860  13.278  0.00  0.00    -0.357 N 
HETATM   31  C   UNK N   1      36.095  13.231  16.555  0.00  0.00     0.002 A 
HETATM   32  C   UNK N   1      35.480  12.024  16.203  0.00  0.00     0.001 A 
ATOM     33  HN  UNK N   1      36.788  15.739  13.539  1.00  0.00     0.166 HD
ENDBRANCH  22  23
ENDBRANCH  21  22
ENDBRANCH   5  21
TORSDOF 5
ENDMDL
MODEL 7
REMARK VINA RESULT:      -7.8      5.242     11.879
REMARK  5 active torsions:
REMARK  status: ('A' for Active; 'I' for Inactive)
REMARK    1  A    between atoms: C_14  and  C_10 
REMARK    2  A    between atoms: C_22  and  C_21 
REMARK    3  A    between atoms: O_25  and  C_23 
REMARK    4  A    between atoms: C_26  and  O_25 
REMARK    5  A    between atoms: C_27  and  C_26 
ROOT
HETATM    1  C   UNK N   1      30.386  17.339   4.441  0.00  0.00     0.016 A 
HETATM    2  C   UNK N   1      29.156  16.960   6.903  0.00  0.00     0.037 A 
HETATM    3  C   UNK N   1      29.185  17.948   4.704  0.00  0.00     0.037 A 
HETATM    4  C   UNK N   1      31.017  16.535   5.364  0.00  0.00    -0.007 A 
HETATM    5  C   UNK N   1      28.545  17.775   5.933  0.00  0.00     0.069 A 
HETATM    6  C   UNK N   1      30.395  16.339   6.617  0.00  0.00     0.016 A 
ENDROOT
BRANCH   4   7
HETATM    7  C   UNK N   1      32.321  15.901   5.021  0.00  0.00     0.071 A 
HETATM    8  C   UNK N   1      33.561  15.900   5.718  0.00  0.00     0.020 A 
HETATM    9  C   UNK N   1      34.407  15.148   4.917  0.00  0.00     0.124 A 
HETATM   10  N   UNK N   1      33.716  14.744   3.841  0.00  0.00    -0.306 N 
HETATM   11  C   UNK N   1      34.248  13.933   2.762  0.00  0.00     0.177 C 
HETATM   12  N   UNK N   1      32.472  15.185   3.889  0.00  0.00    -0.298 N 
ATOM     13  HN  UNK N   1      31.749  15.013   3.190  1.00  0.00     0.187 HD
BRANCH   8  14
HETATM   14  C   UNK N   1      34.035  16.504   7.012  0.00  0.00    -0.020 A 
HETATM   15  C   UNK N   1      34.177  17.879   7.211  0.00  0.00     0.029 A 
HETATM   16  C   UNK N   1      34.620  18.389   8.430  0.00  0.00     0.088 A 
HETATM   17  N   UNK N   1      34.923  17.544   9.447  0.00  0.00    -0.375 N 
HETATM   18  C   UNK N   1      34.801  16.198   9.299  0.00  0.00     0.088 A 
ATOM     19  HN  UNK N   1      35.247  17.924  10.336  1.00  0.00     0.164 HD
HETATM   20  C   UNK N   1      34.357  15.659   8.086  0.00  0.00     0.029 A 
ENDBRANCH   8  14
ENDBRANCH   4   7
BRANCH   5  21
HETATM   21  O   UNK N   1      27.355  18.394   6.158  0.00  0.00    -0.345 OA
BRANCH  21  22
HETATM   22  C   UNK N   1      27.009  19.467   5.353  0.00  0.00     0.232 C 
BRANCH  22  23
HETATM   23  C   UNK N   1      25.643  19.460   4.778  0.00  0.00     0.034 A 
HETATM   24  C   UNK N   1      25.409  20.285   3.674  0.00  0.00     0.028 A 
HETATM   25  C   UNK N   1      24.148  20.321   3.091  0.00  0.00     0.016 A 
HETATM   26  C   UNK N   1      23.132  19.532   3.617  0.00  0.00    -0.009 A 
HETATM   27  C   UNK N   1      23.399  18.707   4.735  0.00  0.00     0.042 A 
HETATM   28  C   UNK N   1      21.859  19.554   3.047  0.00  0.00     0.013 A 
HETATM   29  C   UNK N   1      22.380  17.914   5.265  0.00  0.00     0.030 A 
HETATM   30  N   UNK N   1      24.644  18.690   5.288  0.00  0.00    -0.357 N 
HETATM   31  C   UNK N   1      21.105  17.939   4.690  0.00  0.00     0.002 A 
HETATM   32  C   UNK N   1      20.845  18.757   3.584  0.00  0.00     0.001 A 
ATOM     33  HN  UNK N   1      24.828  18.092   6.095  1.00  0.00     0.166 HD
ENDBRANCH  22  23
ENDBRANCH  21  22
ENDBRANCH   5  21
TORSDOF 5
ENDMDL
MODEL 8
REMARK VINA RESULT:      -7.6      2.410      9.336
REMARK  5 active torsions:
REMARK  status: ('A' for Active; 'I' for Inactive)
REMARK    1  A    between atoms: C_14  and  C_10 
REMARK    2  A    between atoms: C_22  and  C_21 
REMARK    3  A    between atoms: O_25  and  C_23 
REMARK    4  A    between atoms: C_26  and  O_25 
REMARK    5  A    between atoms: C_27  and  C_26 
ROOT
HETATM    1  C   UNK N   1      34.878  13.473  10.608  0.00  0.00     0.016 A 
HETATM    2  C   UNK N   1      35.472  16.180  10.794  0.00  0.00     0.037 A 
HETATM    3  C   UNK N   1      34.842  14.257   9.483  0.00  0.00     0.037 A 
HETATM    4  C   UNK N   1      35.203  13.982  11.847  0.00  0.00    -0.007 A 
HETATM    5  C   UNK N   1      35.137  15.621   9.548  0.00  0.00     0.069 A 
HETATM    6  C   UNK N   1      35.505  15.358  11.946  0.00  0.00     0.016 A 
ENDROOT
BRANCH   4   7
HETATM    7  C   UNK N   1      35.225  13.080  13.032  0.00  0.00     0.071 A 
HETATM    8  C   UNK N   1      35.117  11.665  13.119  0.00  0.00     0.020 A 
HETATM    9  C   UNK N   1      35.205  11.394  14.477  0.00  0.00     0.124 A 
HETATM   10  N   UNK N   1      35.352  12.558  15.128  0.00  0.00    -0.306 N 
HETATM   11  C   UNK N   1      35.479  12.701  16.566  0.00  0.00     0.177 C 
HETATM   12  N   UNK N   1      35.365  13.571  14.280  0.00  0.00    -0.298 N 
ATOM     13  HN  UNK N   1      35.465  14.555  14.527  1.00  0.00     0.187 HD
BRANCH   8  14
HETATM   14  C   UNK N   1      34.947  10.563  12.108  0.00  0.00    -0.020 A 
HETATM   15  C   UNK N   1      33.705  10.035  11.751  0.00  0.00     0.029 A 
HETATM   16  C   UNK N   1      33.600   9.014  10.807  0.00  0.00     0.088 A 
HETATM   17  N   UNK N   1      34.718   8.517  10.222  0.00  0.00    -0.375 N 
HETATM   18  C   UNK N   1      35.949   9.000  10.538  0.00  0.00     0.088 A 
ATOM     19  HN  UNK N   1      34.634   7.770   9.532  1.00  0.00     0.164 HD
HETATM   20  C   UNK N   1      36.082  10.025  11.481  0.00  0.00     0.029 A 
ENDBRANCH   8  14
ENDBRANCH   4   7
BRANCH   5  21
HETATM   21  O   UNK N   1      35.091  16.368   8.412  0.00  0.00    -0.345 OA
BRANCH  21  22
HETATM   22  C   UNK N   1      34.393  17.564   8.439  0.00  0.00     0.232 C 
BRANCH  22  23
HETATM   23  C   UNK N   1      32.951  17.506   8.102  0.00  0.00     0.034 A 
HETATM   24  C   UNK N   1      32.611  17.065   6.820  0.00  0.00     0.028 A 
HETATM   25  C   UNK N   1      31.275  16.989   6.445  0.00  0.00     0.016 A 
HETATM   26  C   UNK N   1      30.290  17.354   7.355  0.00  0.00    -0.009 A 
HETATM   27  C   UNK N   1      30.665  17.796   8.646  0.00  0.00     0.042 A 
HETATM   28  C   UNK N   1      28.943  17.285   6.999  0.00  0.00     0.013 A 
HETATM   29  C   UNK N   1      29.678  18.164   9.562  0.00  0.00     0.030 A 
HETATM   30  N   UNK N   1      31.982  17.862   8.989  0.00  0.00    -0.357 N 
HETATM   31  C   UNK N   1      28.329  18.093   9.200  0.00  0.00     0.002 A 
HETATM   32  C   UNK N   1      27.963  17.654   7.922  0.00  0.00     0.001 A 
ATOM     33  HN  UNK N   1      32.244  18.182   9.922  1.00  0.00     0.166 HD
ENDBRANCH  22  23
ENDBRANCH  21  22
ENDBRANCH   5  21
TORSDOF 5
ENDMDL
MODEL 9
REMARK VINA RESULT:      -7.6      2.071      9.740
REMARK  5 active torsions:
REMARK  status: ('A' for Active; 'I' for Inactive)
REMARK    1  A    between atoms: C_14  and  C_10 
REMARK    2  A    between atoms: C_22  and  C_21 
REMARK    3  A    between atoms: O_25  and  C_23 
REMARK    4  A    between atoms: C_26  and  O_25 
REMARK    5  A    between atoms: C_27  and  C_26 
ROOT
HETATM    1  C   UNK N   1      34.517  13.961  10.271  0.00  0.00     0.016 A 
HETATM    2  C   UNK N   1      35.956  16.281  10.786  0.00  0.00     0.037 A 
HETATM    3  C   UNK N   1      34.048  15.169   9.820  0.00  0.00     0.037 A 
HETATM    4  C   UNK N   1      35.693  13.851  10.980  0.00  0.00    -0.007 A 
HETATM    5  C   UNK N   1      34.751  16.350  10.064  0.00  0.00     0.069 A 
HETATM    6  C   UNK N   1      36.428  15.028  11.245  0.00  0.00     0.016 A 
ENDROOT
BRANCH   4   7
HETATM    7  C   UNK N   1      36.151  12.511  11.444  0.00  0.00     0.071 A 
HETATM    8  C   UNK N   1      36.291  11.986  12.758  0.00  0.00     0.020 A 
HETATM    9  C   UNK N   1      36.756  10.693  12.566  0.00  0.00     0.124 A 
HETATM   10  N   UNK N   1      36.878  10.483  11.247  0.00  0.00    -0.306 N 
HETATM   11  C   UNK N   1      37.337   9.251  10.636  0.00  0.00     0.177 C 
HETATM   12  N   UNK N   1      36.521  11.558  10.566  0.00  0.00    -0.298 N 
ATOM     13  HN  UNK N   1      36.524  11.650   9.551  1.00  0.00     0.187 HD
BRANCH   8  14
HETATM   14  C   UNK N   1      36.047  12.536  14.138  0.00  0.00    -0.020 A 
HETATM   15  C   UNK N   1      36.762  13.609  14.674  0.00  0.00     0.029 A 
HETATM   16  C   UNK N   1      36.496  14.082  15.958  0.00  0.00     0.088 A 
HETATM   17  N   UNK N   1      35.531  13.496  16.709  0.00  0.00    -0.375 N 
HETATM   18  C   UNK N   1      34.809  12.448  16.229  0.00  0.00     0.088 A 
ATOM     19  HN  UNK N   1      35.342  13.846  17.648  1.00  0.00     0.164 HD
HETATM   20  C   UNK N   1      35.054  11.954  14.942  0.00  0.00     0.029 A 
ENDBRANCH   8  14
ENDBRANCH   4   7
BRANCH   5  21
HETATM   21  O   UNK N   1      34.255  17.530   9.601  0.00  0.00    -0.345 OA
BRANCH  21  22
HETATM   22  C   UNK N   1      34.521  17.885   8.289  0.00  0.00     0.232 C 
BRANCH  22  23
HETATM   23  C   UNK N   1      33.456  17.617   7.294  0.00  0.00     0.034 A 
HETATM   24  C   UNK N   1      32.147  17.509   7.771  0.00  0.00     0.028 A 
HETATM   25  C   UNK N   1      31.105  17.258   6.886  0.00  0.00     0.016 A 
HETATM   26  C   UNK N   1      31.381  17.118   5.531  0.00  0.00    -0.009 A 
HETATM   27  C   UNK N   1      32.717  17.232   5.078  0.00  0.00     0.042 A 
HETATM   28  C   UNK N   1      30.350  16.866   4.626  0.00  0.00     0.013 A 
HETATM   29  C   UNK N   1      32.997  17.091   3.718  0.00  0.00     0.030 A 
HETATM   30  N   UNK N   1      33.720  17.478   5.966  0.00  0.00    -0.357 N 
HETATM   31  C   UNK N   1      31.959  16.838   2.814  0.00  0.00     0.002 A 
HETATM   32  C   UNK N   1      30.639  16.726   3.267  0.00  0.00     0.001 A 
ATOM     33  HN  UNK N   1      34.681  17.559   5.630  1.00  0.00     0.166 HD
ENDBRANCH  22  23
ENDBRANCH  21  22
ENDBRANCH   5  21
TORSDOF 5
ENDMDL
