MODEL 1
REMARK VINA RESULT:      -7.0      0.000      0.000
REMARK  8 active torsions:
REMARK  status: ('A' for Active; 'I' for Inactive)
REMARK    1  A    between atoms: C_7  and  O_8 
REMARK    2  A    between atoms: O_8  and  C_9 
REMARK    3  A    between atoms: C_14  and  O_15 
REMARK    4  A    between atoms: O_15  and  C_16 
REMARK    5  A    between atoms: C_16  and  C_17 
REMARK    6  A    between atoms: C_17  and  C_18 
REMARK    7  A    between atoms: C_18  and  O_19 
REMARK    8  A    between atoms: O_19  and  C_20 
ROOT
HETATM    1  C   UNK N   1      21.030  17.741   3.804  0.00  0.00     0.230 A 
HETATM    2  C   UNK N   1      21.004  19.195   4.248  0.00  0.00     0.270 A 
HETATM    3  O   UNK N   1      21.166  19.467   5.427  0.00  0.00    -0.269 OA
HETATM    4  N   UNK N   1      20.773  20.199   3.372  0.00  0.00    -0.276 N 
HETATM    5  C   UNK N   1      20.542  19.979   2.058  0.00  0.00     0.329 A 
HETATM    6  O   UNK N   1      20.364  20.928   1.315  0.00  0.00    -0.247 OA
HETATM    7  N   UNK N   1      20.494  18.720   1.560  0.00  0.00    -0.276 N 
HETATM    8  C   UNK N   1      20.696  17.622   2.329  0.00  0.00     0.270 A 
HETATM    9  O   UNK N   1      20.636  16.516   1.811  0.00  0.00    -0.269 OA
HETATM   10  H   UNK N   1      20.775  21.127   3.704  0.00  0.00     0.173 HD
HETATM   11  H   UNK N   1      20.304  18.597   0.601  0.00  0.00     0.173 HD
ENDROOT
BRANCH   1  12
HETATM   12  O   UNK N   1      20.047  17.087   4.545  0.00  0.00    -0.320 OA
BRANCH  12  13
HETATM   13  C   UNK N   1      20.247  16.035   5.369  0.00  0.00     0.071 A 
HETATM   14  C   UNK N   1      20.180  14.739   4.848  0.00  0.00     0.039 A 
HETATM   15  C   UNK N   1      20.320  13.633   5.688  0.00  0.00     0.040 A 
HETATM   16  C   UNK N   1      20.575  13.818   7.048  0.00  0.00     0.076 A 
HETATM   17  C   UNK N   1      20.671  15.122   7.568  0.00  0.00     0.040 A 
HETATM   18  C   UNK N   1      20.495  16.226   6.734  0.00  0.00     0.039 A 
BRANCH  16  19
HETATM   19  O   UNK N   1      20.716  12.740   7.857  0.00  0.00    -0.311 OA
BRANCH  19  20
HETATM   20  C   UNK N   1      21.762  12.586   8.705  0.00  0.00     0.076 A 
HETATM   21  C   UNK N   1      21.545  12.600  10.087  0.00  0.00     0.040 A 
HETATM   22  C   UNK N   1      22.624  12.438  10.964  0.00  0.00     0.045 A 
HETATM   23  C   UNK N   1      23.915  12.241  10.461  0.00  0.00     0.116 A 
HETATM   24  F   UNK N   1      24.959  12.082  11.307  0.00  0.00    -0.206 F 
HETATM   25  C   UNK N   1      24.131  12.206   9.083  0.00  0.00     0.045 A 
HETATM   26  C   UNK N   1      23.061  12.382   8.209  0.00  0.00     0.040 A 
ENDBRANCH  19  20
ENDBRANCH  16  19
ENDBRANCH  12  13
ENDBRANCH   1  12
BRANCH   1  27
HETATM   27  C   UNK N   1      22.457  17.136   3.965  0.00  0.00     0.085 C 
BRANCH  27  28
HETATM   28  C   UNK N   1      23.661  18.063   3.785  0.00  0.00     0.171 C 
BRANCH  28  29
HETATM   29  O   UNK N   1      24.321  18.303   4.990  0.00  0.00    -0.391 OA
BRANCH  29  30
HETATM   30  C   UNK N   1      25.419  19.093   4.644  0.00  0.00     0.163 C 
HETATM   31  C   UNK N   1      24.995  20.191   3.686  0.00  0.00     0.033 C 
ENDBRANCH  29  30
ENDBRANCH  28  29
ENDBRANCH  27  28
ENDBRANCH   1  27
TORSDOF 8
ENDMDL
MODEL 2
REMARK VINA RESULT:      -6.8      8.307     11.544
REMARK  8 active torsions:
REMARK  status: ('A' for Active; 'I' for Inactive)
REMARK    1  A    between atoms: C_7  and  O_8 
REMARK    2  A    between atoms: O_8  and  C_9 
REMARK    3  A    between atoms: C_14  and  O_15 
REMARK    4  A    between atoms: O_15  and  C_16 
REMARK    5  A    between atoms: C_16  and  C_17 
REMARK    6  A    between atoms: C_17  and  C_18 
REMARK    7  A    between atoms: C_18  and  O_19 
REMARK    8  A    between atoms: O_19  and  C_20 
ROOT
HETATM    1  C   UNK N   1      32.835  16.518   7.581  0.00  0.00     0.230 A 
HETATM    2  C   UNK N   1      33.983  17.506   7.456  0.00  0.00     0.270 A 
HETATM    3  O   UNK N   1      34.132  18.127   6.415  0.00  0.00    -0.269 OA
HETATM    4  N   UNK N   1      34.868  17.694   8.461  0.00  0.00    -0.276 N 
HETATM    5  C   UNK N   1      34.798  17.015   9.628  0.00  0.00     0.329 A 
HETATM    6  O   UNK N   1      35.613  17.246  10.504  0.00  0.00    -0.247 OA
HETATM    7  N   UNK N   1      33.844  16.074   9.831  0.00  0.00    -0.276 N 
HETATM    8  C   UNK N   1      32.901  15.778   8.904  0.00  0.00     0.270 A 
HETATM    9  O   UNK N   1      32.072  14.916   9.155  0.00  0.00    -0.269 OA
HETATM   10  H   UNK N   1      35.591  18.352   8.338  0.00  0.00     0.173 HD
HETATM   11  H   UNK N   1      33.836  15.587  10.687  0.00  0.00     0.173 HD
ENDROOT
BRANCH   1  12
HETATM   12  O   UNK N   1      32.990  15.602   6.541  0.00  0.00    -0.320 OA
BRANCH  12  13
HETATM   13  C   UNK N   1      32.123  15.406   5.523  0.00  0.00     0.071 A 
HETATM   14  C   UNK N   1      32.253  16.173   4.361  0.00  0.00     0.039 A 
HETATM   15  C   UNK N   1      31.334  16.035   3.319  0.00  0.00     0.040 A 
HETATM   16  C   UNK N   1      30.306  15.095   3.415  0.00  0.00     0.076 A 
HETATM   17  C   UNK N   1      30.192  14.304   4.573  0.00  0.00     0.040 A 
HETATM   18  C   UNK N   1      31.090  14.467   5.628  0.00  0.00     0.039 A 
BRANCH  16  19
HETATM   19  O   UNK N   1      29.421  14.963   2.397  0.00  0.00    -0.311 OA
BRANCH  19  20
HETATM   20  C   UNK N   1      28.096  15.207   2.537  0.00  0.00     0.076 A 
HETATM   21  C   UNK N   1      27.165  14.238   2.151  0.00  0.00     0.040 A 
HETATM   22  C   UNK N   1      25.795  14.487   2.299  0.00  0.00     0.045 A 
HETATM   23  C   UNK N   1      25.357  15.696   2.849  0.00  0.00     0.116 A 
HETATM   24  F   UNK N   1      24.033  15.939   2.994  0.00  0.00    -0.206 F 
HETATM   25  C   UNK N   1      26.283  16.658   3.253  0.00  0.00     0.045 A 
HETATM   26  C   UNK N   1      27.646  16.417   3.094  0.00  0.00     0.040 A 
ENDBRANCH  19  20
ENDBRANCH  16  19
ENDBRANCH  12  13
ENDBRANCH   1  12
BRANCH   1  27
HETATM   27  C   UNK N   1      31.462  17.257   7.579  0.00  0.00     0.085 C 
BRANCH  27  28
HETATM   28  C   UNK N   1      31.173  18.250   8.707  0.00  0.00     0.171 C 
BRANCH  28  29
HETATM   29  O   UNK N   1      29.885  18.779   8.619  0.00  0.00    -0.391 OA
BRANCH  29  30
HETATM   30  C   UNK N   1      29.195  18.215   9.695  0.00  0.00     0.163 C 
HETATM   31  C   UNK N   1      28.016  17.401   9.192  0.00  0.00     0.033 C 
ENDBRANCH  29  30
ENDBRANCH  28  29
ENDBRANCH  27  28
ENDBRANCH   1  27
TORSDOF 8
ENDMDL
MODEL 3
REMARK VINA RESULT:      -6.7     16.112     18.491
REMARK  8 active torsions:
REMARK  status: ('A' for Active; 'I' for Inactive)
REMARK    1  A    between atoms: C_7  and  O_8 
REMARK    2  A    between atoms: O_8  and  C_9 
REMARK    3  A    between atoms: C_14  and  O_15 
REMARK    4  A    between atoms: O_15  and  C_16 
REMARK    5  A    between atoms: C_16  and  C_17 
REMARK    6  A    between atoms: C_17  and  C_18 
REMARK    7  A    between atoms: C_18  and  O_19 
REMARK    8  A    between atoms: O_19  and  C_20 
ROOT
HETATM    1  C   UNK N   1      35.921  13.168  14.952  0.00  0.00     0.230 A 
HETATM    2  C   UNK N   1      36.753  14.432  14.807  0.00  0.00     0.270 A 
HETATM    3  O   UNK N   1      37.443  14.810  15.741  0.00  0.00    -0.269 OA
HETATM    4  N   UNK N   1      36.726  15.171  13.674  0.00  0.00    -0.276 N 
HETATM    5  C   UNK N   1      35.957  14.844  12.611  0.00  0.00     0.329 A 
HETATM    6  O   UNK N   1      35.994  15.538  11.610  0.00  0.00    -0.247 OA
HETATM    7  N   UNK N   1      35.138  13.765  12.648  0.00  0.00    -0.276 N 
HETATM    8  C   UNK N   1      35.060  12.945  13.724  0.00  0.00     0.270 A 
HETATM    9  O   UNK N   1      34.297  11.990  13.687  0.00  0.00    -0.269 OA
HETATM   10  H   UNK N   1      37.290  15.977  13.622  0.00  0.00     0.173 HD
HETATM   11  H   UNK N   1      34.579  13.569  11.861  0.00  0.00     0.173 HD
ENDROOT
BRANCH   1  12
HETATM   12  O   UNK N   1      35.094  13.368  16.056  0.00  0.00    -0.320 OA
BRANCH  12  13
HETATM   13  C   UNK N   1      35.138  12.673  17.214  0.00  0.00     0.071 A 
HETATM   14  C   UNK N   1      35.230  13.369  18.424  0.00  0.00     0.039 A 
HETATM   15  C   UNK N   1      35.340  12.676  19.630  0.00  0.00     0.040 A 
HETATM   16  C   UNK N   1      35.311  11.280  19.638  0.00  0.00     0.076 A 
HETATM   17  C   UNK N   1      35.189  10.580  18.423  0.00  0.00     0.040 A 
HETATM   18  C   UNK N   1      35.116  11.273  17.216  0.00  0.00     0.039 A 
BRANCH  16  19
HETATM   19  O   UNK N   1      35.412  10.614  20.813  0.00  0.00    -0.311 OA
BRANCH  19  20
HETATM   20  C   UNK N   1      34.404   9.869  21.328  0.00  0.00     0.076 A 
HETATM   21  C   UNK N   1      33.269  10.498  21.849  0.00  0.00     0.040 A 
HETATM   22  C   UNK N   1      32.225   9.729  22.377  0.00  0.00     0.045 A 
HETATM   23  C   UNK N   1      32.307   8.332  22.366  0.00  0.00     0.116 A 
HETATM   24  F   UNK N   1      31.298   7.587  22.875  0.00  0.00    -0.206 F 
HETATM   25  C   UNK N   1      33.429   7.701  21.829  0.00  0.00     0.045 A 
HETATM   26  C   UNK N   1      34.475   8.465  21.316  0.00  0.00     0.040 A 
ENDBRANCH  19  20
ENDBRANCH  16  19
ENDBRANCH  12  13
ENDBRANCH   1  12
BRANCH   1  27
HETATM   27  C   UNK N   1      36.835  11.910  15.061  0.00  0.00     0.085 C 
BRANCH  27  28
HETATM   28  C   UNK N   1      37.644  11.493  13.830  0.00  0.00     0.171 C 
BRANCH  28  29
HETATM   29  O   UNK N   1      37.161  10.314  13.263  0.00  0.00    -0.391 OA
BRANCH  29  30
HETATM   30  C   UNK N   1      36.998   9.441  14.340  0.00  0.00     0.163 C 
HETATM   31  C   UNK N   1      35.676   8.704  14.223  0.00  0.00     0.033 C 
ENDBRANCH  29  30
ENDBRANCH  28  29
ENDBRANCH  27  28
ENDBRANCH   1  27
TORSDOF 8
ENDMDL
MODEL 4
REMARK VINA RESULT:      -6.7     15.601     17.505
REMARK  8 active torsions:
REMARK  status: ('A' for Active; 'I' for Inactive)
REMARK    1  A    between atoms: C_7  and  O_8 
REMARK    2  A    between atoms: O_8  and  C_9 
REMARK    3  A    between atoms: C_14  and  O_15 
REMARK    4  A    between atoms: O_15  and  C_16 
REMARK    5  A    between atoms: C_16  and  C_17 
REMARK    6  A    between atoms: C_17  and  C_18 
REMARK    7  A    between atoms: C_18  and  O_19 
REMARK    8  A    between atoms: O_19  and  C_20 
ROOT
HETATM    1  C   UNK N   1      35.773  12.989  14.002  0.00  0.00     0.230 A 
HETATM    2  C   UNK N   1      36.438  14.349  14.144  0.00  0.00     0.270 A 
HETATM    3  O   UNK N   1      37.011  14.633  15.184  0.00  0.00    -0.269 OA
HETATM    4  N   UNK N   1      36.384  15.270  13.156  0.00  0.00    -0.276 N 
HETATM    5  C   UNK N   1      35.733  15.050  11.991  0.00  0.00     0.329 A 
HETATM    6  O   UNK N   1      35.741  15.911  11.129  0.00  0.00    -0.247 OA
HETATM    7  N   UNK N   1      35.064  13.891  11.775  0.00  0.00    -0.276 N 
HETATM    8  C   UNK N   1      35.028  12.888  12.685  0.00  0.00     0.270 A 
HETATM    9  O   UNK N   1      34.403  11.871  12.422  0.00  0.00    -0.269 OA
HETATM   10  H   UNK N   1      36.838  16.134  13.289  0.00  0.00     0.173 HD
HETATM   11  H   UNK N   1      34.586  13.774  10.921  0.00  0.00     0.173 HD
ENDROOT
BRANCH   1  12
HETATM   12  O   UNK N   1      34.859  12.887  15.049  0.00  0.00    -0.320 OA
BRANCH  12  13
HETATM   13  C   UNK N   1      34.915  11.998  16.066  0.00  0.00     0.071 A 
HETATM   14  C   UNK N   1      34.578  10.663  15.821  0.00  0.00     0.039 A 
HETATM   15  C   UNK N   1      34.567   9.736  16.865  0.00  0.00     0.040 A 
HETATM   16  C   UNK N   1      34.938  10.131  18.152  0.00  0.00     0.076 A 
HETATM   17  C   UNK N   1      35.304  11.468  18.392  0.00  0.00     0.040 A 
HETATM   18  C   UNK N   1      35.281  12.401  17.355  0.00  0.00     0.039 A 
BRANCH  16  19
HETATM   19  O   UNK N   1      34.931   9.225  19.160  0.00  0.00    -0.311 OA
BRANCH  19  20
HETATM   20  C   UNK N   1      33.819   8.547  19.533  0.00  0.00     0.076 A 
HETATM   21  C   UNK N   1      32.784   9.216  20.194  0.00  0.00     0.040 A 
HETATM   22  C   UNK N   1      31.633   8.517  20.577  0.00  0.00     0.045 A 
HETATM   23  C   UNK N   1      31.507   7.156  20.281  0.00  0.00     0.116 A 
HETATM   24  F   UNK N   1      30.395   6.478  20.649  0.00  0.00    -0.206 F 
HETATM   25  C   UNK N   1      32.529   6.489  19.604  0.00  0.00     0.045 A 
HETATM   26  C   UNK N   1      33.681   7.180  19.236  0.00  0.00     0.040 A 
ENDBRANCH  19  20
ENDBRANCH  16  19
ENDBRANCH  12  13
ENDBRANCH   1  12
BRANCH   1  27
HETATM   27  C   UNK N   1      36.837  11.850  13.974  0.00  0.00     0.085 C 
BRANCH  27  28
HETATM   28  C   UNK N   1      37.863  11.846  12.837  0.00  0.00     0.171 C 
BRANCH  28  29
HETATM   29  O   UNK N   1      37.677  10.769  11.970  0.00  0.00    -0.391 OA
BRANCH  29  30
HETATM   30  C   UNK N   1      37.643  11.340  10.696  0.00  0.00     0.163 C 
HETATM   31  C   UNK N   1      38.347  12.684  10.705  0.00  0.00     0.033 C 
ENDBRANCH  29  30
ENDBRANCH  28  29
ENDBRANCH  27  28
ENDBRANCH   1  27
TORSDOF 8
ENDMDL
MODEL 5
REMARK VINA RESULT:      -6.6     15.386     17.472
REMARK  8 active torsions:
REMARK  status: ('A' for Active; 'I' for Inactive)
REMARK    1  A    between atoms: C_7  and  O_8 
REMARK    2  A    between atoms: O_8  and  C_9 
REMARK    3  A    between atoms: C_14  and  O_15 
REMARK    4  A    between atoms: O_15  and  C_16 
REMARK    5  A    between atoms: C_16  and  C_17 
REMARK    6  A    between atoms: C_17  and  C_18 
REMARK    7  A    between atoms: C_18  and  O_19 
REMARK    8  A    between atoms: O_19  and  C_20 
ROOT
HETATM    1  C   UNK N   1      35.711  13.029  13.552  0.00  0.00     0.230 A 
HETATM    2  C   UNK N   1      36.309  14.419  13.697  0.00  0.00     0.270 A 
HETATM    3  O   UNK N   1      36.855  14.733  14.742  0.00  0.00    -0.269 OA
HETATM    4  N   UNK N   1      36.226  15.333  12.703  0.00  0.00    -0.276 N 
HETATM    5  C   UNK N   1      35.601  15.079  11.532  0.00  0.00     0.329 A 
HETATM    6  O   UNK N   1      35.580  15.936  10.666  0.00  0.00    -0.247 OA
HETATM    7  N   UNK N   1      34.990  13.890  11.312  0.00  0.00    -0.276 N 
HETATM    8  C   UNK N   1      34.988  12.889  12.225  0.00  0.00     0.270 A 
HETATM    9  O   UNK N   1      34.414  11.843  11.959  0.00  0.00    -0.269 OA
HETATM   10  H   UNK N   1      36.637  16.218  12.839  0.00  0.00     0.173 HD
HETATM   11  H   UNK N   1      34.529  13.747  10.453  0.00  0.00     0.173 HD
ENDROOT
BRANCH   1  12
HETATM   12  O   UNK N   1      34.788  12.889  14.587  0.00  0.00    -0.320 OA
BRANCH  12  13
HETATM   13  C   UNK N   1      34.877  12.014  15.614  0.00  0.00     0.071 A 
HETATM   14  C   UNK N   1      34.486  10.687  15.413  0.00  0.00     0.039 A 
HETATM   15  C   UNK N   1      34.508   9.777  16.471  0.00  0.00     0.040 A 
HETATM   16  C   UNK N   1      34.968  10.178  17.726  0.00  0.00     0.076 A 
HETATM   17  C   UNK N   1      35.389  11.507  17.921  0.00  0.00     0.040 A 
HETATM   18  C   UNK N   1      35.333  12.424  16.872  0.00  0.00     0.039 A 
BRANCH  16  19
HETATM   19  O   UNK N   1      34.993   9.288  18.748  0.00  0.00    -0.311 OA
BRANCH  19  20
HETATM   20  C   UNK N   1      34.172   9.376  19.822  0.00  0.00     0.076 A 
HETATM   21  C   UNK N   1      32.877   8.852  19.754  0.00  0.00     0.040 A 
HETATM   22  C   UNK N   1      32.029   8.939  20.865  0.00  0.00     0.045 A 
HETATM   23  C   UNK N   1      32.482   9.531  22.049  0.00  0.00     0.116 A 
HETATM   24  F   UNK N   1      31.664   9.615  23.124  0.00  0.00    -0.206 F 
HETATM   25  C   UNK N   1      33.779  10.038  22.127  0.00  0.00     0.045 A 
HETATM   26  C   UNK N   1      34.619   9.965  21.018  0.00  0.00     0.040 A 
ENDBRANCH  19  20
ENDBRANCH  16  19
ENDBRANCH  12  13
ENDBRANCH   1  12
BRANCH   1  27
HETATM   27  C   UNK N   1      36.827  11.941  13.541  0.00  0.00     0.085 C 
BRANCH  27  28
HETATM   28  C   UNK N   1      37.893  12.008  12.446  0.00  0.00     0.171 C 
BRANCH  28  29
HETATM   29  O   UNK N   1      37.747  10.982  11.512  0.00  0.00    -0.391 OA
BRANCH  29  30
HETATM   30  C   UNK N   1      37.829  11.616  10.271  0.00  0.00     0.163 C 
HETATM   31  C   UNK N   1      38.532  12.954  10.411  0.00  0.00     0.033 C 
ENDBRANCH  29  30
ENDBRANCH  28  29
ENDBRANCH  27  28
ENDBRANCH   1  27
TORSDOF 8
ENDMDL
MODEL 6
REMARK VINA RESULT:      -6.6     10.983     13.473
REMARK  8 active torsions:
REMARK  status: ('A' for Active; 'I' for Inactive)
REMARK    1  A    between atoms: C_7  and  O_8 
REMARK    2  A    between atoms: O_8  and  C_9 
REMARK    3  A    between atoms: C_14  and  O_15 
REMARK    4  A    between atoms: O_15  and  C_16 
REMARK    5  A    between atoms: C_16  and  C_17 
REMARK    6  A    between atoms: C_17  and  C_18 
REMARK    7  A    between atoms: C_18  and  O_19 
REMARK    8  A    between atoms: O_19  and  C_20 
ROOT
HETATM    1  C   UNK N   1      33.277  16.157   7.522  0.00  0.00     0.230 A 
HETATM    2  C   UNK N   1      32.349  15.258   6.721  0.00  0.00     0.270 A 
HETATM    3  O   UNK N   1      31.883  14.257   7.242  0.00  0.00    -0.269 OA
HETATM    4  N   UNK N   1      32.049  15.521   5.429  0.00  0.00    -0.276 N 
HETATM    5  C   UNK N   1      32.557  16.585   4.767  0.00  0.00     0.329 A 
HETATM    6  O   UNK N   1      32.230  16.781   3.610  0.00  0.00    -0.247 OA
HETATM    7  N   UNK N   1      33.433  17.426   5.368  0.00  0.00    -0.276 N 
HETATM    8  C   UNK N   1      33.827  17.273   6.655  0.00  0.00     0.270 A 
HETATM    9  O   UNK N   1      34.622  18.071   7.131  0.00  0.00    -0.269 OA
HETATM   10  H   UNK N   1      31.435  14.915   4.953  0.00  0.00     0.173 HD
HETATM   11  H   UNK N   1      33.796  18.180   4.848  0.00  0.00     0.173 HD
ENDROOT
BRANCH   1  12
HETATM   12  O   UNK N   1      34.332  15.352   7.948  0.00  0.00    -0.320 OA
BRANCH  12  13
HETATM   13  C   UNK N   1      34.739  15.192   9.228  0.00  0.00     0.071 A 
HETATM   14  C   UNK N   1      34.230  14.126   9.976  0.00  0.00     0.039 A 
HETATM   15  C   UNK N   1      34.585  13.973  11.317  0.00  0.00     0.040 A 
HETATM   16  C   UNK N   1      35.489  14.860  11.905  0.00  0.00     0.076 A 
HETATM   17  C   UNK N   1      36.023  15.916  11.144  0.00  0.00     0.040 A 
HETATM   18  C   UNK N   1      35.640  16.089   9.814  0.00  0.00     0.039 A 
BRANCH  16  19
HETATM   19  O   UNK N   1      35.833  14.702  13.206  0.00  0.00    -0.311 OA
BRANCH  19  20
HETATM   20  C   UNK N   1      36.318  13.539  13.705  0.00  0.00     0.076 A 
HETATM   21  C   UNK N   1      35.969  13.137  14.998  0.00  0.00     0.040 A 
HETATM   22  C   UNK N   1      36.466  11.934  15.512  0.00  0.00     0.045 A 
HETATM   23  C   UNK N   1      37.294  11.123  14.728  0.00  0.00     0.116 A 
HETATM   24  F   UNK N   1      37.775   9.959  15.223  0.00  0.00    -0.206 F 
HETATM   25  C   UNK N   1      37.628  11.512  13.431  0.00  0.00     0.045 A 
HETATM   26  C   UNK N   1      37.146  12.716  12.922  0.00  0.00     0.040 A 
ENDBRANCH  19  20
ENDBRANCH  16  19
ENDBRANCH  12  13
ENDBRANCH   1  12
BRANCH   1  27
HETATM   27  C   UNK N   1      32.506  16.862   8.679  0.00  0.00     0.085 C 
BRANCH  27  28
HETATM   28  C   UNK N   1      31.208  17.598   8.341  0.00  0.00     0.171 C 
BRANCH  28  29
HETATM   29  O   UNK N   1      30.163  17.229   9.188  0.00  0.00    -0.391 OA
BRANCH  29  30
HETATM   30  C   UNK N   1      29.536  18.431   9.524  0.00  0.00     0.163 C 
HETATM   31  C   UNK N   1      28.240  18.581   8.749  0.00  0.00     0.033 C 
ENDBRANCH  29  30
ENDBRANCH  28  29
ENDBRANCH  27  28
ENDBRANCH   1  27
TORSDOF 8
ENDMDL
MODEL 7
REMARK VINA RESULT:      -6.6      1.727      3.274
REMARK  8 active torsions:
REMARK  status: ('A' for Active; 'I' for Inactive)
REMARK    1  A    between atoms: C_7  and  O_8 
REMARK    2  A    between atoms: O_8  and  C_9 
REMARK    3  A    between atoms: C_14  and  O_15 
REMARK    4  A    between atoms: O_15  and  C_16 
REMARK    5  A    between atoms: C_16  and  C_17 
REMARK    6  A    between atoms: C_17  and  C_18 
REMARK    7  A    between atoms: C_18  and  O_19 
REMARK    8  A    between atoms: O_19  and  C_20 
ROOT
HETATM    1  C   UNK N   1      21.603  17.477   4.392  0.00  0.00     0.230 A 
HETATM    2  C   UNK N   1      22.355  16.539   3.462  0.00  0.00     0.270 A 
HETATM    3  O   UNK N   1      21.768  16.022   2.525  0.00  0.00    -0.269 OA
HETATM    4  N   UNK N   1      23.658  16.236   3.663  0.00  0.00    -0.276 N 
HETATM    5  C   UNK N   1      24.368  16.733   4.701  0.00  0.00     0.329 A 
HETATM    6  O   UNK N   1      25.545  16.440   4.816  0.00  0.00    -0.247 OA
HETATM    7  N   UNK N   1      23.786  17.541   5.621  0.00  0.00    -0.276 N 
HETATM    8  C   UNK N   1      22.486  17.916   5.545  0.00  0.00     0.270 A 
HETATM    9  O   UNK N   1      22.028  18.646   6.412  0.00  0.00    -0.269 OA
HETATM   10  H   UNK N   1      24.107  15.631   3.029  0.00  0.00     0.173 HD
HETATM   11  H   UNK N   1      24.330  17.869   6.374  0.00  0.00     0.173 HD
ENDROOT
BRANCH   1  12
HETATM   12  O   UNK N   1      20.527  16.750   4.896  0.00  0.00    -0.320 OA
BRANCH  12  13
HETATM   13  C   UNK N   1      20.599  15.769   5.823  0.00  0.00     0.071 A 
HETATM   14  C   UNK N   1      20.803  14.450   5.404  0.00  0.00     0.039 A 
HETATM   15  C   UNK N   1      20.820  13.409   6.335  0.00  0.00     0.040 A 
HETATM   16  C   UNK N   1      20.681  13.688   7.696  0.00  0.00     0.076 A 
HETATM   17  C   UNK N   1      20.505  15.018   8.119  0.00  0.00     0.040 A 
HETATM   18  C   UNK N   1      20.452  16.053   7.186  0.00  0.00     0.039 A 
BRANCH  16  19
HETATM   19  O   UNK N   1      20.704  12.674   8.594  0.00  0.00    -0.311 OA
BRANCH  19  20
HETATM   20  C   UNK N   1      21.742  12.460   9.438  0.00  0.00     0.076 A 
HETATM   21  C   UNK N   1      21.513  12.366  10.814  0.00  0.00     0.040 A 
HETATM   22  C   UNK N   1      22.584  12.142  11.687  0.00  0.00     0.045 A 
HETATM   23  C   UNK N   1      23.880  11.991  11.182  0.00  0.00     0.116 A 
HETATM   24  F   UNK N   1      24.918  11.772  12.024  0.00  0.00    -0.206 F 
HETATM   25  C   UNK N   1      24.110  12.064   9.808  0.00  0.00     0.045 A 
HETATM   26  C   UNK N   1      23.047  12.302   8.940  0.00  0.00     0.040 A 
ENDBRANCH  19  20
ENDBRANCH  16  19
ENDBRANCH  12  13
ENDBRANCH   1  12
BRANCH   1  27
HETATM   27  C   UNK N   1      21.195  18.787   3.651  0.00  0.00     0.085 C 
BRANCH  27  28
HETATM   28  C   UNK N   1      22.302  19.759   3.236  0.00  0.00     0.171 C 
BRANCH  28  29
HETATM   29  O   UNK N   1      21.789  20.987   2.817  0.00  0.00    -0.391 OA
BRANCH  29  30
HETATM   30  C   UNK N   1      20.626  20.666   2.115  0.00  0.00     0.163 C 
HETATM   31  C   UNK N   1      20.852  20.828   0.623  0.00  0.00     0.033 C 
ENDBRANCH  29  30
ENDBRANCH  28  29
ENDBRANCH  27  28
ENDBRANCH   1  27
TORSDOF 8
ENDMDL
MODEL 8
REMARK VINA RESULT:      -6.6     11.585     13.984
REMARK  8 active torsions:
REMARK  status: ('A' for Active; 'I' for Inactive)
REMARK    1  A    between atoms: C_7  and  O_8 
REMARK    2  A    between atoms: O_8  and  C_9 
REMARK    3  A    between atoms: C_14  and  O_15 
REMARK    4  A    between atoms: O_15  and  C_16 
REMARK    5  A    between atoms: C_16  and  C_17 
REMARK    6  A    between atoms: C_17  and  C_18 
REMARK    7  A    between atoms: C_18  and  O_19 
REMARK    8  A    between atoms: O_19  and  C_20 
ROOT
HETATM    1  C   UNK N   1      33.720  15.850   7.509  0.00  0.00     0.230 A 
HETATM    2  C   UNK N   1      33.859  17.238   6.905  0.00  0.00     0.270 A 
HETATM    3  O   UNK N   1      34.724  17.992   7.323  0.00  0.00    -0.269 OA
HETATM    4  N   UNK N   1      33.026  17.675   5.934  0.00  0.00    -0.276 N 
HETATM    5  C   UNK N   1      32.016  16.919   5.448  0.00  0.00     0.329 A 
HETATM    6  O   UNK N   1      31.313  17.360   4.556  0.00  0.00    -0.247 OA
HETATM    7  N   UNK N   1      31.769  15.683   5.946  0.00  0.00    -0.276 N 
HETATM    8  C   UNK N   1      32.520  15.127   6.927  0.00  0.00     0.270 A 
HETATM    9  O   UNK N   1      32.237  14.008   7.329  0.00  0.00    -0.269 OA
HETATM   10  H   UNK N   1      33.160  18.579   5.566  0.00  0.00     0.173 HD
HETATM   11  H   UNK N   1      31.013  15.168   5.579  0.00  0.00     0.173 HD
ENDROOT
BRANCH   1  12
HETATM   12  O   UNK N   1      33.520  16.035   8.876  0.00  0.00    -0.320 OA
BRANCH  12  13
HETATM   13  C   UNK N   1      34.241  15.464   9.866  0.00  0.00     0.071 A 
HETATM   14  C   UNK N   1      35.070  16.268  10.655  0.00  0.00     0.039 A 
HETATM   15  C   UNK N   1      35.873  15.696  11.643  0.00  0.00     0.040 A 
HETATM   16  C   UNK N   1      35.817  14.321  11.879  0.00  0.00     0.076 A 
HETATM   17  C   UNK N   1      34.962  13.517  11.104  0.00  0.00     0.040 A 
HETATM   18  C   UNK N   1      34.186  14.084  10.093  0.00  0.00     0.039 A 
BRANCH  16  19
HETATM   19  O   UNK N   1      36.595  13.774  12.844  0.00  0.00    -0.311 OA
BRANCH  19  20
HETATM   20  C   UNK N   1      36.201  13.665  14.136  0.00  0.00     0.076 A 
HETATM   21  C   UNK N   1      36.860  14.398  15.129  0.00  0.00     0.040 A 
HETATM   22  C   UNK N   1      36.451  14.289  16.463  0.00  0.00     0.045 A 
HETATM   23  C   UNK N   1      35.372  13.466  16.802  0.00  0.00     0.116 A 
HETATM   24  F   UNK N   1      34.974  13.360  18.092  0.00  0.00    -0.206 F 
HETATM   25  C   UNK N   1      34.700  12.749  15.812  0.00  0.00     0.045 A 
HETATM   26  C   UNK N   1      35.115  12.844  14.485  0.00  0.00     0.040 A 
ENDBRANCH  19  20
ENDBRANCH  16  19
ENDBRANCH  12  13
ENDBRANCH   1  12
BRANCH   1  27
HETATM   27  C   UNK N   1      34.955  14.966   7.160  0.00  0.00     0.085 C 
BRANCH  27  28
HETATM   28  C   UNK N   1      35.460  14.963   5.715  0.00  0.00     0.171 C 
BRANCH  28  29
HETATM   29  O   UNK N   1      36.853  14.945   5.648  0.00  0.00    -0.391 OA
BRANCH  29  30
HETATM   30  C   UNK N   1      37.182  13.606   5.433  0.00  0.00     0.163 C 
HETATM   31  C   UNK N   1      37.728  13.419   4.029  0.00  0.00     0.033 C 
ENDBRANCH  29  30
ENDBRANCH  28  29
ENDBRANCH  27  28
ENDBRANCH   1  27
TORSDOF 8
ENDMDL
MODEL 9
REMARK VINA RESULT:      -6.6      4.501      8.729
REMARK  8 active torsions:
REMARK  status: ('A' for Active; 'I' for Inactive)
REMARK    1  A    between atoms: C_7  and  O_8 
REMARK    2  A    between atoms: O_8  and  C_9 
REMARK    3  A    between atoms: C_14  and  O_15 
REMARK    4  A    between atoms: O_15  and  C_16 
REMARK    5  A    between atoms: C_16  and  C_17 
REMARK    6  A    between atoms: C_17  and  C_18 
REMARK    7  A    between atoms: C_18  and  O_19 
REMARK    8  A    between atoms: O_19  and  C_20 
ROOT
HETATM    1  C   UNK N   1      22.610  12.960   9.399  0.00  0.00     0.230 A 
HETATM    2  C   UNK N   1      21.633  12.539  10.485  0.00  0.00     0.270 A 
HETATM    3  O   UNK N   1      20.432  12.594  10.269  0.00  0.00    -0.269 OA
HETATM    4  N   UNK N   1      22.059  12.131  11.702  0.00  0.00    -0.276 N 
HETATM    5  C   UNK N   1      23.368  12.083  12.035  0.00  0.00     0.329 A 
HETATM    6  O   UNK N   1      23.691  11.684  13.140  0.00  0.00    -0.247 OA
HETATM    7  N   UNK N   1      24.325  12.482  11.161  0.00  0.00    -0.276 N 
HETATM    8  C   UNK N   1      24.037  12.922   9.913  0.00  0.00     0.270 A 
HETATM    9  O   UNK N   1      24.951  13.267   9.179  0.00  0.00    -0.269 OA
HETATM   10  H   UNK N   1      21.389  11.859  12.371  0.00  0.00     0.173 HD
HETATM   11  H   UNK N   1      25.268  12.449  11.446  0.00  0.00     0.173 HD
ENDROOT
BRANCH   1  12
HETATM   12  O   UNK N   1      22.283  14.274   9.066  0.00  0.00    -0.320 OA
BRANCH  12  13
HETATM   13  C   UNK N   1      22.006  14.730   7.824  0.00  0.00     0.071 A 
HETATM   14  C   UNK N   1      20.674  14.956   7.462  0.00  0.00     0.039 A 
HETATM   15  C   UNK N   1      20.355  15.367   6.167  0.00  0.00     0.040 A 
HETATM   16  C   UNK N   1      21.371  15.600   5.239  0.00  0.00     0.076 A 
HETATM   17  C   UNK N   1      22.713  15.400   5.611  0.00  0.00     0.040 A 
HETATM   18  C   UNK N   1      23.029  14.955   6.895  0.00  0.00     0.039 A 
BRANCH  16  19
HETATM   19  O   UNK N   1      21.054  16.004   3.985  0.00  0.00    -0.311 OA
BRANCH  19  20
HETATM   20  C   UNK N   1      20.959  17.309   3.633  0.00  0.00     0.076 A 
HETATM   21  C   UNK N   1      22.067  18.151   3.774  0.00  0.00     0.040 A 
HETATM   22  C   UNK N   1      21.971  19.498   3.408  0.00  0.00     0.045 A 
HETATM   23  C   UNK N   1      20.775  20.000   2.882  0.00  0.00     0.116 A 
HETATM   24  F   UNK N   1      20.681  21.302   2.526  0.00  0.00    -0.206 F 
HETATM   25  C   UNK N   1      19.674  19.158   2.722  0.00  0.00     0.045 A 
HETATM   26  C   UNK N   1      19.764  17.821   3.100  0.00  0.00     0.040 A 
ENDBRANCH  19  20
ENDBRANCH  16  19
ENDBRANCH  12  13
ENDBRANCH   1  12
BRANCH   1  27
HETATM   27  C   UNK N   1      22.567  11.969   8.197  0.00  0.00     0.085 C 
BRANCH  27  28
HETATM   28  C   UNK N   1      23.361  10.665   8.304  0.00  0.00     0.171 C 
BRANCH  28  29
HETATM   29  O   UNK N   1      24.211  10.479   7.214  0.00  0.00    -0.391 OA
BRANCH  29  30
HETATM   30  C   UNK N   1      23.737  11.360   6.240  0.00  0.00     0.163 C 
HETATM   31  C   UNK N   1      24.897  11.952   5.459  0.00  0.00     0.033 C 
ENDBRANCH  29  30
ENDBRANCH  28  29
ENDBRANCH  27  28
ENDBRANCH   1  27
TORSDOF 8
ENDMDL
