MODEL 1
REMARK VINA RESULT:      -7.7      0.000      0.000
REMARK  5 active torsions:
REMARK  status: ('A' for Active; 'I' for Inactive)
REMARK    1  A    between atoms: C_2  and  N_22 
REMARK    2  A    between atoms: C_5  and  O_24 
REMARK    3  A    between atoms: O_11  and  C_12 
REMARK    4  A    between atoms: C_13  and  O_14 
REMARK    5  A    between atoms: C_23  and  O_24 
ROOT
HETATM    1  C   UNK N   1      31.877  17.888   8.431  0.00  0.00     0.070 A 
HETATM    2  C   UNK N   1      28.378  17.183   7.503  0.00  0.00     0.117 A 
HETATM    3  C   UNK N   1      29.768  17.296   7.399  0.00  0.00     0.037 A 
HETATM    4  C   UNK N   1      28.484  17.911   9.755  0.00  0.00     0.182 A 
HETATM    5  C   UNK N   1      31.833  17.076   6.136  0.00  0.00     0.102 A 
HETATM    6  C   UNK N   1      32.556  17.559   7.242  0.00  0.00     0.103 A 
HETATM    7  C   UNK N   1      30.440  16.959   6.224  0.00  0.00     0.057 A 
HETATM    8  C   UNK N   1      30.489  17.747   8.516  0.00  0.00     0.050 A 
HETATM    9  N   UNK N   1      29.836  18.049   9.666  0.00  0.00    -0.351 N 
ATOM     10  HN  UNK N   1      30.362  18.383  10.473  1.00  0.00     0.166 HD
HETATM   11  N   UNK N   1      27.768  17.482   8.679  0.00  0.00    -0.338 N 
ATOM     12  HN  UNK N   1      26.755  17.385   8.758  1.00  0.00     0.168 HD
ENDROOT
BRANCH   2  13
HETATM   13  N   UNK N   1      27.600  16.782   6.390  0.00  0.00    -0.364 N 
HETATM   14  C   UNK N   1      27.241  17.739   5.386  0.00  0.00     0.157 C 
HETATM   15  C   UNK N   1      26.225  16.994   4.530  0.00  0.00     0.148 C 
HETATM   16  C   UNK N   1      25.567  16.031   5.508  0.00  0.00     0.054 C 
HETATM   17  C   UNK N   1      26.660  15.701   6.510  0.00  0.00     0.127 C 
BRANCH  15  18
HETATM   18  O   UNK N   1      26.758  16.270   3.461  0.00  0.00    -0.344 OA
BRANCH  18  19
HETATM   19  C   UNK N   1      26.322  15.126   2.859  0.00  0.00     0.070 A 
HETATM   20  C   UNK N   1      25.209  15.104   2.004  0.00  0.00     0.049 A 
HETATM   21  C   UNK N   1      24.812  13.934   1.370  0.00  0.00    -0.023 A 
HETATM   22  C   UNK N   1      25.534  12.743   1.586  0.00  0.00    -0.026 A 
HETATM   23  C   UNK N   1      23.707  13.942   0.516  0.00  0.00     0.012 A 
HETATM   24  C   UNK N   1      25.138  11.568   0.943  0.00  0.00     0.012 A 
HETATM   25  C   UNK N   1      26.644  12.751   2.437  0.00  0.00     0.015 A 
HETATM   26  C   UNK N   1      24.030  11.579   0.088  0.00  0.00     0.001 A 
HETATM   27  C   UNK N   1      23.316  12.764  -0.126  0.00  0.00     0.001 A 
HETATM   28  C   UNK N   1      27.037  13.940   3.066  0.00  0.00     0.037 A 
ENDBRANCH  18  19
ENDBRANCH  15  18
ENDBRANCH   2  13
BRANCH   5  29
HETATM   29  O   UNK N   1      32.491  16.733   5.003  0.00  0.00    -0.353 OA
HETATM   30  C   UNK N   1      32.053  17.080   3.743  0.00  0.00     0.210 C 
ENDBRANCH   5  29
BRANCH   6  31
HETATM   31  O   UNK N   1      33.901  17.697   7.138  0.00  0.00    -0.353 OA
HETATM   32  C   UNK N   1      34.673  18.303   8.103  0.00  0.00     0.210 C 
ENDBRANCH   6  31
TORSDOF 5
ENDMDL
MODEL 2
REMARK VINA RESULT:      -7.6      5.527      8.138
REMARK  5 active torsions:
REMARK  status: ('A' for Active; 'I' for Inactive)
REMARK    1  A    between atoms: C_2  and  N_22 
REMARK    2  A    between atoms: C_5  and  O_24 
REMARK    3  A    between atoms: O_11  and  C_12 
REMARK    4  A    between atoms: C_13  and  O_14 
REMARK    5  A    between atoms: C_23  and  O_24 
ROOT
HETATM    1  C   UNK N   1      24.602  19.926   3.202  0.00  0.00     0.070 A 
HETATM    2  C   UNK N   1      21.500  18.398   4.484  0.00  0.00     0.117 A 
HETATM    3  C   UNK N   1      22.865  18.629   4.281  0.00  0.00     0.037 A 
HETATM    4  C   UNK N   1      20.976  20.234   3.083  0.00  0.00     0.182 A 
HETATM    5  C   UNK N   1      25.199  18.094   4.691  0.00  0.00     0.102 A 
HETATM    6  C   UNK N   1      25.586  19.131   3.822  0.00  0.00     0.103 A 
HETATM    7  C   UNK N   1      23.837  17.847   4.904  0.00  0.00     0.057 A 
HETATM    8  C   UNK N   1      23.246  19.686   3.438  0.00  0.00     0.050 A 
HETATM    9  N   UNK N   1      22.298  20.462   2.854  0.00  0.00    -0.351 N 
ATOM     10  HN  UNK N   1      22.579  21.224   2.237  1.00  0.00     0.166 HD
HETATM   11  N   UNK N   1      20.587  19.209   3.890  0.00  0.00    -0.338 N 
ATOM     12  HN  UNK N   1      19.592  19.047   4.052  1.00  0.00     0.168 HD
ENDROOT
BRANCH   2  13
HETATM   13  N   UNK N   1      21.064  17.313   5.283  0.00  0.00    -0.364 N 
HETATM   14  C   UNK N   1      20.028  16.445   4.807  0.00  0.00     0.157 C 
HETATM   15  C   UNK N   1      19.683  15.598   6.026  0.00  0.00     0.148 C 
HETATM   16  C   UNK N   1      19.981  16.520   7.201  0.00  0.00     0.054 C 
HETATM   17  C   UNK N   1      21.127  17.394   6.717  0.00  0.00     0.127 C 
BRANCH  15  18
HETATM   18  O   UNK N   1      20.423  14.422   6.167  0.00  0.00    -0.344 OA
BRANCH  18  19
HETATM   19  C   UNK N   1      21.275  14.022   7.155  0.00  0.00     0.070 A 
HETATM   20  C   UNK N   1      20.819  13.509   8.379  0.00  0.00     0.049 A 
HETATM   21  C   UNK N   1      21.707  13.068   9.351  0.00  0.00    -0.023 A 
HETATM   22  C   UNK N   1      23.094  13.139   9.112  0.00  0.00    -0.026 A 
HETATM   23  C   UNK N   1      21.226  12.552  10.556  0.00  0.00     0.012 A 
HETATM   24  C   UNK N   1      23.988  12.691  10.087  0.00  0.00     0.012 A 
HETATM   25  C   UNK N   1      23.562  13.651   7.898  0.00  0.00     0.015 A 
HETATM   26  C   UNK N   1      23.502  12.173  11.294  0.00  0.00     0.001 A 
HETATM   27  C   UNK N   1      22.123  12.103  11.527  0.00  0.00     0.001 A 
HETATM   28  C   UNK N   1      22.654  14.086   6.923  0.00  0.00     0.037 A 
ENDBRANCH  18  19
ENDBRANCH  15  18
ENDBRANCH   2  13
BRANCH   5  29
HETATM   29  O   UNK N   1      26.148  17.348   5.308  0.00  0.00    -0.353 OA
HETATM   30  C   UNK N   1      25.943  16.043   5.698  0.00  0.00     0.210 C 
ENDBRANCH   5  29
BRANCH   6  31
HETATM   31  O   UNK N   1      26.906  19.343   3.599  0.00  0.00    -0.353 OA
HETATM   32  C   UNK N   1      27.687  20.146   4.399  0.00  0.00     0.210 C 
ENDBRANCH   6  31
TORSDOF 5
ENDMDL
MODEL 3
REMARK VINA RESULT:      -7.6      3.516      5.112
REMARK  5 active torsions:
REMARK  status: ('A' for Active; 'I' for Inactive)
REMARK    1  A    between atoms: C_2  and  N_22 
REMARK    2  A    between atoms: C_5  and  O_24 
REMARK    3  A    between atoms: O_11  and  C_12 
REMARK    4  A    between atoms: C_13  and  O_14 
REMARK    5  A    between atoms: C_23  and  O_24 
ROOT
HETATM    1  C   UNK N   1      33.431  17.381   6.381  0.00  0.00     0.070 A 
HETATM    2  C   UNK N   1      30.289  17.072   4.475  0.00  0.00     0.117 A 
HETATM    3  C   UNK N   1      31.158  17.242   5.558  0.00  0.00     0.037 A 
HETATM    4  C   UNK N   1      32.141  16.937   3.005  0.00  0.00     0.182 A 
HETATM    5  C   UNK N   1      31.562  17.599   7.927  0.00  0.00     0.102 A 
HETATM    6  C   UNK N   1      32.949  17.560   7.693  0.00  0.00     0.103 A 
HETATM    7  C   UNK N   1      30.678  17.429   6.854  0.00  0.00     0.057 A 
HETATM    8  C   UNK N   1      32.541  17.234   5.314  0.00  0.00     0.050 A 
HETATM    9  N   UNK N   1      33.004  17.078   4.048  0.00  0.00    -0.351 N 
ATOM     10  HN  UNK N   1      34.009  17.066   3.877  1.00  0.00     0.166 HD
HETATM   11  N   UNK N   1      30.797  16.934   3.223  0.00  0.00    -0.338 N 
ATOM     12  HN  UNK N   1      30.161  16.826   2.432  1.00  0.00     0.168 HD
ENDROOT
BRANCH   2  13
HETATM   13  N   UNK N   1      28.888  17.021   4.675  0.00  0.00    -0.364 N 
HETATM   14  C   UNK N   1      28.152  18.229   4.903  0.00  0.00     0.157 C 
HETATM   15  C   UNK N   1      26.771  17.734   5.315  0.00  0.00     0.148 C 
HETATM   16  C   UNK N   1      27.054  16.398   5.989  0.00  0.00     0.054 C 
HETATM   17  C   UNK N   1      28.281  15.861   5.270  0.00  0.00     0.127 C 
BRANCH  15  18
HETATM   18  O   UNK N   1      25.869  17.537   4.267  0.00  0.00    -0.344 OA
BRANCH  18  19
HETATM   19  C   UNK N   1      24.807  18.290   3.858  0.00  0.00     0.070 A 
HETATM   20  C   UNK N   1      23.487  17.816   3.902  0.00  0.00     0.049 A 
HETATM   21  C   UNK N   1      22.421  18.619   3.520  0.00  0.00    -0.023 A 
HETATM   22  C   UNK N   1      22.662  19.935   3.075  0.00  0.00    -0.026 A 
HETATM   23  C   UNK N   1      21.116  18.126   3.583  0.00  0.00     0.012 A 
HETATM   24  C   UNK N   1      21.588  20.744   2.696  0.00  0.00     0.012 A 
HETATM   25  C   UNK N   1      23.973  20.419   3.024  0.00  0.00     0.015 A 
HETATM   26  C   UNK N   1      20.282  20.247   2.762  0.00  0.00     0.001 A 
HETATM   27  C   UNK N   1      20.046  18.940   3.205  0.00  0.00     0.001 A 
HETATM   28  C   UNK N   1      25.039  19.600   3.419  0.00  0.00     0.037 A 
ENDBRANCH  18  19
ENDBRANCH  15  18
ENDBRANCH   2  13
BRANCH   5  29
HETATM   29  O   UNK N   1      31.101  17.799   9.186  0.00  0.00    -0.353 OA
HETATM   30  C   UNK N   1      30.035  18.622   9.474  0.00  0.00     0.210 C 
ENDBRANCH   5  29
BRANCH   6  31
HETATM   31  O   UNK N   1      33.797  17.695   8.742  0.00  0.00    -0.353 OA
HETATM   32  C   UNK N   1      34.466  16.637   9.313  0.00  0.00     0.210 C 
ENDBRANCH   6  31
TORSDOF 5
ENDMDL
MODEL 4
REMARK VINA RESULT:      -7.5      5.383      8.233
REMARK  5 active torsions:
REMARK  status: ('A' for Active; 'I' for Inactive)
REMARK    1  A    between atoms: C_2  and  N_22 
REMARK    2  A    between atoms: C_5  and  O_24 
REMARK    3  A    between atoms: O_11  and  C_12 
REMARK    4  A    between atoms: C_13  and  O_14 
REMARK    5  A    between atoms: C_23  and  O_24 
ROOT
HETATM    1  C   UNK N   1      21.816  13.820   9.385  0.00  0.00     0.070 A 
HETATM    2  C   UNK N   1      20.529  16.343   7.023  0.00  0.00     0.117 A 
HETATM    3  C   UNK N   1      21.350  15.349   7.566  0.00  0.00     0.037 A 
HETATM    4  C   UNK N   1      19.087  16.180   8.895  0.00  0.00     0.182 A 
HETATM    5  C   UNK N   1      23.293  13.895   7.451  0.00  0.00     0.102 A 
HETATM    6  C   UNK N   1      22.967  13.364   8.712  0.00  0.00     0.103 A 
HETATM    7  C   UNK N   1      22.483  14.893   6.894  0.00  0.00     0.057 A 
HETATM    8  C   UNK N   1      21.002  14.800   8.811  0.00  0.00     0.050 A 
HETATM    9  N   UNK N   1      19.884  15.227   9.451  0.00  0.00    -0.351 N 
ATOM     10  HN  UNK N   1      19.639  14.831  10.358  1.00  0.00     0.166 HD
HETATM   11  N   UNK N   1      19.412  16.730   7.693  0.00  0.00    -0.338 N 
ATOM     12  HN  UNK N   1      18.807  17.445   7.287  1.00  0.00     0.168 HD
ENDROOT
BRANCH   2  13
HETATM   13  N   UNK N   1      20.865  16.965   5.796  0.00  0.00    -0.364 N 
HETATM   14  C   UNK N   1      21.387  18.300   5.789  0.00  0.00     0.157 C 
HETATM   15  C   UNK N   1      21.372  18.681   4.314  0.00  0.00     0.148 C 
HETATM   16  C   UNK N   1      20.204  17.885   3.747  0.00  0.00     0.054 C 
HETATM   17  C   UNK N   1      20.162  16.621   4.590  0.00  0.00     0.127 C 
BRANCH  15  18
HETATM   18  O   UNK N   1      22.531  18.365   3.603  0.00  0.00    -0.344 OA
BRANCH  18  19
HETATM   19  C   UNK N   1      23.835  18.688   3.842  0.00  0.00     0.070 A 
HETATM   20  C   UNK N   1      24.742  17.781   4.412  0.00  0.00     0.049 A 
HETATM   21  C   UNK N   1      26.075  18.121   4.605  0.00  0.00    -0.023 A 
HETATM   22  C   UNK N   1      26.530  19.400   4.227  0.00  0.00    -0.026 A 
HETATM   23  C   UNK N   1      26.959  17.195   5.163  0.00  0.00     0.012 A 
HETATM   24  C   UNK N   1      27.872  19.740   4.416  0.00  0.00     0.012 A 
HETATM   25  C   UNK N   1      25.636  20.315   3.661  0.00  0.00     0.015 A 
HETATM   26  C   UNK N   1      28.756  18.810   4.976  0.00  0.00     0.001 A 
HETATM   27  C   UNK N   1      28.300  17.539   5.349  0.00  0.00     0.001 A 
HETATM   28  C   UNK N   1      24.296  19.956   3.466  0.00  0.00     0.037 A 
ENDBRANCH  18  19
ENDBRANCH  15  18
ENDBRANCH   2  13
BRANCH   5  29
HETATM   29  O   UNK N   1      24.385  13.436   6.793  0.00  0.00    -0.353 OA
HETATM   30  C   UNK N   1      25.564  14.143   6.707  0.00  0.00     0.210 C 
ENDBRANCH   5  29
BRANCH   6  31
HETATM   31  O   UNK N   1      23.773  12.421   9.257  0.00  0.00    -0.353 OA
HETATM   32  C   UNK N   1      24.734  12.703  10.201  0.00  0.00     0.210 C 
ENDBRANCH   6  31
TORSDOF 5
ENDMDL
MODEL 5
REMARK VINA RESULT:      -7.5     13.294     15.462
REMARK  5 active torsions:
REMARK  status: ('A' for Active; 'I' for Inactive)
REMARK    1  A    between atoms: C_2  and  N_22 
REMARK    2  A    between atoms: C_5  and  O_24 
REMARK    3  A    between atoms: O_11  and  C_12 
REMARK    4  A    between atoms: C_13  and  O_14 
REMARK    5  A    between atoms: C_23  and  O_24 
ROOT
HETATM    1  C   UNK N   1      30.865  20.961  -5.008  0.00  0.00     0.070 A 
HETATM    2  C   UNK N   1      28.365  21.751  -7.602  0.00  0.00     0.117 A 
HETATM    3  C   UNK N   1      29.209  21.911  -6.498  0.00  0.00     0.037 A 
HETATM    4  C   UNK N   1      29.185  19.551  -7.916  0.00  0.00     0.182 A 
HETATM    5  C   UNK N   1      30.110  23.253  -4.683  0.00  0.00     0.102 A 
HETATM    6  C   UNK N   1      30.909  22.167  -4.281  0.00  0.00     0.103 A 
HETATM    7  C   UNK N   1      29.258  23.109  -5.786  0.00  0.00     0.057 A 
HETATM    8  C   UNK N   1      30.028  20.834  -6.120  0.00  0.00     0.050 A 
HETATM    9  N   UNK N   1      29.997  19.679  -6.830  0.00  0.00    -0.351 N 
ATOM     10  HN  UNK N   1      30.588  18.897  -6.548  1.00  0.00     0.166 HD
HETATM   11  N   UNK N   1      28.378  20.581  -8.292  0.00  0.00    -0.338 N 
ATOM     12  HN  UNK N   1      27.773  20.473  -9.107  1.00  0.00     0.168 HD
ENDROOT
BRANCH   2  13
HETATM   13  N   UNK N   1      27.483  22.788  -7.992  0.00  0.00    -0.364 N 
HETATM   14  C   UNK N   1      26.488  23.263  -7.076  0.00  0.00     0.157 C 
HETATM   15  C   UNK N   1      25.610  24.162  -7.938  0.00  0.00     0.148 C 
HETATM   16  C   UNK N   1      25.715  23.545  -9.326  0.00  0.00     0.054 C 
HETATM   17  C   UNK N   1      27.112  22.946  -9.372  0.00  0.00     0.127 C 
BRANCH  15  18
HETATM   18  O   UNK N   1      26.004  25.501  -8.001  0.00  0.00    -0.344 OA
BRANCH  18  19
HETATM   19  C   UNK N   1      26.121  26.438  -7.016  0.00  0.00     0.070 A 
HETATM   20  C   UNK N   1      27.088  27.454  -7.056  0.00  0.00     0.049 A 
HETATM   21  C   UNK N   1      27.158  28.421  -6.062  0.00  0.00    -0.023 A 
HETATM   22  C   UNK N   1      26.245  28.385  -4.988  0.00  0.00    -0.026 A 
HETATM   23  C   UNK N   1      28.124  29.427  -6.131  0.00  0.00     0.012 A 
HETATM   24  C   UNK N   1      26.312  29.362  -3.991  0.00  0.00     0.012 A 
HETATM   25  C   UNK N   1      25.278  27.377  -4.935  0.00  0.00     0.015 A 
HETATM   26  C   UNK N   1      27.281  30.369  -4.064  0.00  0.00     0.001 A 
HETATM   27  C   UNK N   1      28.185  30.402  -5.133  0.00  0.00     0.001 A 
HETATM   28  C   UNK N   1      25.215  26.411  -5.948  0.00  0.00     0.037 A 
ENDBRANCH  18  19
ENDBRANCH  15  18
ENDBRANCH   2  13
BRANCH   5  29
HETATM   29  O   UNK N   1      30.175  24.421  -4.000  0.00  0.00    -0.353 OA
HETATM   30  C   UNK N   1      29.276  25.449  -4.180  0.00  0.00     0.210 C 
ENDBRANCH   5  29
BRANCH   6  31
HETATM   31  O   UNK N   1      31.708  22.305  -3.195  0.00  0.00    -0.353 OA
HETATM   32  C   UNK N   1      32.669  21.385  -2.844  0.00  0.00     0.210 C 
ENDBRANCH   6  31
TORSDOF 5
ENDMDL
MODEL 6
REMARK VINA RESULT:      -7.4      5.604      8.470
REMARK  5 active torsions:
REMARK  status: ('A' for Active; 'I' for Inactive)
REMARK    1  A    between atoms: C_2  and  N_22 
REMARK    2  A    between atoms: C_5  and  O_24 
REMARK    3  A    between atoms: O_11  and  C_12 
REMARK    4  A    between atoms: C_13  and  O_14 
REMARK    5  A    between atoms: C_23  and  O_24 
ROOT
HETATM    1  C   UNK N   1      34.951  12.109  11.320  0.00  0.00     0.070 A 
HETATM    2  C   UNK N   1      34.584  12.585   7.681  0.00  0.00     0.117 A 
HETATM    3  C   UNK N   1      34.709  12.890   9.041  0.00  0.00     0.037 A 
HETATM    4  C   UNK N   1      34.767  10.277   8.178  0.00  0.00     0.182 A 
HETATM    5  C   UNK N   1      34.841  14.498  10.858  0.00  0.00     0.102 A 
HETATM    6  C   UNK N   1      34.945  13.441  11.781  0.00  0.00     0.103 A 
HETATM    7  C   UNK N   1      34.713  14.209   9.493  0.00  0.00     0.057 A 
HETATM    8  C   UNK N   1      34.845  11.833   9.954  0.00  0.00     0.050 A 
HETATM    9  N   UNK N   1      34.867  10.551   9.508  0.00  0.00    -0.351 N 
ATOM     10  HN  UNK N   1      34.959   9.786  10.175  1.00  0.00     0.166 HD
HETATM   11  N   UNK N   1      34.625  11.289   7.278  0.00  0.00    -0.338 N 
ATOM     12  HN  UNK N   1      34.549  11.069   6.285  1.00  0.00     0.168 HD
ENDROOT
BRANCH   2  13
HETATM   13  N   UNK N   1      34.392  13.612   6.726  0.00  0.00    -0.364 N 
HETATM   14  C   UNK N   1      33.108  13.791   6.114  0.00  0.00     0.157 C 
HETATM   15  C   UNK N   1      33.380  14.791   4.998  0.00  0.00     0.148 C 
HETATM   16  C   UNK N   1      34.826  14.514   4.610  0.00  0.00     0.054 C 
HETATM   17  C   UNK N   1      35.484  14.050   5.899  0.00  0.00     0.127 C 
BRANCH  15  18
HETATM   18  O   UNK N   1      33.250  16.135   5.355  0.00  0.00    -0.344 OA
BRANCH  18  19
HETATM   19  C   UNK N   1      32.481  16.729   6.313  0.00  0.00     0.070 A 
HETATM   20  C   UNK N   1      31.079  16.705   6.273  0.00  0.00     0.049 A 
HETATM   21  C   UNK N   1      30.320  17.280   7.284  0.00  0.00    -0.023 A 
HETATM   22  C   UNK N   1      30.964  17.903   8.372  0.00  0.00    -0.026 A 
HETATM   23  C   UNK N   1      28.925  17.233   7.225  0.00  0.00     0.012 A 
HETATM   24  C   UNK N   1      30.201  18.476   9.392  0.00  0.00     0.012 A 
HETATM   25  C   UNK N   1      32.362  17.936   8.422  0.00  0.00     0.015 A 
HETATM   26  C   UNK N   1      28.803  18.427   9.330  0.00  0.00     0.001 A 
HETATM   27  C   UNK N   1      28.167  17.806   8.248  0.00  0.00     0.001 A 
HETATM   28  C   UNK N   1      33.114  17.347   7.398  0.00  0.00     0.037 A 
ENDBRANCH  18  19
ENDBRANCH  15  18
ENDBRANCH   2  13
BRANCH   5  29
HETATM   29  O   UNK N   1      34.863  15.778  11.301  0.00  0.00    -0.353 OA
HETATM   30  C   UNK N   1      35.326  16.829  10.541  0.00  0.00     0.210 C 
ENDBRANCH   5  29
BRANCH   6  31
HETATM   31  O   UNK N   1      35.038  13.728  13.102  0.00  0.00    -0.353 OA
HETATM   32  C   UNK N   1      35.136  12.763  14.079  0.00  0.00     0.210 C 
ENDBRANCH   6  31
TORSDOF 5
ENDMDL
MODEL 7
REMARK VINA RESULT:      -7.3      7.213     10.677
REMARK  5 active torsions:
REMARK  status: ('A' for Active; 'I' for Inactive)
REMARK    1  A    between atoms: C_2  and  N_22 
REMARK    2  A    between atoms: C_5  and  O_24 
REMARK    3  A    between atoms: O_11  and  C_12 
REMARK    4  A    between atoms: C_13  and  O_14 
REMARK    5  A    between atoms: C_23  and  O_24 
ROOT
HETATM    1  C   UNK N   1      35.966  11.492  15.796  0.00  0.00     0.070 A 
HETATM    2  C   UNK N   1      36.280  14.034  13.142  0.00  0.00     0.117 A 
HETATM    3  C   UNK N   1      35.979  12.822  13.772  0.00  0.00     0.037 A 
HETATM    4  C   UNK N   1      37.022  14.927  15.207  0.00  0.00     0.182 A 
HETATM    5  C   UNK N   1      35.125  10.548  13.715  0.00  0.00     0.102 A 
HETATM    6  C   UNK N   1      35.413  10.408  15.085  0.00  0.00     0.103 A 
HETATM    7  C   UNK N   1      35.422  11.755  13.069  0.00  0.00     0.057 A 
HETATM    8  C   UNK N   1      36.239  12.699  15.147  0.00  0.00     0.050 A 
HETATM    9  N   UNK N   1      36.757  13.748  15.834  0.00  0.00    -0.351 N 
ATOM     10  HN  UNK N   1      36.951  13.653  16.831  1.00  0.00     0.166 HD
HETATM   11  N   UNK N   1      36.785  15.062  13.873  0.00  0.00    -0.338 N 
ATOM     12  HN  UNK N   1      36.989  15.951  13.415  1.00  0.00     0.168 HD
ENDROOT
BRANCH   2  13
HETATM   13  N   UNK N   1      36.086  14.191  11.749  0.00  0.00    -0.364 N 
HETATM   14  C   UNK N   1      34.766  14.390  11.227  0.00  0.00     0.157 C 
HETATM   15  C   UNK N   1      34.953  14.257   9.721  0.00  0.00     0.148 C 
HETATM   16  C   UNK N   1      36.125  13.294   9.587  0.00  0.00     0.054 C 
HETATM   17  C   UNK N   1      36.980  13.562  10.815  0.00  0.00     0.127 C 
BRANCH  15  18
HETATM   18  O   UNK N   1      35.255  15.443   9.049  0.00  0.00    -0.344 OA
BRANCH  18  19
HETATM   19  C   UNK N   1      34.720  15.981   7.914  0.00  0.00     0.070 A 
HETATM   20  C   UNK N   1      34.661  15.275   6.703  0.00  0.00     0.049 A 
HETATM   21  C   UNK N   1      34.072  15.829   5.574  0.00  0.00    -0.023 A 
HETATM   22  C   UNK N   1      33.523  17.127   5.640  0.00  0.00    -0.026 A 
HETATM   23  C   UNK N   1      34.017  15.101   4.384  0.00  0.00     0.012 A 
HETATM   24  C   UNK N   1      32.925  17.682   4.506  0.00  0.00     0.012 A 
HETATM   25  C   UNK N   1      33.578  17.842   6.840  0.00  0.00     0.015 A 
HETATM   26  C   UNK N   1      32.872  16.949   3.315  0.00  0.00     0.001 A 
HETATM   27  C   UNK N   1      33.416  15.661   3.254  0.00  0.00     0.001 A 
HETATM   28  C   UNK N   1      34.170  17.267   7.973  0.00  0.00     0.037 A 
ENDBRANCH  18  19
ENDBRANCH  15  18
ENDBRANCH   2  13
BRANCH   5  29
HETATM   29  O   UNK N   1      34.567   9.514  13.040  0.00  0.00    -0.353 OA
HETATM   30  C   UNK N   1      35.284   8.687  12.203  0.00  0.00     0.210 C 
ENDBRANCH   5  29
BRANCH   6  31
HETATM   31  O   UNK N   1      35.150   9.227  15.695  0.00  0.00    -0.353 OA
HETATM   32  C   UNK N   1      35.155   9.067  17.062  0.00  0.00     0.210 C 
ENDBRANCH   6  31
TORSDOF 5
ENDMDL
MODEL 8
REMARK VINA RESULT:      -7.2      4.779      7.248
REMARK  5 active torsions:
REMARK  status: ('A' for Active; 'I' for Inactive)
REMARK    1  A    between atoms: C_2  and  N_22 
REMARK    2  A    between atoms: C_5  and  O_24 
REMARK    3  A    between atoms: O_11  and  C_12 
REMARK    4  A    between atoms: C_13  and  O_14 
REMARK    5  A    between atoms: C_23  and  O_24 
ROOT
HETATM    1  C   UNK N   1      37.689  13.915   9.292  0.00  0.00     0.070 A 
HETATM    2  C   UNK N   1      34.546  15.823   9.568  0.00  0.00     0.117 A 
HETATM    3  C   UNK N   1      35.565  15.042   9.012  0.00  0.00     0.037 A 
HETATM    4  C   UNK N   1      35.669  15.813  11.653  0.00  0.00     0.182 A 
HETATM    5  C   UNK N   1      36.543  13.833   7.146  0.00  0.00     0.102 A 
HETATM    6  C   UNK N   1      37.646  13.492   7.948  0.00  0.00     0.103 A 
HETATM    7  C   UNK N   1      35.514  14.616   7.686  0.00  0.00     0.057 A 
HETATM    8  C   UNK N   1      36.649  14.678   9.828  0.00  0.00     0.050 A 
HETATM    9  N   UNK N   1      36.682  15.072  11.126  0.00  0.00    -0.351 N 
ATOM     10  HN  UNK N   1      37.474  14.811  11.712  1.00  0.00     0.166 HD
HETATM   11  N   UNK N   1      34.614  16.183  10.876  0.00  0.00    -0.338 N 
ATOM     12  HN  UNK N   1      33.862  16.740  11.283  1.00  0.00     0.168 HD
ENDROOT
BRANCH   2  13
HETATM   13  N   UNK N   1      33.458  16.261   8.774  0.00  0.00    -0.364 N 
HETATM   14  C   UNK N   1      32.669  15.307   8.052  0.00  0.00     0.157 C 
HETATM   15  C   UNK N   1      31.797  16.173   7.152  0.00  0.00     0.148 C 
HETATM   16  C   UNK N   1      32.655  17.405   6.897  0.00  0.00     0.054 C 
HETATM   17  C   UNK N   1      33.481  17.562   8.163  0.00  0.00     0.127 C 
BRANCH  15  18
HETATM   18  O   UNK N   1      30.576  16.570   7.702  0.00  0.00    -0.344 OA
BRANCH  18  19
HETATM   19  C   UNK N   1      29.687  17.521   7.294  0.00  0.00     0.070 A 
HETATM   20  C   UNK N   1      29.278  17.646   5.958  0.00  0.00     0.049 A 
HETATM   21  C   UNK N   1      28.339  18.594   5.577  0.00  0.00    -0.023 A 
HETATM   22  C   UNK N   1      27.783  19.454   6.547  0.00  0.00    -0.026 A 
HETATM   23  C   UNK N   1      27.942  18.690   4.242  0.00  0.00     0.012 A 
HETATM   24  C   UNK N   1      26.834  20.405   6.165  0.00  0.00     0.012 A 
HETATM   25  C   UNK N   1      28.184  19.342   7.882  0.00  0.00     0.015 A 
HETATM   26  C   UNK N   1      26.438  20.498   4.826  0.00  0.00     0.001 A 
HETATM   27  C   UNK N   1      26.991  19.641   3.866  0.00  0.00     0.001 A 
HETATM   28  C   UNK N   1      29.128  18.376   8.252  0.00  0.00     0.037 A 
ENDBRANCH  18  19
ENDBRANCH  15  18
ENDBRANCH   2  13
BRANCH   5  29
HETATM   29  O   UNK N   1      36.489  13.401   5.862  0.00  0.00    -0.353 OA
HETATM   30  C   UNK N   1      35.793  12.277   5.474  0.00  0.00     0.210 C 
ENDBRANCH   5  29
BRANCH   6  31
HETATM   31  O   UNK N   1      38.650  12.759   7.409  0.00  0.00    -0.353 OA
HETATM   32  C   UNK N   1      39.911  12.687   7.958  0.00  0.00     0.210 C 
ENDBRANCH   6  31
TORSDOF 5
ENDMDL
MODEL 9
REMARK VINA RESULT:      -7.2     13.367     15.176
REMARK  5 active torsions:
REMARK  status: ('A' for Active; 'I' for Inactive)
REMARK    1  A    between atoms: C_2  and  N_22 
REMARK    2  A    between atoms: C_5  and  O_24 
REMARK    3  A    between atoms: O_11  and  C_12 
REMARK    4  A    between atoms: C_13  and  O_14 
REMARK    5  A    between atoms: C_23  and  O_24 
ROOT
HETATM    1  C   UNK N   1      30.183  21.278  -5.860  0.00  0.00     0.070 A 
HETATM    2  C   UNK N   1      28.992  24.228  -3.994  0.00  0.00     0.117 A 
HETATM    3  C   UNK N   1      29.077  23.249  -4.990  0.00  0.00     0.037 A 
HETATM    4  C   UNK N   1      30.783  23.205  -2.829  0.00  0.00     0.182 A 
HETATM    5  C   UNK N   1      28.300  22.247  -7.062  0.00  0.00     0.102 A 
HETATM    6  C   UNK N   1      29.306  21.269  -6.964  0.00  0.00     0.103 A 
HETATM    7  C   UNK N   1      28.202  23.236  -6.075  0.00  0.00     0.057 A 
HETATM    8  C   UNK N   1      30.064  22.256  -4.870  0.00  0.00     0.050 A 
HETATM    9  N   UNK N   1      30.897  22.256  -3.799  0.00  0.00    -0.351 N 
ATOM     10  HN  UNK N   1      31.616  21.537  -3.719  1.00  0.00     0.166 HD
HETATM   11  N   UNK N   1      29.839  24.180  -2.933  0.00  0.00    -0.338 N 
ATOM     12  HN  UNK N   1      29.765  24.887  -2.200  1.00  0.00     0.168 HD
ENDROOT
BRANCH   2  13
HETATM   13  N   UNK N   1      28.050  25.280  -4.095  0.00  0.00    -0.364 N 
HETATM   14  C   UNK N   1      28.497  26.641  -4.133  0.00  0.00     0.157 C 
HETATM   15  C   UNK N   1      27.211  27.443  -3.986  0.00  0.00     0.148 C 
HETATM   16  C   UNK N   1      26.312  26.536  -3.157  0.00  0.00     0.054 C 
HETATM   17  C   UNK N   1      26.729  25.128  -3.548  0.00  0.00     0.127 C 
BRANCH  15  18
HETATM   18  O   UNK N   1      26.564  27.761  -5.182  0.00  0.00    -0.344 OA
BRANCH  18  19
HETATM   19  C   UNK N   1      26.838  27.389  -6.466  0.00  0.00     0.070 A 
HETATM   20  C   UNK N   1      26.072  26.436  -7.154  0.00  0.00     0.049 A 
HETATM   21  C   UNK N   1      26.346  26.107  -8.474  0.00  0.00    -0.023 A 
HETATM   22  C   UNK N   1      27.417  26.737  -9.142  0.00  0.00    -0.026 A 
HETATM   23  C   UNK N   1      25.561  25.163  -9.138  0.00  0.00     0.012 A 
HETATM   24  C   UNK N   1      27.690  26.410 -10.472  0.00  0.00     0.012 A 
HETATM   25  C   UNK N   1      28.191  27.686  -8.467  0.00  0.00     0.015 A 
HETATM   26  C   UNK N   1      26.900  25.463 -11.135  0.00  0.00     0.001 A 
HETATM   27  C   UNK N   1      25.837  24.841 -10.469  0.00  0.00     0.001 A 
HETATM   28  C   UNK N   1      27.898  28.013  -7.137  0.00  0.00     0.037 A 
ENDBRANCH  18  19
ENDBRANCH  15  18
ENDBRANCH   2  13
BRANCH   5  29
HETATM   29  O   UNK N   1      27.440  22.220  -8.110  0.00  0.00    -0.353 OA
HETATM   30  C   UNK N   1      26.150  21.749  -8.012  0.00  0.00     0.210 C 
ENDBRANCH   5  29
BRANCH   6  31
HETATM   31  O   UNK N   1      29.412  20.334  -7.939  0.00  0.00    -0.353 OA
HETATM   32  C   UNK N   1      28.922  19.054  -7.813  0.00  0.00     0.210 C 
ENDBRANCH   6  31
TORSDOF 5
ENDMDL
