MODEL 1
REMARK VINA RESULT:      -7.3      0.000      0.000
REMARK  7 active torsions:
REMARK  status: ('A' for Active; 'I' for Inactive)
REMARK    1  A    between atoms: C_3  and  O_4 
REMARK    2  A    between atoms: O_4  and  C_5 
REMARK    3  A    between atoms: C_10  and  C_12 
REMARK    4  A    between atoms: C_12  and  C_13 
REMARK    5  A    between atoms: C_14  and  C_13 
REMARK    6  A    between atoms: C_14  and  C_16 
REMARK    7  A    between atoms: C_25  and  O_26 
ROOT
HETATM    1  C   UNK N   1      32.853  16.734   8.316  0.00  0.00     0.080 C 
HETATM    2  C   UNK N   1      32.416  15.439   9.041  0.00  0.00     0.103 C 
HETATM    3  O   UNK N   1      33.914  17.359   8.967  0.00  0.00    -0.306 OA
HETATM    4  C   UNK N   1      34.746  16.752   9.849  0.00  0.00     0.286 C 
HETATM    5  O   UNK N   1      35.619  17.397  10.406  0.00  0.00    -0.260 OA
HETATM    6  C   UNK N   1      34.644  15.306  10.072  0.00  0.00     0.114 C 
HETATM    7  C   UNK N   1      33.564  14.663   9.631  0.00  0.00     0.052 C 
ENDROOT
BRANCH   1   8
HETATM    8  C   UNK N   1      31.689  17.732   8.413  0.00  0.00     0.044 C 
BRANCH   8   9
HETATM    9  C   UNK N   1      30.255  17.204   8.391  0.00  0.00     0.041 C 
BRANCH   9  10
HETATM   10  C   UNK N   1      29.421  17.919   7.360  0.00  0.00    -0.055 A 
HETATM   11  C   UNK N   1      29.521  17.548   6.019  0.00  0.00     0.010 A 
HETATM   12  C   UNK N   1      28.716  18.164   5.057  0.00  0.00     0.040 A 
HETATM   13  C   UNK N   1      27.799  19.164   5.412  0.00  0.00     0.107 A 
HETATM   14  C   UNK N   1      27.721  19.562   6.769  0.00  0.00     0.150 A 
HETATM   15  F   UNK N   1      26.876  20.531   7.193  0.00  0.00    -0.203 F 
HETATM   16  C   UNK N   1      28.526  18.937   7.722  0.00  0.00     0.052 A 
BRANCH  13  17
HETATM   17  O   UNK N   1      27.022  19.684   4.418  0.00  0.00    -0.344 OA
BRANCH  17  18
HETATM   18  C   UNK N   1      25.642  19.687   4.295  0.00  0.00     0.121 C 
HETATM   19  C   UNK N   1      25.031  18.310   4.493  0.00  0.00     0.040 C 
HETATM   20  C   UNK N   1      25.166  20.370   3.022  0.00  0.00     0.040 C 
ENDBRANCH  17  18
ENDBRANCH  13  17
ENDBRANCH   9  10
ENDBRANCH   8   9
ENDBRANCH   1   8
BRANCH   1  21
HETATM   21  C   UNK N   1      33.300  16.389   6.871  0.00  0.00     0.021 C 
HETATM   22  C   UNK N   1      32.500  15.268   6.217  0.00  0.00     0.007 C 
HETATM   23  C   UNK N   1      32.296  15.671   4.768  0.00  0.00     0.000 C 
HETATM   24  C   UNK N   1      33.099  16.939   4.552  0.00  0.00     0.000 C 
HETATM   25  C   UNK N   1      33.246  17.567   5.919  0.00  0.00     0.007 C 
ENDBRANCH   1  21
BRANCH   7  26
HETATM   26  O   UNK N   1      33.467  13.330   9.783  0.00  0.00    -0.365 OA
HETATM   27  H   UNK N   1      33.857  12.788  10.442  0.00  0.00     0.217 HD
ENDBRANCH   7  26
TORSDOF 7
ENDMDL
MODEL 2
REMARK VINA RESULT:      -7.0     14.435     16.849
REMARK  7 active torsions:
REMARK  status: ('A' for Active; 'I' for Inactive)
REMARK    1  A    between atoms: C_3  and  O_4 
REMARK    2  A    between atoms: O_4  and  C_5 
REMARK    3  A    between atoms: C_10  and  C_12 
REMARK    4  A    between atoms: C_12  and  C_13 
REMARK    5  A    between atoms: C_14  and  C_13 
REMARK    6  A    between atoms: C_14  and  C_16 
REMARK    7  A    between atoms: C_25  and  O_26 
ROOT
HETATM    1  C   UNK N   1      26.739  24.136  -7.259  0.00  0.00     0.080 C 
HETATM    2  C   UNK N   1      27.683  23.441  -8.268  0.00  0.00     0.103 C 
HETATM    3  O   UNK N   1      25.431  23.670  -7.367  0.00  0.00    -0.306 OA
HETATM    4  C   UNK N   1      25.073  22.497  -7.946  0.00  0.00     0.286 C 
HETATM    5  O   UNK N   1      23.894  22.197  -8.036  0.00  0.00    -0.260 OA
HETATM    6  C   UNK N   1      26.108  21.556  -8.389  0.00  0.00     0.114 C 
HETATM    7  C   UNK N   1      27.366  21.984  -8.483  0.00  0.00     0.052 C 
ENDROOT
BRANCH   1   8
HETATM    8  C   UNK N   1      26.661  25.620  -7.648  0.00  0.00     0.044 C 
BRANCH   8   9
HETATM    9  C   UNK N   1      25.528  26.477  -7.082  0.00  0.00     0.041 C 
BRANCH   9  10
HETATM   10  C   UNK N   1      26.036  27.450  -6.051  0.00  0.00    -0.055 A 
HETATM   11  C   UNK N   1      25.375  27.560  -4.827  0.00  0.00     0.010 A 
HETATM   12  C   UNK N   1      25.864  28.418  -3.838  0.00  0.00     0.040 A 
HETATM   13  C   UNK N   1      27.018  29.185  -4.050  0.00  0.00     0.107 A 
HETATM   14  C   UNK N   1      27.671  29.096  -5.305  0.00  0.00     0.150 A 
HETATM   15  F   UNK N   1      28.780  29.815  -5.598  0.00  0.00    -0.203 F 
HETATM   16  C   UNK N   1      27.177  28.233  -6.283  0.00  0.00     0.052 A 
BRANCH  13  17
HETATM   17  O   UNK N   1      27.452  29.966  -3.018  0.00  0.00    -0.344 OA
BRANCH  17  18
HETATM   18  C   UNK N   1      28.230  29.620  -1.925  0.00  0.00     0.121 C 
HETATM   19  C   UNK N   1      28.147  30.635  -0.798  0.00  0.00     0.040 C 
HETATM   20  C   UNK N   1      29.662  29.275  -2.308  0.00  0.00     0.040 C 
ENDBRANCH  17  18
ENDBRANCH  13  17
ENDBRANCH   9  10
ENDBRANCH   8   9
ENDBRANCH   1   8
BRANCH   1  21
HETATM   21  C   UNK N   1      27.237  23.864  -5.816  0.00  0.00     0.021 C 
HETATM   22  C   UNK N   1      28.388  24.759  -5.369  0.00  0.00     0.007 C 
HETATM   23  C   UNK N   1      28.122  25.116  -3.919  0.00  0.00     0.000 C 
HETATM   24  C   UNK N   1      26.909  24.313  -3.490  0.00  0.00     0.000 C 
HETATM   25  C   UNK N   1      26.157  23.998  -4.762  0.00  0.00     0.007 C 
ENDBRANCH   1  21
BRANCH   7  26
HETATM   26  O   UNK N   1      28.340  21.130  -8.845  0.00  0.00    -0.365 OA
HETATM   27  H   UNK N   1      29.239  21.123  -8.580  0.00  0.00     0.217 HD
ENDBRANCH   7  26
TORSDOF 7
ENDMDL
MODEL 3
REMARK VINA RESULT:      -6.9      9.015     11.456
REMARK  7 active torsions:
REMARK  status: ('A' for Active; 'I' for Inactive)
REMARK    1  A    between atoms: C_3  and  O_4 
REMARK    2  A    between atoms: O_4  and  C_5 
REMARK    3  A    between atoms: C_10  and  C_12 
REMARK    4  A    between atoms: C_12  and  C_13 
REMARK    5  A    between atoms: C_14  and  C_13 
REMARK    6  A    between atoms: C_14  and  C_16 
REMARK    7  A    between atoms: C_25  and  O_26 
ROOT
HETATM    1  C   UNK N   1      22.374  18.319   4.297  0.00  0.00     0.080 C 
HETATM    2  C   UNK N   1      23.507  19.330   4.001  0.00  0.00     0.103 C 
HETATM    3  O   UNK N   1      21.114  18.888   4.124  0.00  0.00    -0.306 OA
HETATM    4  C   UNK N   1      20.864  20.008   3.402  0.00  0.00     0.286 C 
HETATM    5  O   UNK N   1      19.731  20.458   3.349  0.00  0.00    -0.260 OA
HETATM    6  C   UNK N   1      21.939  20.630   2.623  0.00  0.00     0.114 C 
HETATM    7  C   UNK N   1      23.198  20.263   2.860  0.00  0.00     0.052 C 
ENDROOT
BRANCH   1   8
HETATM    8  C   UNK N   1      22.446  17.970   5.792  0.00  0.00     0.044 C 
BRANCH   8   9
HETATM    9  C   UNK N   1      21.145  17.813   6.580  0.00  0.00     0.041 C 
BRANCH   9  10
HETATM   10  C   UNK N   1      21.124  16.521   7.355  0.00  0.00    -0.055 A 
HETATM   11  C   UNK N   1      20.278  16.396   8.457  0.00  0.00     0.010 A 
HETATM   12  C   UNK N   1      20.206  15.188   9.155  0.00  0.00     0.040 A 
HETATM   13  C   UNK N   1      20.978  14.082   8.771  0.00  0.00     0.107 A 
HETATM   14  C   UNK N   1      21.861  14.220   7.671  0.00  0.00     0.150 A 
HETATM   15  F   UNK N   1      22.654  13.208   7.246  0.00  0.00    -0.203 F 
HETATM   16  C   UNK N   1      21.921  15.430   6.979  0.00  0.00     0.052 A 
BRANCH  13  17
HETATM   17  O   UNK N   1      20.818  12.927   9.480  0.00  0.00    -0.344 OA
BRANCH  17  18
HETATM   18  C   UNK N   1      21.366  12.563  10.699  0.00  0.00     0.121 C 
HETATM   19  C   UNK N   1      22.569  11.647  10.554  0.00  0.00     0.040 C 
HETATM   20  C   UNK N   1      20.328  12.028  11.674  0.00  0.00     0.040 C 
ENDBRANCH  17  18
ENDBRANCH  13  17
ENDBRANCH   9  10
ENDBRANCH   8   9
ENDBRANCH   1   8
BRANCH   1  21
HETATM   21  C   UNK N   1      22.500  17.109   3.336  0.00  0.00     0.021 C 
HETATM   22  C   UNK N   1      23.570  16.098   3.735  0.00  0.00     0.007 C 
HETATM   23  C   UNK N   1      22.994  14.723   3.453  0.00  0.00     0.000 C 
HETATM   24  C   UNK N   1      21.663  14.943   2.759  0.00  0.00     0.000 C 
HETATM   25  C   UNK N   1      21.212  16.326   3.169  0.00  0.00     0.007 C 
ENDBRANCH   1  21
BRANCH   7  26
HETATM   26  O   UNK N   1      24.198  20.786   2.128  0.00  0.00    -0.365 OA
HETATM   27  H   UNK N   1      25.080  20.965   2.389  0.00  0.00     0.217 HD
ENDBRANCH   7  26
TORSDOF 7
ENDMDL
MODEL 4
REMARK VINA RESULT:      -6.8      8.668     11.764
REMARK  7 active torsions:
REMARK  status: ('A' for Active; 'I' for Inactive)
REMARK    1  A    between atoms: C_3  and  O_4 
REMARK    2  A    between atoms: O_4  and  C_5 
REMARK    3  A    between atoms: C_10  and  C_12 
REMARK    4  A    between atoms: C_12  and  C_13 
REMARK    5  A    between atoms: C_14  and  C_13 
REMARK    6  A    between atoms: C_14  and  C_16 
REMARK    7  A    between atoms: C_25  and  O_26 
ROOT
HETATM    1  C   UNK N   1      21.779  17.786   3.962  0.00  0.00     0.080 C 
HETATM    2  C   UNK N   1      21.076  17.199   2.715  0.00  0.00     0.103 C 
HETATM    3  O   UNK N   1      22.164  19.110   3.763  0.00  0.00    -0.306 OA
HETATM    4  C   UNK N   1      21.652  19.931   2.813  0.00  0.00     0.286 C 
HETATM    5  O   UNK N   1      22.089  21.063   2.686  0.00  0.00    -0.260 OA
HETATM    6  C   UNK N   1      20.520  19.483   1.996  0.00  0.00     0.114 C 
HETATM    7  C   UNK N   1      20.200  18.190   1.995  0.00  0.00     0.052 C 
ENDROOT
BRANCH   1   8
HETATM    8  C   UNK N   1      23.095  17.018   4.154  0.00  0.00     0.044 C 
BRANCH   8   9
HETATM    9  C   UNK N   1      23.130  15.519   3.851  0.00  0.00     0.041 C 
BRANCH   9  10
HETATM   10  C   UNK N   1      22.981  14.701   5.107  0.00  0.00    -0.055 A 
HETATM   11  C   UNK N   1      23.784  14.987   6.212  0.00  0.00     0.010 A 
HETATM   12  C   UNK N   1      23.623  14.274   7.403  0.00  0.00     0.040 A 
HETATM   13  C   UNK N   1      22.661  13.260   7.515  0.00  0.00     0.107 A 
HETATM   14  C   UNK N   1      21.868  12.948   6.382  0.00  0.00     0.150 A 
HETATM   15  F   UNK N   1      20.930  11.973   6.401  0.00  0.00    -0.203 F 
HETATM   16  C   UNK N   1      22.035  13.670   5.201  0.00  0.00     0.052 A 
BRANCH  13  17
HETATM   17  O   UNK N   1      22.539  12.641   8.725  0.00  0.00    -0.344 OA
BRANCH  17  18
HETATM   18  C   UNK N   1      22.116  13.162   9.938  0.00  0.00     0.121 C 
HETATM   19  C   UNK N   1      22.145  12.140  11.060  0.00  0.00     0.040 C 
HETATM   20  C   UNK N   1      20.784  13.889   9.832  0.00  0.00     0.040 C 
ENDBRANCH  17  18
ENDBRANCH  13  17
ENDBRANCH   9  10
ENDBRANCH   8   9
ENDBRANCH   1   8
BRANCH   1  21
HETATM   21  C   UNK N   1      20.809  17.735   5.171  0.00  0.00     0.021 C 
HETATM   22  C   UNK N   1      19.866  16.537   5.170  0.00  0.00     0.007 C 
HETATM   23  C   UNK N   1      19.763  16.065   6.608  0.00  0.00     0.000 C 
HETATM   24  C   UNK N   1      20.521  17.073   7.451  0.00  0.00     0.000 C 
HETATM   25  C   UNK N   1      21.510  17.727   6.515  0.00  0.00     0.007 C 
ENDBRANCH   1  21
BRANCH   7  26
HETATM   26  O   UNK N   1      19.139  17.761   1.289  0.00  0.00    -0.365 OA
HETATM   27  H   UNK N   1      18.272  17.575   1.592  0.00  0.00     0.217 HD
ENDBRANCH   7  26
TORSDOF 7
ENDMDL
MODEL 5
REMARK VINA RESULT:      -6.6     14.214     16.881
REMARK  7 active torsions:
REMARK  status: ('A' for Active; 'I' for Inactive)
REMARK    1  A    between atoms: C_3  and  O_4 
REMARK    2  A    between atoms: O_4  and  C_5 
REMARK    3  A    between atoms: C_10  and  C_12 
REMARK    4  A    between atoms: C_12  and  C_13 
REMARK    5  A    between atoms: C_14  and  C_13 
REMARK    6  A    between atoms: C_14  and  C_16 
REMARK    7  A    between atoms: C_25  and  O_26 
ROOT
HETATM    1  C   UNK N   1      26.415  27.409  -5.219  0.00  0.00     0.080 C 
HETATM    2  C   UNK N   1      25.652  28.457  -4.374  0.00  0.00     0.103 C 
HETATM    3  O   UNK N   1      27.302  28.009  -6.110  0.00  0.00    -0.306 OA
HETATM    4  C   UNK N   1      27.773  29.275  -5.998  0.00  0.00     0.286 C 
HETATM    5  O   UNK N   1      28.511  29.729  -6.858  0.00  0.00    -0.260 OA
HETATM    6  C   UNK N   1      27.460  30.068  -4.805  0.00  0.00     0.114 C 
HETATM    7  C   UNK N   1      26.491  29.648  -3.992  0.00  0.00     0.052 C 
ENDROOT
BRANCH   1   8
HETATM    8  C   UNK N   1      25.385  26.696  -6.108  0.00  0.00     0.044 C 
BRANCH   8   9
HETATM    9  C   UNK N   1      25.766  26.343  -7.547  0.00  0.00     0.041 C 
BRANCH   9  10
HETATM   10  C   UNK N   1      26.359  24.961  -7.636  0.00  0.00    -0.055 A 
HETATM   11  C   UNK N   1      27.658  24.802  -8.117  0.00  0.00     0.010 A 
HETATM   12  C   UNK N   1      28.244  23.533  -8.157  0.00  0.00     0.040 A 
HETATM   13  C   UNK N   1      27.544  22.399  -7.721  0.00  0.00     0.107 A 
HETATM   14  C   UNK N   1      26.213  22.558  -7.261  0.00  0.00     0.150 A 
HETATM   15  F   UNK N   1      25.462  21.513  -6.839  0.00  0.00    -0.203 F 
HETATM   16  C   UNK N   1      25.641  23.829  -7.222  0.00  0.00     0.052 A 
BRANCH  13  17
HETATM   17  O   UNK N   1      28.203  21.204  -7.752  0.00  0.00    -0.344 OA
BRANCH  17  18
HETATM   18  C   UNK N   1      29.467  20.887  -7.282  0.00  0.00     0.121 C 
HETATM   19  C   UNK N   1      29.811  19.419  -7.462  0.00  0.00     0.040 C 
HETATM   20  C   UNK N   1      29.708  21.383  -5.864  0.00  0.00     0.040 C 
ENDBRANCH  17  18
ENDBRANCH  13  17
ENDBRANCH   9  10
ENDBRANCH   8   9
ENDBRANCH   1   8
BRANCH   1  21
HETATM   21  C   UNK N   1      27.223  26.478  -4.278  0.00  0.00     0.021 C 
HETATM   22  C   UNK N   1      26.505  25.185  -3.906  0.00  0.00     0.007 C 
HETATM   23  C   UNK N   1      27.555  24.090  -3.911  0.00  0.00     0.000 C 
HETATM   24  C   UNK N   1      28.892  24.771  -4.136  0.00  0.00     0.000 C 
HETATM   25  C   UNK N   1      28.574  26.074  -4.832  0.00  0.00     0.007 C 
ENDBRANCH   1  21
BRANCH   7  26
HETATM   26  O   UNK N   1      26.215  30.333  -2.868  0.00  0.00    -0.365 OA
HETATM   27  H   UNK N   1      25.410  30.368  -2.388  0.00  0.00     0.217 HD
ENDBRANCH   7  26
TORSDOF 7
ENDMDL
MODEL 6
REMARK VINA RESULT:      -6.6      1.695      3.319
REMARK  7 active torsions:
REMARK  status: ('A' for Active; 'I' for Inactive)
REMARK    1  A    between atoms: C_3  and  O_4 
REMARK    2  A    between atoms: O_4  and  C_5 
REMARK    3  A    between atoms: C_10  and  C_12 
REMARK    4  A    between atoms: C_12  and  C_13 
REMARK    5  A    between atoms: C_14  and  C_13 
REMARK    6  A    between atoms: C_14  and  C_16 
REMARK    7  A    between atoms: C_25  and  O_26 
ROOT
HETATM    1  C   UNK N   1      32.153  16.693   8.162  0.00  0.00     0.080 C 
HETATM    2  C   UNK N   1      33.180  17.669   7.541  0.00  0.00     0.103 C 
HETATM    3  O   UNK N   1      32.771  15.717   8.940  0.00  0.00    -0.306 OA
HETATM    4  C   UNK N   1      34.023  15.813   9.451  0.00  0.00     0.286 C 
HETATM    5  O   UNK N   1      34.497  14.882  10.082  0.00  0.00    -0.260 OA
HETATM    6  C   UNK N   1      34.772  17.066   9.315  0.00  0.00     0.114 C 
HETATM    7  C   UNK N   1      34.338  17.983   8.451  0.00  0.00     0.052 C 
ENDROOT
BRANCH   1   8
HETATM    8  C   UNK N   1      31.496  15.920   7.009  0.00  0.00     0.044 C 
BRANCH   8   9
HETATM    9  C   UNK N   1      31.246  16.638   5.682  0.00  0.00     0.041 C 
BRANCH   9  10
HETATM   10  C   UNK N   1      29.796  17.018   5.527  0.00  0.00    -0.055 A 
HETATM   11  C   UNK N   1      28.817  16.263   6.173  0.00  0.00     0.010 A 
HETATM   12  C   UNK N   1      27.472  16.632   6.084  0.00  0.00     0.040 A 
HETATM   13  C   UNK N   1      27.077  17.757   5.346  0.00  0.00     0.107 A 
HETATM   14  C   UNK N   1      28.069  18.504   4.664  0.00  0.00     0.150 A 
HETATM   15  F   UNK N   1      27.771  19.592   3.916  0.00  0.00    -0.203 F 
HETATM   16  C   UNK N   1      29.409  18.129   4.764  0.00  0.00     0.052 A 
BRANCH  13  17
HETATM   17  O   UNK N   1      25.749  18.073   5.345  0.00  0.00    -0.344 OA
BRANCH  17  18
HETATM   18  C   UNK N   1      24.781  17.789   4.394  0.00  0.00     0.121 C 
HETATM   19  C   UNK N   1      25.270  16.826   3.326  0.00  0.00     0.040 C 
HETATM   20  C   UNK N   1      24.143  19.043   3.815  0.00  0.00     0.040 C 
ENDBRANCH  17  18
ENDBRANCH  13  17
ENDBRANCH   9  10
ENDBRANCH   8   9
ENDBRANCH   1   8
BRANCH   1  21
HETATM   21  C   UNK N   1      31.169  17.484   9.063  0.00  0.00     0.021 C 
HETATM   22  C   UNK N   1      30.697  18.807   8.468  0.00  0.00     0.007 C 
HETATM   23  C   UNK N   1      29.226  18.937   8.814  0.00  0.00     0.000 C 
HETATM   24  C   UNK N   1      28.890  17.774   9.728  0.00  0.00     0.000 C 
HETATM   25  C   UNK N   1      29.919  16.709   9.429  0.00  0.00     0.007 C 
ENDBRANCH   1  21
BRANCH   7  26
HETATM   26  O   UNK N   1      34.982  19.158   8.340  0.00  0.00    -0.365 OA
HETATM   27  H   UNK N   1      35.892  19.341   8.476  0.00  0.00     0.217 HD
ENDBRANCH   7  26
TORSDOF 7
ENDMDL
MODEL 7
REMARK VINA RESULT:      -6.5     11.888     15.529
REMARK  7 active torsions:
REMARK  status: ('A' for Active; 'I' for Inactive)
REMARK    1  A    between atoms: C_3  and  O_4 
REMARK    2  A    between atoms: O_4  and  C_5 
REMARK    3  A    between atoms: C_10  and  C_12 
REMARK    4  A    between atoms: C_12  and  C_13 
REMARK    5  A    between atoms: C_14  and  C_13 
REMARK    6  A    between atoms: C_14  and  C_16 
REMARK    7  A    between atoms: C_25  and  O_26 
ROOT
HETATM    1  C   UNK N   1      27.311  25.611  -4.690  0.00  0.00     0.080 C 
HETATM    2  C   UNK N   1      28.351  26.592  -5.282  0.00  0.00     0.103 C 
HETATM    3  O   UNK N   1      26.374  26.268  -3.896  0.00  0.00    -0.306 OA
HETATM    4  C   UNK N   1      26.112  27.598  -3.948  0.00  0.00     0.286 C 
HETATM    5  O   UNK N   1      25.305  28.090  -3.176  0.00  0.00    -0.260 OA
HETATM    6  C   UNK N   1      26.740  28.425  -4.983  0.00  0.00     0.114 C 
HETATM    7  C   UNK N   1      27.768  27.926  -5.667  0.00  0.00     0.052 C 
ENDROOT
BRANCH   1   8
HETATM    8  C   UNK N   1      28.057  24.676  -3.725  0.00  0.00     0.044 C 
BRANCH   8   9
HETATM    9  C   UNK N   1      29.584  24.743  -3.660  0.00  0.00     0.041 C 
BRANCH   9  10
HETATM   10  C   UNK N   1      30.201  23.380  -3.834  0.00  0.00    -0.055 A 
HETATM   11  C   UNK N   1      29.766  22.558  -4.874  0.00  0.00     0.010 A 
HETATM   12  C   UNK N   1      30.364  21.312  -5.084  0.00  0.00     0.040 A 
HETATM   13  C   UNK N   1      31.404  20.860  -4.259  0.00  0.00     0.107 A 
HETATM   14  C   UNK N   1      31.824  21.682  -3.184  0.00  0.00     0.150 A 
HETATM   15  F   UNK N   1      32.809  21.314  -2.332  0.00  0.00    -0.203 F 
HETATM   16  C   UNK N   1      31.223  22.926  -2.987  0.00  0.00     0.052 A 
BRANCH  13  17
HETATM   17  O   UNK N   1      31.962  19.651  -4.558  0.00  0.00    -0.344 OA
BRANCH  17  18
HETATM   18  C   UNK N   1      33.195  19.371  -5.126  0.00  0.00     0.121 C 
HETATM   19  C   UNK N   1      34.199  18.835  -4.119  0.00  0.00     0.040 C 
HETATM   20  C   UNK N   1      33.740  20.529  -5.948  0.00  0.00     0.040 C 
ENDBRANCH  17  18
ENDBRANCH  13  17
ENDBRANCH   9  10
ENDBRANCH   8   9
ENDBRANCH   1   8
BRANCH   1  21
HETATM   21  C   UNK N   1      26.561  24.897  -5.843  0.00  0.00     0.021 C 
HETATM   22  C   UNK N   1      27.437  24.547  -7.041  0.00  0.00     0.007 C 
HETATM   23  C   UNK N   1      26.992  23.177  -7.518  0.00  0.00     0.000 C 
HETATM   24  C   UNK N   1      25.772  22.807  -6.697  0.00  0.00     0.000 C 
HETATM   25  C   UNK N   1      25.877  23.611  -5.422  0.00  0.00     0.007 C 
ENDBRANCH   1  21
BRANCH   7  26
HETATM   26  O   UNK N   1      28.333  28.648  -6.652  0.00  0.00    -0.365 OA
HETATM   27  H   UNK N   1      28.489  28.400  -7.542  0.00  0.00     0.217 HD
ENDBRANCH   7  26
TORSDOF 7
ENDMDL
MODEL 8
REMARK VINA RESULT:      -6.4      5.147     10.120
REMARK  7 active torsions:
REMARK  status: ('A' for Active; 'I' for Inactive)
REMARK    1  A    between atoms: C_3  and  O_4 
REMARK    2  A    between atoms: O_4  and  C_5 
REMARK    3  A    between atoms: C_10  and  C_12 
REMARK    4  A    between atoms: C_12  and  C_13 
REMARK    5  A    between atoms: C_14  and  C_13 
REMARK    6  A    between atoms: C_14  and  C_16 
REMARK    7  A    between atoms: C_25  and  O_26 
ROOT
HETATM    1  C   UNK N   1      33.920  15.467   9.315  0.00  0.00     0.080 C 
HETATM    2  C   UNK N   1      34.681  16.808   9.184  0.00  0.00     0.103 C 
HETATM    3  O   UNK N   1      32.541  15.645   9.230  0.00  0.00    -0.306 OA
HETATM    4  C   UNK N   1      31.932  16.730   8.691  0.00  0.00     0.286 C 
HETATM    5  O   UNK N   1      30.715  16.816   8.706  0.00  0.00    -0.260 OA
HETATM    6  C   UNK N   1      32.734  17.759   8.022  0.00  0.00     0.114 C 
HETATM    7  C   UNK N   1      34.054  17.762   8.202  0.00  0.00     0.052 C 
ENDROOT
BRANCH   1   8
HETATM    8  C   UNK N   1      34.161  14.937  10.737  0.00  0.00     0.044 C 
BRANCH   8   9
HETATM    9  C   UNK N   1      35.483  15.260  11.434  0.00  0.00     0.041 C 
BRANCH   9  10
HETATM   10  C   UNK N   1      35.633  14.482  12.716  0.00  0.00    -0.055 A 
HETATM   11  C   UNK N   1      34.967  13.265  12.861  0.00  0.00     0.010 A 
HETATM   12  C   UNK N   1      35.136  12.504  14.021  0.00  0.00     0.040 A 
HETATM   13  C   UNK N   1      35.969  12.943  15.060  0.00  0.00     0.107 A 
HETATM   14  C   UNK N   1      36.620  14.195  14.925  0.00  0.00     0.150 A 
HETATM   15  F   UNK N   1      37.428  14.700  15.887  0.00  0.00    -0.203 F 
HETATM   16  C   UNK N   1      36.447  14.943  13.761  0.00  0.00     0.052 A 
BRANCH  13  17
HETATM   17  O   UNK N   1      36.113  12.121  16.140  0.00  0.00    -0.344 OA
BRANCH  17  18
HETATM   18  C   UNK N   1      35.307  11.996  17.260  0.00  0.00     0.121 C 
HETATM   19  C   UNK N   1      35.178  13.292  18.041  0.00  0.00     0.040 C 
HETATM   20  C   UNK N   1      35.695  10.812  18.133  0.00  0.00     0.040 C 
ENDBRANCH  17  18
ENDBRANCH  13  17
ENDBRANCH   9  10
ENDBRANCH   8   9
ENDBRANCH   1   8
BRANCH   1  21
HETATM   21  C   UNK N   1      34.361  14.511   8.177  0.00  0.00     0.021 C 
HETATM   22  C   UNK N   1      35.852  14.559   7.858  0.00  0.00     0.007 C 
HETATM   23  C   UNK N   1      36.284  13.129   7.591  0.00  0.00     0.000 C 
HETATM   24  C   UNK N   1      35.024  12.285   7.607  0.00  0.00     0.000 C 
HETATM   25  C   UNK N   1      34.026  13.056   8.438  0.00  0.00     0.007 C 
ENDBRANCH   1  21
BRANCH   7  26
HETATM   26  O   UNK N   1      34.817  18.668   7.564  0.00  0.00    -0.365 OA
HETATM   27  H   UNK N   1      35.730  18.622   7.359  0.00  0.00     0.217 HD
ENDBRANCH   7  26
TORSDOF 7
ENDMDL
MODEL 9
REMARK VINA RESULT:      -6.3      4.100      5.479
REMARK  7 active torsions:
REMARK  status: ('A' for Active; 'I' for Inactive)
REMARK    1  A    between atoms: C_3  and  O_4 
REMARK    2  A    between atoms: O_4  and  C_5 
REMARK    3  A    between atoms: C_10  and  C_12 
REMARK    4  A    between atoms: C_12  and  C_13 
REMARK    5  A    between atoms: C_14  and  C_13 
REMARK    6  A    between atoms: C_14  and  C_16 
REMARK    7  A    between atoms: C_25  and  O_26 
ROOT
HETATM    1  C   UNK N   1      33.574  16.929   6.240  0.00  0.00     0.080 C 
HETATM    2  C   UNK N   1      32.169  17.159   6.847  0.00  0.00     0.103 C 
HETATM    3  O   UNK N   1      34.526  17.773   6.807  0.00  0.00    -0.306 OA
HETATM    4  C   UNK N   1      34.388  18.407   7.998  0.00  0.00     0.286 C 
HETATM    5  O   UNK N   1      35.259  19.166   8.389  0.00  0.00    -0.260 OA
HETATM    6  C   UNK N   1      33.228  18.118   8.848  0.00  0.00     0.114 C 
HETATM    7  C   UNK N   1      32.193  17.465   8.321  0.00  0.00     0.052 C 
ENDROOT
BRANCH   1   8
HETATM    8  C   UNK N   1      33.511  17.345   4.762  0.00  0.00     0.044 C 
BRANCH   8   9
HETATM    9  C   UNK N   1      32.145  17.506   4.095  0.00  0.00     0.041 C 
BRANCH   9  10
HETATM   10  C   UNK N   1      31.597  16.179   3.637  0.00  0.00    -0.055 A 
HETATM   11  C   UNK N   1      30.243  15.896   3.820  0.00  0.00     0.010 A 
HETATM   12  C   UNK N   1      29.706  14.693   3.353  0.00  0.00     0.040 A 
HETATM   13  C   UNK N   1      30.508  13.748   2.699  0.00  0.00     0.107 A 
HETATM   14  C   UNK N   1      31.890  14.022   2.542  0.00  0.00     0.150 A 
HETATM   15  F   UNK N   1      32.736  13.156   1.938  0.00  0.00    -0.203 F 
HETATM   16  C   UNK N   1      32.413  15.228   3.007  0.00  0.00     0.052 A 
BRANCH  13  17
HETATM   17  O   UNK N   1      29.897  12.618   2.237  0.00  0.00    -0.344 OA
BRANCH  17  18
HETATM   18  C   UNK N   1      29.167  12.429   1.075  0.00  0.00     0.121 C 
HETATM   19  C   UNK N   1      27.989  11.490   1.266  0.00  0.00     0.040 C 
HETATM   20  C   UNK N   1      30.040  12.051  -0.112  0.00  0.00     0.040 C 
ENDBRANCH  17  18
ENDBRANCH  13  17
ENDBRANCH   9  10
ENDBRANCH   8   9
ENDBRANCH   1   8
BRANCH   1  21
HETATM   21  C   UNK N   1      34.010  15.462   6.489  0.00  0.00     0.021 C 
HETATM   22  C   UNK N   1      32.854  14.473   6.597  0.00  0.00     0.007 C 
HETATM   23  C   UNK N   1      33.295  13.212   5.877  0.00  0.00     0.000 C 
HETATM   24  C   UNK N   1      34.747  13.419   5.490  0.00  0.00     0.000 C 
HETATM   25  C   UNK N   1      34.945  14.915   5.430  0.00  0.00     0.007 C 
ENDBRANCH   1  21
BRANCH   7  26
HETATM   26  O   UNK N   1      31.137  17.149   9.092  0.00  0.00    -0.365 OA
HETATM   27  H   UNK N   1      30.994  16.372   9.596  0.00  0.00     0.217 HD
ENDBRANCH   7  26
TORSDOF 7
ENDMDL
