REMARK  7 active torsions:
REMARK  status: ('A' for Active; 'I' for Inactive)
REMARK    1  A    between atoms: C_3  and  O_4 
REMARK    2  A    between atoms: O_4  and  C_5 
REMARK    3  A    between atoms: C_10  and  C_12 
REMARK    4  A    between atoms: C_12  and  C_13 
REMARK    5  A    between atoms: C_14  and  C_13 
REMARK    6  A    between atoms: C_14  and  C_16 
REMARK    7  A    between atoms: C_25  and  O_26 
ROOT
HETATM    1  C   UNK N   1      -2.436   1.239  -0.249  0.00  0.00     0.080 C 
HETATM    2  C   UNK N   1      -3.365   1.715  -1.391  0.00  0.00     0.103 C 
HETATM    3  O   UNK N   1      -2.191   2.252   0.675  0.00  0.00    -0.306 OA
HETATM    4  C   UNK N   1      -2.957   3.360   0.830  0.00  0.00     0.286 C 
HETATM    5  O   UNK N   1      -2.633   4.217   1.636  0.00  0.00    -0.260 OA
HETATM    6  C   UNK N   1      -4.215   3.487   0.087  0.00  0.00     0.114 C 
HETATM    7  C   UNK N   1      -4.443   2.662  -0.934  0.00  0.00     0.052 C 
ENDROOT
BRANCH   1   8
HETATM    8  C   UNK N   1      -1.064   0.932  -0.869  0.00  0.00     0.044 C 
BRANCH   8   9
HETATM    9  C   UNK N   1      -0.699  -0.520  -1.180  0.00  0.00     0.041 C 
BRANCH   9  10
HETATM   10  C   UNK N   1       0.738  -0.812  -0.834  0.00  0.00    -0.055 A 
HETATM   11  C   UNK N   1       1.293  -2.041  -1.191  0.00  0.00     0.010 A 
HETATM   12  C   UNK N   1       2.639  -2.309  -0.926  0.00  0.00     0.040 A 
HETATM   13  C   UNK N   1       3.456  -1.359  -0.297  0.00  0.00     0.107 A 
HETATM   14  C   UNK N   1       2.883  -0.123   0.094  0.00  0.00     0.150 A 
HETATM   15  F   UNK N   1       3.597   0.841   0.721  0.00  0.00    -0.203 F 
HETATM   16  C   UNK N   1       1.540   0.135  -0.180  0.00  0.00     0.052 A 
BRANCH  13  17
HETATM   17  O   UNK N   1       4.769  -1.683  -0.113  0.00  0.00    -0.344 OA
BRANCH  17  18
HETATM   18  C   UNK N   1       5.800  -0.909   0.395  0.00  0.00     0.121 C 
HETATM   19  C   UNK N   1       5.637  -0.609   1.875  0.00  0.00     0.040 C 
HETATM   20  C   UNK N   1       6.064   0.337  -0.437  0.00  0.00     0.040 C 
ENDBRANCH  17  18
ENDBRANCH  13  17
ENDBRANCH   9  10
ENDBRANCH   8   9
ENDBRANCH   1   8
BRANCH   1  21
HETATM   21  C   UNK N   1      -3.099   0.050   0.493  0.00  0.00     0.021 C 
HETATM   22  C   UNK N   1      -3.526  -1.098  -0.415  0.00  0.00     0.007 C 
HETATM   23  C   UNK N   1      -3.203  -2.381   0.328  0.00  0.00     0.000 C 
HETATM   24  C   UNK N   1      -2.734  -1.975   1.712  0.00  0.00     0.000 C 
HETATM   25  C   UNK N   1      -2.226  -0.559   1.572  0.00  0.00     0.007 C 
ENDBRANCH   1  21
BRANCH   7  26
HETATM   26  O   UNK N   1      -5.608   2.729  -1.603  0.00  0.00    -0.365 OA
HETATM   27  H   UNK N   1      -5.973   3.456  -2.069  0.00  0.00     0.217 HD
ENDBRANCH   7  26
TORSDOF 7
