MODEL 1
REMARK VINA RESULT:      -7.7      0.000      0.000
REMARK  5 active torsions:
REMARK  status: ('A' for Active; 'I' for Inactive)
REMARK    1  A    between atoms: C_2  and  N_22 
REMARK    2  A    between atoms: C_5  and  O_24 
REMARK    3  A    between atoms: O_11  and  C_12 
REMARK    4  A    between atoms: C_19  and  O_20 
REMARK    5  A    between atoms: C_23  and  O_24 
ROOT
HETATM    1  C   UNK N   1      32.087  18.197   8.327  0.00  0.00     0.054 C 
HETATM    2  C   UNK N   1      31.976  15.844   8.887  0.00  0.00     0.157 C 
HETATM    3  C   UNK N   1      33.216  17.467   7.682  0.00  0.00     0.127 C 
HETATM    4  N   UNK N   1      33.286  16.294   8.492  0.00  0.00    -0.364 N 
HETATM    5  C   UNK N   1      31.090  17.085   8.662  0.00  0.00     0.150 C 
ENDROOT
BRANCH   4   6
HETATM    6  C   UNK N   1      34.436  15.995   9.299  0.00  0.00     0.117 A 
HETATM    7  C   UNK N   1      35.439  15.069   8.898  0.00  0.00     0.037 A 
HETATM    8  C   UNK N   1      35.406  14.406   7.666  0.00  0.00     0.057 A 
HETATM    9  C   UNK N   1      36.534  14.845   9.752  0.00  0.00     0.050 A 
HETATM   10  C   UNK N   1      36.422  13.531   7.270  0.00  0.00     0.102 A 
HETATM   11  C   UNK N   1      37.499  13.295   8.132  0.00  0.00     0.103 A 
HETATM   12  C   UNK N   1      37.549  13.957   9.376  0.00  0.00     0.070 A 
HETATM   13  N   UNK N   1      36.613  15.508  10.935  0.00  0.00    -0.351 N 
HETATM   14  C   UNK N   1      35.657  16.400  11.300  0.00  0.00     0.182 A 
ATOM     15  HN  UNK N   1      37.402  15.331  11.558  1.00  0.00     0.166 HD
HETATM   16  N   UNK N   1      34.594  16.645  10.489  0.00  0.00    -0.338 N 
ATOM     17  HN  UNK N   1      33.896  17.331  10.776  1.00  0.00     0.168 HD
BRANCH  10  18
HETATM   18  O   UNK N   1      36.382  12.917   6.060  0.00  0.00    -0.353 OA
HETATM   19  C   UNK N   1      36.729  13.545   4.884  0.00  0.00     0.210 C 
ENDBRANCH  10  18
BRANCH  11  20
HETATM   20  O   UNK N   1      38.476  12.439   7.744  0.00  0.00    -0.353 OA
HETATM   21  C   UNK N   1      39.817  12.693   7.915  0.00  0.00     0.210 C 
ENDBRANCH  11  20
ENDBRANCH   4   6
BRANCH   5  22
HETATM   22  O   UNK N   1      30.183  16.867   7.629  0.00  0.00    -0.328 OA
BRANCH  22  23
HETATM   23  C   UNK N   1      29.238  17.766   7.218  0.00  0.00     0.159 A 
HETATM   24  N   UNK N   1      29.034  17.973   5.887  0.00  0.00    -0.334 N 
HETATM   25  C   UNK N   1      28.094  18.860   5.455  0.00  0.00     0.061 A 
ATOM     26  HN  UNK N   1      29.591  17.458   5.206  1.00  0.00     0.168 HD
HETATM   27  C   UNK N   1      27.343  19.596   6.396  0.00  0.00     0.059 A 
HETATM   28  C   UNK N   1      27.860  19.040   4.089  0.00  0.00     0.032 A 
HETATM   29  C   UNK N   1      26.379  20.510   5.967  0.00  0.00     0.032 A 
HETATM   30  N   UNK N   1      27.555  19.403   7.718  0.00  0.00    -0.360 N 
HETATM   31  C   UNK N   1      26.150  20.687   4.600  0.00  0.00     0.002 A 
HETATM   32  C   UNK N   1      26.886  19.951   3.664  0.00  0.00     0.002 A 
HETATM   33  C   UNK N   1      28.474  18.502   8.142  0.00  0.00     0.144 A 
ATOM     34  HN  UNK N   1      27.021  19.940   8.400  1.00  0.00     0.165 HD
ENDBRANCH  22  23
ENDBRANCH   5  22
TORSDOF 5
ENDMDL
MODEL 2
REMARK VINA RESULT:      -7.7      4.201     10.097
REMARK  5 active torsions:
REMARK  status: ('A' for Active; 'I' for Inactive)
REMARK    1  A    between atoms: C_2  and  N_22 
REMARK    2  A    between atoms: C_5  and  O_24 
REMARK    3  A    between atoms: O_11  and  C_12 
REMARK    4  A    between atoms: C_19  and  O_20 
REMARK    5  A    between atoms: C_23  and  O_24 
ROOT
HETATM    1  C   UNK N   1      36.318  15.384  10.864  0.00  0.00     0.054 C 
HETATM    2  C   UNK N   1      34.171  14.348  10.440  0.00  0.00     0.157 C 
HETATM    3  C   UNK N   1      35.331  16.415  10.432  0.00  0.00     0.127 C 
HETATM    4  N   UNK N   1      34.359  15.608   9.770  0.00  0.00    -0.364 N 
HETATM    5  C   UNK N   1      35.438  14.214  11.308  0.00  0.00     0.150 C 
ENDROOT
BRANCH   4   6
HETATM    6  C   UNK N   1      34.097  15.735   8.363  0.00  0.00     0.117 A 
HETATM    7  C   UNK N   1      32.850  16.191   7.850  0.00  0.00     0.037 A 
HETATM    8  C   UNK N   1      31.793  16.592   8.676  0.00  0.00     0.057 A 
HETATM    9  C   UNK N   1      32.687  16.290   6.457  0.00  0.00     0.050 A 
HETATM   10  C   UNK N   1      30.591  17.078   8.155  0.00  0.00     0.102 A 
HETATM   11  C   UNK N   1      30.425  17.154   6.768  0.00  0.00     0.103 A 
HETATM   12  C   UNK N   1      31.481  16.757   5.921  0.00  0.00     0.070 A 
HETATM   13  N   UNK N   1      33.711  15.948   5.632  0.00  0.00    -0.351 N 
HETATM   14  C   UNK N   1      34.900  15.529   6.134  0.00  0.00     0.182 A 
ATOM     15  HN  UNK N   1      33.583  16.007   4.621  1.00  0.00     0.166 HD
HETATM   16  N   UNK N   1      35.090  15.435   7.477  0.00  0.00    -0.338 N 
ATOM     17  HN  UNK N   1      35.997  15.132   7.832  1.00  0.00     0.168 HD
BRANCH  10  18
HETATM   18  O   UNK N   1      29.588  17.484   8.975  0.00  0.00    -0.353 OA
HETATM   19  C   UNK N   1      29.636  18.654   9.702  0.00  0.00     0.210 C 
ENDBRANCH  10  18
BRANCH  11  20
HETATM   20  O   UNK N   1      29.253  17.618   6.270  0.00  0.00    -0.353 OA
HETATM   21  C   UNK N   1      29.078  17.974   4.953  0.00  0.00     0.210 C 
ENDBRANCH  11  20
ENDBRANCH   4   6
BRANCH   5  22
HETATM   22  O   UNK N   1      35.120  14.284  12.663  0.00  0.00    -0.328 OA
BRANCH  22  23
HETATM   23  C   UNK N   1      35.055  13.208  13.504  0.00  0.00     0.159 A 
HETATM   24  N   UNK N   1      35.245  13.383  14.842  0.00  0.00    -0.334 N 
HETATM   25  C   UNK N   1      35.179  12.327  15.700  0.00  0.00     0.061 A 
ATOM     26  HN  UNK N   1      35.438  14.316  15.205  1.00  0.00     0.168 HD
HETATM   27  C   UNK N   1      34.942  11.031  15.196  0.00  0.00     0.059 A 
HETATM   28  C   UNK N   1      35.335  12.517  17.076  0.00  0.00     0.032 A 
HETATM   29  C   UNK N   1      34.875   9.939  16.063  0.00  0.00     0.032 A 
HETATM   30  N   UNK N   1      34.769  10.853  13.866  0.00  0.00    -0.360 N 
HETATM   31  C   UNK N   1      35.032  10.135  17.438  0.00  0.00     0.002 A 
HETATM   32  C   UNK N   1      35.257  11.420  17.943  0.00  0.00     0.002 A 
HETATM   33  C   UNK N   1      34.811  11.910  13.020  0.00  0.00     0.144 A 
ATOM     34  HN  UNK N   1      34.606   9.916  13.497  1.00  0.00     0.165 HD
ENDBRANCH  22  23
ENDBRANCH   5  22
TORSDOF 5
ENDMDL
MODEL 3
REMARK VINA RESULT:      -7.7      3.361      9.994
REMARK  5 active torsions:
REMARK  status: ('A' for Active; 'I' for Inactive)
REMARK    1  A    between atoms: C_2  and  N_22 
REMARK    2  A    between atoms: C_5  and  O_24 
REMARK    3  A    between atoms: O_11  and  C_12 
REMARK    4  A    between atoms: C_19  and  O_20 
REMARK    5  A    between atoms: C_23  and  O_24 
ROOT
HETATM    1  C   UNK N   1      35.120  16.172   9.419  0.00  0.00     0.054 C 
HETATM    2  C   UNK N   1      33.055  14.981   8.992  0.00  0.00     0.157 C 
HETATM    3  C   UNK N   1      34.026  17.141   9.121  0.00  0.00     0.127 C 
HETATM    4  N   UNK N   1      33.098  16.306   8.429  0.00  0.00    -0.364 N 
HETATM    5  C   UNK N   1      34.369  14.893   9.794  0.00  0.00     0.150 C 
ENDROOT
BRANCH   4   6
HETATM    6  C   UNK N   1      32.759  16.527   7.051  0.00  0.00     0.117 A 
HETATM    7  C   UNK N   1      31.472  16.969   6.636  0.00  0.00     0.037 A 
HETATM    8  C   UNK N   1      30.445  17.265   7.541  0.00  0.00     0.057 A 
HETATM    9  C   UNK N   1      31.233  17.165   5.264  0.00  0.00     0.050 A 
HETATM   10  C   UNK N   1      29.200  17.740   7.119  0.00  0.00     0.102 A 
HETATM   11  C   UNK N   1      28.960  17.912   5.751  0.00  0.00     0.103 A 
HETATM   12  C   UNK N   1      29.983  17.622   4.825  0.00  0.00     0.070 A 
HETATM   13  N   UNK N   1      32.224  16.927   4.366  0.00  0.00    -0.351 N 
HETATM   14  C   UNK N   1      33.452  16.519   4.776  0.00  0.00     0.182 A 
ATOM     15  HN  UNK N   1      32.041  17.055   3.371  1.00  0.00     0.166 HD
HETATM   16  N   UNK N   1      33.714  16.333   6.097  0.00  0.00    -0.338 N 
ATOM     17  HN  UNK N   1      34.649  16.041   6.382  1.00  0.00     0.168 HD
BRANCH  10  18
HETATM   18  O   UNK N   1      28.228  18.042   8.015  0.00  0.00    -0.353 OA
HETATM   19  C   UNK N   1      28.388  17.901   9.377  0.00  0.00     0.210 C 
ENDBRANCH  10  18
BRANCH  11  20
HETATM   20  O   UNK N   1      27.748  18.364   5.348  0.00  0.00    -0.353 OA
HETATM   21  C   UNK N   1      27.523  19.653   4.922  0.00  0.00     0.210 C 
ENDBRANCH  11  20
ENDBRANCH   4   6
BRANCH   5  22
HETATM   22  O   UNK N   1      34.112  14.818  11.160  0.00  0.00    -0.328 OA
BRANCH  22  23
HETATM   23  C   UNK N   1      34.889  14.150  12.065  0.00  0.00     0.159 A 
HETATM   24  N   UNK N   1      34.591  12.861  12.393  0.00  0.00    -0.334 N 
HETATM   25  C   UNK N   1      35.355  12.174  13.287  0.00  0.00     0.061 A 
ATOM     26  HN  UNK N   1      33.785  12.407  11.964  1.00  0.00     0.168 HD
HETATM   27  C   UNK N   1      36.452  12.812  13.905  0.00  0.00     0.059 A 
HETATM   28  C   UNK N   1      35.068  10.841  13.592  0.00  0.00     0.032 A 
HETATM   29  C   UNK N   1      37.241  12.120  14.825  0.00  0.00     0.032 A 
HETATM   30  N   UNK N   1      36.741  14.096  13.591  0.00  0.00    -0.360 N 
HETATM   31  C   UNK N   1      36.950  10.788  15.126  0.00  0.00     0.002 A 
HETATM   32  C   UNK N   1      35.869  10.148  14.509  0.00  0.00     0.002 A 
HETATM   33  C   UNK N   1      35.992  14.767  12.683  0.00  0.00     0.144 A 
ATOM     34  HN  UNK N   1      37.527  14.562  14.042  1.00  0.00     0.165 HD
ENDBRANCH  22  23
ENDBRANCH   5  22
TORSDOF 5
ENDMDL
MODEL 4
REMARK VINA RESULT:      -7.6      3.971      6.542
REMARK  5 active torsions:
REMARK  status: ('A' for Active; 'I' for Inactive)
REMARK    1  A    between atoms: C_2  and  N_22 
REMARK    2  A    between atoms: C_5  and  O_24 
REMARK    3  A    between atoms: O_11  and  C_12 
REMARK    4  A    between atoms: C_19  and  O_20 
REMARK    5  A    between atoms: C_23  and  O_24 
ROOT
HETATM    1  C   UNK N   1      26.716  20.615   5.740  0.00  0.00     0.054 C 
HETATM    2  C   UNK N   1      26.720  18.194   5.738  0.00  0.00     0.157 C 
HETATM    3  C   UNK N   1      28.093  20.108   5.473  0.00  0.00     0.127 C 
HETATM    4  N   UNK N   1      28.007  18.784   5.997  0.00  0.00    -0.364 N 
HETATM    5  C   UNK N   1      25.827  19.411   5.425  0.00  0.00     0.150 C 
ENDROOT
BRANCH   4   6
HETATM    6  C   UNK N   1      28.793  18.359   7.122  0.00  0.00     0.117 A 
HETATM    7  C   UNK N   1      29.965  17.563   6.986  0.00  0.00     0.037 A 
HETATM    8  C   UNK N   1      30.469  17.164   5.743  0.00  0.00     0.057 A 
HETATM    9  C   UNK N   1      30.675  17.201   8.145  0.00  0.00     0.050 A 
HETATM   10  C   UNK N   1      31.645  16.418   5.626  0.00  0.00     0.102 A 
HETATM   11  C   UNK N   1      32.336  16.041   6.782  0.00  0.00     0.103 A 
HETATM   12  C   UNK N   1      31.845  16.437   8.044  0.00  0.00     0.070 A 
HETATM   13  N   UNK N   1      30.233  17.610   9.362  0.00  0.00    -0.351 N 
HETATM   14  C   UNK N   1      29.122  18.382   9.477  0.00  0.00     0.182 A 
ATOM     15  HN  UNK N   1      30.743  17.333  10.201  1.00  0.00     0.166 HD
HETATM   16  N   UNK N   1      28.423  18.757   8.373  0.00  0.00    -0.338 N 
ATOM     17  HN  UNK N   1      27.600  19.350   8.483  1.00  0.00     0.168 HD
BRANCH  10  18
HETATM   18  O   UNK N   1      32.127  16.062   4.408  0.00  0.00    -0.353 OA
HETATM   19  C   UNK N   1      32.710  16.958   3.538  0.00  0.00     0.210 C 
ENDBRANCH  10  18
BRANCH  11  20
HETATM   20  O   UNK N   1      33.471  15.310   6.662  0.00  0.00    -0.353 OA
HETATM   21  C   UNK N   1      34.728  15.822   6.884  0.00  0.00     0.210 C 
ENDBRANCH  11  20
ENDBRANCH   4   6
BRANCH   5  22
HETATM   22  O   UNK N   1      25.418  19.397   4.093  0.00  0.00    -0.328 OA
BRANCH  22  23
HETATM   23  C   UNK N   1      24.118  19.456   3.676  0.00  0.00     0.159 A 
HETATM   24  N   UNK N   1      23.276  18.417   3.935  0.00  0.00    -0.334 N 
HETATM   25  C   UNK N   1      21.974  18.456   3.534  0.00  0.00     0.061 A 
ATOM     26  HN  UNK N   1      23.625  17.599   4.436  1.00  0.00     0.168 HD
HETATM   27  C   UNK N   1      21.498  19.572   2.815  0.00  0.00     0.059 A 
HETATM   28  C   UNK N   1      21.105  17.405   3.837  0.00  0.00     0.032 A 
HETATM   29  C   UNK N   1      20.168  19.624   2.396  0.00  0.00     0.032 A 
HETATM   30  N   UNK N   1      22.337  20.599   2.544  0.00  0.00    -0.360 N 
HETATM   31  C   UNK N   1      19.303  18.571   2.700  0.00  0.00     0.002 A 
HETATM   32  C   UNK N   1      19.768  17.466   3.422  0.00  0.00     0.002 A 
HETATM   33  C   UNK N   1      23.624  20.566   2.966  0.00  0.00     0.144 A 
ATOM     34  HN  UNK N   1      21.998  21.403   2.016  1.00  0.00     0.165 HD
ENDBRANCH  22  23
ENDBRANCH   5  22
TORSDOF 5
ENDMDL
MODEL 5
REMARK VINA RESULT:      -7.6      3.919      6.952
REMARK  5 active torsions:
REMARK  status: ('A' for Active; 'I' for Inactive)
REMARK    1  A    between atoms: C_2  and  N_22 
REMARK    2  A    between atoms: C_5  and  O_24 
REMARK    3  A    between atoms: O_11  and  C_12 
REMARK    4  A    between atoms: C_19  and  O_20 
REMARK    5  A    between atoms: C_23  and  O_24 
ROOT
HETATM    1  C   UNK N   1      26.881  16.794   3.363  0.00  0.00     0.054 C 
HETATM    2  C   UNK N   1      27.894  18.579   4.648  0.00  0.00     0.157 C 
HETATM    3  C   UNK N   1      27.690  16.223   4.479  0.00  0.00     0.127 C 
HETATM    4  N   UNK N   1      28.565  17.311   4.771  0.00  0.00    -0.364 N 
HETATM    5  C   UNK N   1      26.654  18.244   3.795  0.00  0.00     0.150 C 
ENDROOT
BRANCH   4   6
HETATM    6  C   UNK N   1      29.986  17.215   4.585  0.00  0.00     0.117 A 
HETATM    7  C   UNK N   1      30.914  17.367   5.652  0.00  0.00     0.037 A 
HETATM    8  C   UNK N   1      30.516  17.582   6.977  0.00  0.00     0.057 A 
HETATM    9  C   UNK N   1      32.289  17.249   5.376  0.00  0.00     0.050 A 
HETATM   10  C   UNK N   1      31.441  17.687   8.020  0.00  0.00     0.102 A 
HETATM   11  C   UNK N   1      32.808  17.591   7.737  0.00  0.00     0.103 A 
HETATM   12  C   UNK N   1      33.227  17.371   6.408  0.00  0.00     0.070 A 
HETATM   13  N   UNK N   1      32.702  16.998   4.107  0.00  0.00    -0.351 N 
HETATM   14  C   UNK N   1      31.805  16.840   3.100  0.00  0.00     0.182 A 
ATOM     15  HN  UNK N   1      33.701  16.929   3.908  1.00  0.00     0.166 HD
HETATM   16  N   UNK N   1      30.471  16.938   3.341  0.00  0.00    -0.338 N 
ATOM     17  HN  UNK N   1      29.815  16.800   2.572  1.00  0.00     0.168 HD
BRANCH  10  18
HETATM   18  O   UNK N   1      31.031  17.871   9.300  0.00  0.00    -0.353 OA
HETATM   19  C   UNK N   1      29.870  18.538   9.631  0.00  0.00     0.210 C 
ENDBRANCH  10  18
BRANCH  11  20
HETATM   20  O   UNK N   1      33.699  17.701   8.752  0.00  0.00    -0.353 OA
HETATM   21  C   UNK N   1      34.545  16.686   9.131  0.00  0.00     0.210 C 
ENDBRANCH  11  20
ENDBRANCH   4   6
BRANCH   5  22
HETATM   22  O   UNK N   1      25.485  18.392   4.539  0.00  0.00    -0.328 OA
BRANCH  22  23
HETATM   23  C   UNK N   1      24.288  18.815   4.034  0.00  0.00     0.159 A 
HETATM   24  N   UNK N   1      23.196  18.003   4.109  0.00  0.00    -0.334 N 
HETATM   25  C   UNK N   1      21.992  18.407   3.617  0.00  0.00     0.061 A 
ATOM     26  HN  UNK N   1      23.283  17.082   4.538  1.00  0.00     0.168 HD
HETATM   27  C   UNK N   1      21.878  19.668   2.995  0.00  0.00     0.059 A 
HETATM   28  C   UNK N   1      20.866  17.587   3.731  0.00  0.00     0.032 A 
HETATM   29  C   UNK N   1      20.650  20.092   2.484  0.00  0.00     0.032 A 
HETATM   30  N   UNK N   1      22.964  20.469   2.906  0.00  0.00    -0.360 N 
HETATM   31  C   UNK N   1      19.528  19.269   2.600  0.00  0.00     0.002 A 
HETATM   32  C   UNK N   1      19.634  18.021   3.225  0.00  0.00     0.002 A 
HETATM   33  C   UNK N   1      24.154  20.074   3.418  0.00  0.00     0.144 A 
ATOM     34  HN  UNK N   1      22.887  21.378   2.449  1.00  0.00     0.165 HD
ENDBRANCH  22  23
ENDBRANCH   5  22
TORSDOF 5
ENDMDL
MODEL 6
REMARK VINA RESULT:      -7.4      6.118      8.969
REMARK  5 active torsions:
REMARK  status: ('A' for Active; 'I' for Inactive)
REMARK    1  A    between atoms: C_2  and  N_22 
REMARK    2  A    between atoms: C_5  and  O_24 
REMARK    3  A    between atoms: O_11  and  C_12 
REMARK    4  A    between atoms: C_19  and  O_20 
REMARK    5  A    between atoms: C_23  and  O_24 
ROOT
HETATM    1  C   UNK N   1      35.007  12.784  11.471  0.00  0.00     0.054 C 
HETATM    2  C   UNK N   1      37.195  12.363  12.419  0.00  0.00     0.157 C 
HETATM    3  C   UNK N   1      34.952  12.911  12.956  0.00  0.00     0.127 C 
HETATM    4  N   UNK N   1      36.106  12.167  13.341  0.00  0.00    -0.364 N 
HETATM    5  C   UNK N   1      36.499  12.914  11.158  0.00  0.00     0.150 C 
ENDROOT
BRANCH   4   6
HETATM    6  C   UNK N   1      36.009  10.959  14.112  0.00  0.00     0.117 A 
HETATM    7  C   UNK N   1      35.747  10.957  15.510  0.00  0.00     0.037 A 
HETATM    8  C   UNK N   1      35.522  12.131  16.240  0.00  0.00     0.057 A 
HETATM    9  C   UNK N   1      35.663   9.724  16.182  0.00  0.00     0.050 A 
HETATM   10  C   UNK N   1      35.224  12.108  17.605  0.00  0.00     0.102 A 
HETATM   11  C   UNK N   1      35.162  10.880  18.273  0.00  0.00     0.103 A 
HETATM   12  C   UNK N   1      35.384   9.687  17.554  0.00  0.00     0.070 A 
HETATM   13  N   UNK N   1      35.835   8.567  15.491  0.00  0.00    -0.351 N 
HETATM   14  C   UNK N   1      36.069   8.582  14.154  0.00  0.00     0.182 A 
ATOM     15  HN  UNK N   1      35.788   7.675  15.985  1.00  0.00     0.166 HD
HETATM   16  N   UNK N   1      36.145   9.759  13.478  0.00  0.00    -0.338 N 
ATOM     17  HN  UNK N   1      36.306   9.745  12.471  1.00  0.00     0.168 HD
BRANCH  10  18
HETATM   18  O   UNK N   1      34.986  13.257  18.287  0.00  0.00    -0.353 OA
HETATM   19  C   UNK N   1      35.657  14.434  18.036  0.00  0.00     0.210 C 
ENDBRANCH  10  18
BRANCH  11  20
HETATM   20  O   UNK N   1      34.881  10.865  19.599  0.00  0.00    -0.353 OA
HETATM   21  C   UNK N   1      34.329   9.784  20.244  0.00  0.00     0.210 C 
ENDBRANCH  11  20
ENDBRANCH   4   6
BRANCH   5  22
HETATM   22  O   UNK N   1      36.871  14.236  10.925  0.00  0.00    -0.328 OA
BRANCH  22  23
HETATM   23  C   UNK N   1      36.106  15.155  10.262  0.00  0.00     0.159 A 
HETATM   24  N   UNK N   1      35.811  14.968   8.945  0.00  0.00    -0.334 N 
HETATM   25  C   UNK N   1      35.046  15.868   8.267  0.00  0.00     0.061 A 
ATOM     26  HN  UNK N   1      36.168  14.144   8.462  1.00  0.00     0.168 HD
HETATM   27  C   UNK N   1      34.578  17.025   8.925  0.00  0.00     0.059 A 
HETATM   28  C   UNK N   1      34.714  15.652   6.927  0.00  0.00     0.032 A 
HETATM   29  C   UNK N   1      33.796  17.956   8.241  0.00  0.00     0.032 A 
HETATM   30  N   UNK N   1      34.883  17.220  10.229  0.00  0.00    -0.360 N 
HETATM   31  C   UNK N   1      33.467  17.736   6.901  0.00  0.00     0.002 A 
HETATM   32  C   UNK N   1      33.921  16.585   6.247  0.00  0.00     0.002 A 
HETATM   33  C   UNK N   1      35.623  16.310  10.906  0.00  0.00     0.144 A 
ATOM     34  HN  UNK N   1      34.553  18.059  10.706  1.00  0.00     0.165 HD
ENDBRANCH  22  23
ENDBRANCH   5  22
TORSDOF 5
ENDMDL
MODEL 7
REMARK VINA RESULT:      -7.4      9.116     12.443
REMARK  5 active torsions:
REMARK  status: ('A' for Active; 'I' for Inactive)
REMARK    1  A    between atoms: C_2  and  N_22 
REMARK    2  A    between atoms: C_5  and  O_24 
REMARK    3  A    between atoms: O_11  and  C_12 
REMARK    4  A    between atoms: C_19  and  O_20 
REMARK    5  A    between atoms: C_23  and  O_24 
ROOT
HETATM    1  C   UNK N   1      19.062  16.291   4.606  0.00  0.00     0.054 C 
HETATM    2  C   UNK N   1      21.162  16.671   5.749  0.00  0.00     0.157 C 
HETATM    3  C   UNK N   1      20.189  16.226   3.633  0.00  0.00     0.127 C 
HETATM    4  N   UNK N   1      21.203  16.944   4.335  0.00  0.00    -0.364 N 
HETATM    5  C   UNK N   1      19.748  16.094   5.959  0.00  0.00     0.150 C 
ENDROOT
BRANCH   4   6
HETATM    6  C   UNK N   1      21.734  18.185   3.845  0.00  0.00     0.117 A 
HETATM    7  C   UNK N   1      23.118  18.507   3.903  0.00  0.00     0.037 A 
HETATM    8  C   UNK N   1      24.080  17.623   4.407  0.00  0.00     0.057 A 
HETATM    9  C   UNK N   1      23.548  19.745   3.392  0.00  0.00     0.050 A 
HETATM   10  C   UNK N   1      25.442  17.939   4.417  0.00  0.00     0.102 A 
HETATM   11  C   UNK N   1      25.862  19.180   3.927  0.00  0.00     0.103 A 
HETATM   12  C   UNK N   1      24.907  20.082   3.414  0.00  0.00     0.070 A 
HETATM   13  N   UNK N   1      22.642  20.605   2.858  0.00  0.00    -0.351 N 
HETATM   14  C   UNK N   1      21.326  20.280   2.795  0.00  0.00     0.182 A 
ATOM     15  HN  UNK N   1      22.956  21.508   2.502  1.00  0.00     0.166 HD
HETATM   16  N   UNK N   1      20.884  19.085   3.271  0.00  0.00    -0.338 N 
ATOM     17  HN  UNK N   1      19.893  18.856   3.199  1.00  0.00     0.168 HD
BRANCH  10  18
HETATM   18  O   UNK N   1      26.359  17.056   4.888  0.00  0.00    -0.353 OA
HETATM   19  C   UNK N   1      26.128  15.700   4.967  0.00  0.00     0.210 C 
ENDBRANCH  10  18
BRANCH  11  20
HETATM   20  O   UNK N   1      27.183  19.483   3.949  0.00  0.00    -0.353 OA
HETATM   21  C   UNK N   1      27.755  20.308   4.888  0.00  0.00     0.210 C 
ENDBRANCH  11  20
ENDBRANCH   4   6
BRANCH   5  22
HETATM   22  O   UNK N   1      19.810  14.751   6.324  0.00  0.00    -0.328 OA
BRANCH  22  23
HETATM   23  C   UNK N   1      20.478  14.270   7.416  0.00  0.00     0.159 A 
HETATM   24  N   UNK N   1      21.328  13.214   7.279  0.00  0.00    -0.334 N 
HETATM   25  C   UNK N   1      22.009  12.722   8.351  0.00  0.00     0.061 A 
ATOM     26  HN  UNK N   1      21.457  12.788   6.361  1.00  0.00     0.168 HD
HETATM   27  C   UNK N   1      21.808  13.291   9.627  0.00  0.00     0.059 A 
HETATM   28  C   UNK N   1      22.909  11.665   8.198  0.00  0.00     0.032 A 
HETATM   29  C   UNK N   1      22.497  12.795  10.735  0.00  0.00     0.032 A 
HETATM   30  N   UNK N   1      20.953  14.330   9.768  0.00  0.00    -0.360 N 
HETATM   31  C   UNK N   1      23.396  11.737  10.577  0.00  0.00     0.002 A 
HETATM   32  C   UNK N   1      23.605  11.176   9.312  0.00  0.00     0.002 A 
HETATM   33  C   UNK N   1      20.297  14.832   8.694  0.00  0.00     0.144 A 
ATOM     34  HN  UNK N   1      20.800  14.738  10.690  1.00  0.00     0.165 HD
ENDBRANCH  22  23
ENDBRANCH   5  22
TORSDOF 5
ENDMDL
MODEL 8
REMARK VINA RESULT:      -7.4      3.558      5.042
REMARK  5 active torsions:
REMARK  status: ('A' for Active; 'I' for Inactive)
REMARK    1  A    between atoms: C_2  and  N_22 
REMARK    2  A    between atoms: C_5  and  O_24 
REMARK    3  A    between atoms: O_11  and  C_12 
REMARK    4  A    between atoms: C_19  and  O_20 
REMARK    5  A    between atoms: C_23  and  O_24 
ROOT
HETATM    1  C   UNK N   1      35.410  16.572  10.615  0.00  0.00     0.054 C 
HETATM    2  C   UNK N   1      34.449  14.378  10.970  0.00  0.00     0.157 C 
HETATM    3  C   UNK N   1      36.482  15.536  10.587  0.00  0.00     0.127 C 
HETATM    4  N   UNK N   1      35.851  14.465  11.287  0.00  0.00    -0.364 N 
HETATM    5  C   UNK N   1      34.131  15.767  10.379  0.00  0.00     0.150 C 
ENDROOT
BRANCH   4   6
HETATM    6  C   UNK N   1      36.347  13.983  12.546  0.00  0.00     0.117 A 
HETATM    7  C   UNK N   1      36.828  12.656  12.726  0.00  0.00     0.037 A 
HETATM    8  C   UNK N   1      36.893  11.726  11.682  0.00  0.00     0.057 A 
HETATM    9  C   UNK N   1      37.301  12.274  13.995  0.00  0.00     0.050 A 
HETATM   10  C   UNK N   1      37.408  10.440  11.868  0.00  0.00     0.102 A 
HETATM   11  C   UNK N   1      37.858  10.057  13.136  0.00  0.00     0.103 A 
HETATM   12  C   UNK N   1      37.802  10.982  14.200  0.00  0.00     0.070 A 
HETATM   13  N   UNK N   1      37.289  13.169  15.017  0.00  0.00    -0.351 N 
HETATM   14  C   UNK N   1      36.843  14.437  14.827  0.00  0.00     0.182 A 
ATOM     15  HN  UNK N   1      37.620  12.883  15.938  1.00  0.00     0.166 HD
HETATM   16  N   UNK N   1      36.390  14.836  13.609  0.00  0.00    -0.338 N 
ATOM     17  HN  UNK N   1      36.073  15.798  13.487  1.00  0.00     0.168 HD
BRANCH  10  18
HETATM   18  O   UNK N   1      37.483   9.562  10.835  0.00  0.00    -0.353 OA
HETATM   19  C   UNK N   1      36.387   8.897  10.330  0.00  0.00     0.210 C 
ENDBRANCH  10  18
BRANCH  11  20
HETATM   20  O   UNK N   1      38.347   8.806  13.311  0.00  0.00    -0.353 OA
HETATM   21  C   UNK N   1      37.616   7.775  13.854  0.00  0.00     0.210 C 
ENDBRANCH  11  20
ENDBRANCH   4   6
BRANCH   5  22
HETATM   22  O   UNK N   1      33.816  15.670   9.026  0.00  0.00    -0.328 OA
BRANCH  22  23
HETATM   23  C   UNK N   1      32.636  16.078   8.470  0.00  0.00     0.159 A 
HETATM   24  N   UNK N   1      31.831  16.944   9.148  0.00  0.00    -0.334 N 
HETATM   25  C   UNK N   1      30.654  17.369   8.610  0.00  0.00     0.061 A 
ATOM     26  HN  UNK N   1      32.115  17.278  10.069  1.00  0.00     0.168 HD
HETATM   27  C   UNK N   1      30.246  16.884   7.349  0.00  0.00     0.059 A 
HETATM   28  C   UNK N   1      29.851  18.288   9.292  0.00  0.00     0.032 A 
HETATM   29  C   UNK N   1      29.041  17.309   6.788  0.00  0.00     0.032 A 
HETATM   30  N   UNK N   1      31.036  16.013   6.681  0.00  0.00    -0.360 N 
HETATM   31  C   UNK N   1      28.241  18.227   7.474  0.00  0.00     0.002 A 
HETATM   32  C   UNK N   1      28.647  18.718   8.721  0.00  0.00     0.002 A 
HETATM   33  C   UNK N   1      32.218  15.612   7.209  0.00  0.00     0.144 A 
ATOM     34  HN  UNK N   1      30.740  15.654   5.774  1.00  0.00     0.165 HD
ENDBRANCH  22  23
ENDBRANCH   5  22
TORSDOF 5
ENDMDL
MODEL 9
REMARK VINA RESULT:      -7.2      2.368      2.957
REMARK  5 active torsions:
REMARK  status: ('A' for Active; 'I' for Inactive)
REMARK    1  A    between atoms: C_2  and  N_22 
REMARK    2  A    between atoms: C_5  and  O_24 
REMARK    3  A    between atoms: O_11  and  C_12 
REMARK    4  A    between atoms: C_19  and  O_20 
REMARK    5  A    between atoms: C_23  and  O_24 
ROOT
HETATM    1  C   UNK N   1      32.933  16.907   6.759  0.00  0.00     0.054 C 
HETATM    2  C   UNK N   1      31.875  16.141   8.798  0.00  0.00     0.157 C 
HETATM    3  C   UNK N   1      33.463  15.564   7.135  0.00  0.00     0.127 C 
HETATM    4  N   UNK N   1      33.145  15.520   8.525  0.00  0.00    -0.364 N 
HETATM    5  C   UNK N   1      31.625  17.005   7.546  0.00  0.00     0.150 C 
ENDROOT
BRANCH   4   6
HETATM    6  C   UNK N   1      34.164  15.462   9.536  0.00  0.00     0.117 A 
HETATM    7  C   UNK N   1      34.653  14.236  10.067  0.00  0.00     0.037 A 
HETATM    8  C   UNK N   1      34.210  12.987   9.618  0.00  0.00     0.057 A 
HETATM    9  C   UNK N   1      35.657  14.278  11.051  0.00  0.00     0.050 A 
HETATM   10  C   UNK N   1      34.732  11.792  10.121  0.00  0.00     0.102 A 
HETATM   11  C   UNK N   1      35.716  11.838  11.116  0.00  0.00     0.103 A 
HETATM   12  C   UNK N   1      36.176  13.088  11.578  0.00  0.00     0.070 A 
HETATM   13  N   UNK N   1      36.136  15.476  11.476  0.00  0.00    -0.351 N 
HETATM   14  C   UNK N   1      35.672  16.638  10.949  0.00  0.00     0.182 A 
ATOM     15  HN  UNK N   1      36.854  15.502  12.200  1.00  0.00     0.166 HD
HETATM   16  N   UNK N   1      34.709  16.627   9.989  0.00  0.00    -0.338 N 
ATOM     17  HN  UNK N   1      34.387  17.512   9.598  1.00  0.00     0.168 HD
BRANCH  10  18
HETATM   18  O   UNK N   1      34.304  10.592   9.654  0.00  0.00    -0.353 OA
HETATM   19  C   UNK N   1      33.043  10.093   9.902  0.00  0.00     0.210 C 
ENDBRANCH  10  18
BRANCH  11  20
HETATM   20  O   UNK N   1      36.212  10.675  11.605  0.00  0.00    -0.353 OA
HETATM   21  C   UNK N   1      36.093  10.296  12.921  0.00  0.00     0.210 C 
ENDBRANCH  11  20
ENDBRANCH   4   6
BRANCH   5  22
HETATM   22  O   UNK N   1      30.539  16.522   6.819  0.00  0.00    -0.328 OA
BRANCH  22  23
HETATM   23  C   UNK N   1      29.703  17.294   6.061  0.00  0.00     0.159 A 
HETATM   24  N   UNK N   1      28.926  18.239   6.659  0.00  0.00    -0.334 N 
HETATM   25  C   UNK N   1      28.090  19.024   5.924  0.00  0.00     0.061 A 
ATOM     26  HN  UNK N   1      28.972  18.361   7.671  1.00  0.00     0.168 HD
HETATM   27  C   UNK N   1      28.003  18.835   4.528  0.00  0.00     0.059 A 
HETATM   28  C   UNK N   1      27.325  20.019   6.537  0.00  0.00     0.032 A 
HETATM   29  C   UNK N   1      27.148  19.630   3.763  0.00  0.00     0.032 A 
HETATM   30  N   UNK N   1      28.762  17.886   3.934  0.00  0.00    -0.360 N 
HETATM   31  C   UNK N   1      26.385  20.623   4.381  0.00  0.00     0.002 A 
HETATM   32  C   UNK N   1      26.475  20.820   5.764  0.00  0.00     0.002 A 
HETATM   33  C   UNK N   1      29.611  17.125   4.667  0.00  0.00     0.144 A 
ATOM     34  HN  UNK N   1      28.695  17.742   2.926  1.00  0.00     0.165 HD
ENDBRANCH  22  23
ENDBRANCH   5  22
TORSDOF 5
ENDMDL
