REMARK  5 active torsions:
REMARK  status: ('A' for Active; 'I' for Inactive)
REMARK    1  A    between atoms: C_2  and  N_22 
REMARK    2  A    between atoms: C_5  and  O_24 
REMARK    3  A    between atoms: O_11  and  C_12 
REMARK    4  A    between atoms: C_19  and  O_20 
REMARK    5  A    between atoms: C_23  and  O_24 
ROOT
HETATM    1  C   UNK N   1       0.262  -1.217  -0.342  0.00  0.00     0.054 C 
HETATM    2  C   UNK N   1      -0.577  -3.474  -0.086  0.00  0.00     0.157 C 
HETATM    3  C   UNK N   1      -0.628  -1.297   0.852  0.00  0.00     0.127 C 
HETATM    4  N   UNK N   1      -1.385  -2.469   0.555  0.00  0.00    -0.364 N 
HETATM    5  C   UNK N   1       0.637  -2.677  -0.604  0.00  0.00     0.150 C 
ENDROOT
BRANCH   4   6
HETATM    6  C   UNK N   1      -2.804  -2.422   0.335  0.00  0.00     0.117 A 
HETATM    7  C   UNK N   1      -3.527  -1.201   0.232  0.00  0.00     0.037 A 
HETATM    8  C   UNK N   1      -2.908   0.053   0.296  0.00  0.00     0.057 A 
HETATM    9  C   UNK N   1      -4.915  -1.253   0.009  0.00  0.00     0.050 A 
HETATM   10  C   UNK N   1      -3.628   1.242   0.150  0.00  0.00     0.102 A 
HETATM   11  C   UNK N   1      -5.012   1.186  -0.050  0.00  0.00     0.103 A 
HETATM   12  C   UNK N   1      -5.652  -0.069  -0.120  0.00  0.00     0.070 A 
HETATM   13  N   UNK N   1      -5.536  -2.456  -0.100  0.00  0.00    -0.351 N 
HETATM   14  C   UNK N   1      -4.832  -3.614  -0.015  0.00  0.00     0.182 A 
ATOM     15  HN  UNK N   1      -6.545  -2.489  -0.247  1.00  0.00     0.166 HD
HETATM   16  N   UNK N   1      -3.488  -3.593   0.189  0.00  0.00    -0.338 N 
ATOM     17  HN  UNK N   1      -2.978  -4.475   0.234  1.00  0.00     0.168 HD
BRANCH  10  18
HETATM   18  O   UNK N   1      -3.003   2.446   0.192  0.00  0.00    -0.353 OA
HETATM   19  C   UNK N   1      -1.638   2.582   0.326  0.00  0.00     0.210 C 
ENDBRANCH  10  18
BRANCH  11  20
HETATM   20  O   UNK N   1      -5.705   2.343  -0.182  0.00  0.00    -0.353 OA
HETATM   21  C   UNK N   1      -7.066   2.393  -0.372  0.00  0.00     0.210 C 
ENDBRANCH  11  20
ENDBRANCH   4   6
BRANCH   5  22
HETATM   22  O   UNK N   1       1.798  -3.048   0.070  0.00  0.00    -0.328 OA
BRANCH  22  23
HETATM   23  C   UNK N   1       2.978  -2.359   0.027  0.00  0.00     0.159 A 
HETATM   24  N   UNK N   1       4.157  -3.025   0.179  0.00  0.00    -0.334 N 
HETATM   25  C   UNK N   1       5.345  -2.360   0.134  0.00  0.00     0.061 A 
ATOM     26  HN  UNK N   1       4.149  -4.034   0.328  1.00  0.00     0.168 HD
HETATM   27  C   UNK N   1       5.356  -0.960  -0.041  0.00  0.00     0.059 A 
HETATM   28  C   UNK N   1       6.553  -3.053   0.251  0.00  0.00     0.032 A 
HETATM   29  C   UNK N   1       6.566  -0.266  -0.086  0.00  0.00     0.032 A 
HETATM   30  N   UNK N   1       4.186  -0.295  -0.177  0.00  0.00    -0.360 N 
HETATM   31  C   UNK N   1       7.771  -0.963   0.032  0.00  0.00     0.002 A 
HETATM   32  C   UNK N   1       7.765  -2.353   0.196  0.00  0.00     0.002 A 
HETATM   33  C   UNK N   1       3.008  -0.964  -0.156  0.00  0.00     0.144 A 
ATOM     34  HN  UNK N   1       4.190   0.718  -0.295  1.00  0.00     0.165 HD
ENDBRANCH  22  23
ENDBRANCH   5  22
TORSDOF 5
