REMARK  8 active torsions:
REMARK  status: ('A' for Active; 'I' for Inactive)
REMARK    1  A    between atoms: O_2  and  C_3 
REMARK    2  A    between atoms: C_8  and  C_9 
REMARK    3  A    between atoms: C_11  and  N_12 
REMARK    4  A    between atoms: N_12  and  C_13 
REMARK    5  A    between atoms: C_13  and  C_14 
REMARK    6  A    between atoms: C_14  and  O_15 
REMARK    7  A    between atoms: C_23  and  C_24 
REMARK    8  A    between atoms: C_27  and  O_28 
ROOT
HETATM    1  C   UNK N   1       1.118  -0.705  -0.025  0.00  0.00     0.027 A 
HETATM    2  C   UNK N   1       2.429  -1.187  -0.003  0.00  0.00     0.073 A 
HETATM    3  C   UNK N   1       3.705  -0.604  -0.015  0.00  0.00     0.117 A 
HETATM    4  N   UNK N   1       4.794  -1.432   0.001  0.00  0.00    -0.338 N 
ATOM      5  HN  UNK N   1       5.730  -1.025  -0.002  1.00  0.00     0.168 HD
HETATM    6  C   UNK N   1       4.656  -2.793   0.020  0.00  0.00     0.184 A 
HETATM    7  N   UNK N   1       3.416  -3.361   0.005  0.00  0.00    -0.332 N 
ATOM      8  HN  UNK N   1       3.308  -4.375   0.003  1.00  0.00     0.168 HD
HETATM    9  C   UNK N   1       2.332  -2.550  -0.009  0.00  0.00     0.164 A 
HETATM   10  O   UNK N   1       1.084  -2.939  -0.040  0.00  0.00    -0.291 OA
HETATM   11  C   UNK N   1       0.308  -1.870  -0.038  0.00  0.00     0.100 A 
ENDROOT
BRANCH   1  12
HETATM   12  C   UNK N   1       0.661   0.717  -0.053  0.00  0.00    -0.022 A 
HETATM   13  C   UNK N   1       1.382   1.729   0.593  0.00  0.00     0.015 A 
HETATM   14  C   UNK N   1       0.905   3.045   0.613  0.00  0.00     0.037 A 
HETATM   15  C   UNK N   1      -0.300   3.369  -0.021  0.00  0.00     0.068 A 
HETATM   16  C   UNK N   1      -1.005   2.368  -0.702  0.00  0.00     0.037 A 
HETATM   17  C   UNK N   1      -0.523   1.062  -0.718  0.00  0.00     0.015 A 
BRANCH  15  18
HETATM   18  O   UNK N   1      -0.764   4.639   0.045  0.00  0.00    -0.356 OA
HETATM   19  C   UNK N   1      -1.970   5.026  -0.495  0.00  0.00     0.210 C 
ENDBRANCH  15  18
ENDBRANCH   1  12
BRANCH  11  20
HETATM   20  C   UNK N   1      -1.173  -1.987   0.026  0.00  0.00    -0.001 A 
HETATM   21  C   UNK N   1      -1.797  -3.191  -0.328  0.00  0.00     0.017 A 
HETATM   22  C   UNK N   1      -3.194  -3.304  -0.283  0.00  0.00     0.037 A 
HETATM   23  C   UNK N   1      -3.980  -2.216   0.143  0.00  0.00     0.068 A 
HETATM   24  C   UNK N   1      -3.354  -1.038   0.541  0.00  0.00     0.037 A 
HETATM   25  C   UNK N   1      -1.968  -0.930   0.486  0.00  0.00     0.017 A 
BRANCH  23  26
HETATM   26  O   UNK N   1      -5.332  -2.276   0.175  0.00  0.00    -0.356 OA
HETATM   27  C   UNK N   1      -6.050  -3.369  -0.253  0.00  0.00     0.210 C 
ENDBRANCH  23  26
ENDBRANCH  11  20
BRANCH   3  28
HETATM   28  N   UNK N   1       3.878   0.797  -0.091  0.00  0.00    -0.373 N 
HETATM   29  H   UNK N   1       3.081   1.374  -0.126  0.00  0.00     0.161 HD
BRANCH  28  30
HETATM   30  C   UNK N   1       5.182   1.406  -0.120  0.00  0.00     0.147 C 
BRANCH  30  31
HETATM   31  C   UNK N   1       5.170   2.678   0.705  0.00  0.00     0.183 C 
BRANCH  31  32
HETATM   32  O   UNK N   1       4.388   3.645   0.071  0.00  0.00    -0.399 OA
HETATM   33  H   UNK N   1       4.699   4.451  -0.370  0.00  0.00     0.209 HD
ENDBRANCH  31  32
ENDBRANCH  30  31
ENDBRANCH  28  30
ENDBRANCH   3  28
TORSDOF 8
