MODEL 1
REMARK VINA RESULT:      -7.2      0.000      0.000
REMARK  8 active torsions:
REMARK  status: ('A' for Active; 'I' for Inactive)
REMARK    1  A    between atoms: O_2  and  C_3 
REMARK    2  A    between atoms: C_8  and  C_9 
REMARK    3  A    between atoms: C_11  and  N_12 
REMARK    4  A    between atoms: N_12  and  C_13 
REMARK    5  A    between atoms: C_13  and  C_14 
REMARK    6  A    between atoms: C_14  and  O_15 
REMARK    7  A    between atoms: C_23  and  C_24 
REMARK    8  A    between atoms: C_27  and  O_28 
ROOT
HETATM    1  C   UNK N   1      29.758  16.833   6.051  0.00  0.00     0.027 A 
HETATM    2  C   UNK N   1      29.873  17.311   7.358  0.00  0.00     0.073 A 
HETATM    3  C   UNK N   1      30.939  17.618   8.216  0.00  0.00     0.117 A 
HETATM    4  N   UNK N   1      30.648  18.065   9.476  0.00  0.00    -0.338 N 
ATOM      5  HN  UNK N   1      31.411  18.298  10.112  1.00  0.00     0.168 HD
HETATM    6  C   UNK N   1      29.355  18.205   9.902  0.00  0.00     0.184 A 
HETATM    7  N   UNK N   1      28.318  17.882   9.078  0.00  0.00    -0.332 N 
ATOM      8  HN  UNK N   1      27.353  17.969   9.396  1.00  0.00     0.168 HD
HETATM    9  C   UNK N   1      28.596  17.441   7.829  0.00  0.00     0.164 A 
HETATM   10  O   UNK N   1      27.718  17.078   6.930  0.00  0.00    -0.291 OA
HETATM   11  C   UNK N   1      28.360  16.715   5.834  0.00  0.00     0.100 A 
ENDROOT
BRANCH   1  12
HETATM   12  C   UNK N   1      30.855  16.496   5.094  0.00  0.00    -0.022 A 
HETATM   13  C   UNK N   1      31.367  17.449   4.205  0.00  0.00     0.015 A 
HETATM   14  C   UNK N   1      32.349  17.099   3.270  0.00  0.00     0.037 A 
HETATM   15  C   UNK N   1      32.838  15.789   3.217  0.00  0.00     0.068 A 
HETATM   16  C   UNK N   1      32.357  14.842   4.131  0.00  0.00     0.037 A 
HETATM   17  C   UNK N   1      31.381  15.198   5.058  0.00  0.00     0.015 A 
BRANCH  15  18
HETATM   18  O   UNK N   1      33.757  15.461   2.279  0.00  0.00    -0.356 OA
HETATM   19  C   UNK N   1      34.386  14.237   2.240  0.00  0.00     0.210 C 
ENDBRANCH  15  18
ENDBRANCH   1  12
BRANCH  11  20
HETATM   20  C   UNK N   1      27.629  16.338   4.596  0.00  0.00    -0.001 A 
HETATM   21  C   UNK N   1      26.605  17.162   4.109  0.00  0.00     0.017 A 
HETATM   22  C   UNK N   1      25.901  16.806   2.949  0.00  0.00     0.037 A 
HETATM   23  C   UNK N   1      26.236  15.631   2.250  0.00  0.00     0.068 A 
HETATM   24  C   UNK N   1      27.286  14.840   2.709  0.00  0.00     0.037 A 
HETATM   25  C   UNK N   1      27.974  15.195   3.865  0.00  0.00     0.017 A 
BRANCH  23  26
HETATM   26  O   UNK N   1      25.564  15.238   1.142  0.00  0.00    -0.356 OA
HETATM   27  C   UNK N   1      24.428  14.463   1.182  0.00  0.00     0.210 C 
ENDBRANCH  23  26
ENDBRANCH  11  20
BRANCH   3  28
HETATM   28  N   UNK N   1      32.284  17.430   7.822  0.00  0.00    -0.373 N 
HETATM   29  H   UNK N   1      32.471  17.053   6.932  0.00  0.00     0.161 HD
BRANCH  28  30
HETATM   30  C   UNK N   1      33.388  17.772   8.681  0.00  0.00     0.147 C 
BRANCH  30  31
HETATM   31  C   UNK N   1      34.538  18.302   7.848  0.00  0.00     0.183 C 
BRANCH  31  32
HETATM   32  O   UNK N   1      35.285  19.212   8.598  0.00  0.00    -0.399 OA
HETATM   33  H   UNK N   1      35.433  19.197   9.557  0.00  0.00     0.209 HD
ENDBRANCH  31  32
ENDBRANCH  30  31
ENDBRANCH  28  30
ENDBRANCH   3  28
TORSDOF 8
ENDMDL
MODEL 2
REMARK VINA RESULT:      -6.9      2.235      6.588
REMARK  8 active torsions:
REMARK  status: ('A' for Active; 'I' for Inactive)
REMARK    1  A    between atoms: O_2  and  C_3 
REMARK    2  A    between atoms: C_8  and  C_9 
REMARK    3  A    between atoms: C_11  and  N_12 
REMARK    4  A    between atoms: N_12  and  C_13 
REMARK    5  A    between atoms: C_13  and  C_14 
REMARK    6  A    between atoms: C_14  and  O_15 
REMARK    7  A    between atoms: C_23  and  C_24 
REMARK    8  A    between atoms: C_27  and  O_28 
ROOT
HETATM    1  C   UNK N   1      30.821  17.047   5.806  0.00  0.00     0.027 A 
HETATM    2  C   UNK N   1      29.475  17.365   5.616  0.00  0.00     0.073 A 
HETATM    3  C   UNK N   1      28.582  17.315   4.535  0.00  0.00     0.117 A 
HETATM    4  N   UNK N   1      27.298  17.740   4.737  0.00  0.00    -0.338 N 
ATOM      5  HN  UNK N   1      26.633  17.705   3.962  1.00  0.00     0.168 HD
HETATM    6  C   UNK N   1      26.884  18.211   5.953  0.00  0.00     0.184 A 
HETATM    7  N   UNK N   1      27.758  18.285   6.997  0.00  0.00    -0.332 N 
ATOM      8  HN  UNK N   1      27.459  18.651   7.901  1.00  0.00     0.168 HD
HETATM    9  C   UNK N   1      29.031  17.865   6.808  0.00  0.00     0.164 A 
HETATM   10  O   UNK N   1      29.986  17.887   7.701  0.00  0.00    -0.291 OA
HETATM   11  C   UNK N   1      31.084  17.393   7.157  0.00  0.00     0.100 A 
ENDROOT
BRANCH   1  12
HETATM   12  C   UNK N   1      31.785  16.489   4.810  0.00  0.00    -0.022 A 
HETATM   13  C   UNK N   1      32.303  17.276   3.775  0.00  0.00     0.015 A 
HETATM   14  C   UNK N   1      33.153  16.721   2.811  0.00  0.00     0.037 A 
HETATM   15  C   UNK N   1      33.502  15.367   2.874  0.00  0.00     0.068 A 
HETATM   16  C   UNK N   1      33.017  14.584   3.930  0.00  0.00     0.037 A 
HETATM   17  C   UNK N   1      32.174  15.145   4.885  0.00  0.00     0.015 A 
BRANCH  15  18
HETATM   18  O   UNK N   1      34.292  14.840   1.909  0.00  0.00    -0.356 OA
HETATM   19  C   UNK N   1      34.696  13.523   1.907  0.00  0.00     0.210 C 
ENDBRANCH  15  18
ENDBRANCH   1  12
BRANCH  11  20
HETATM   20  C   UNK N   1      32.324  17.198   7.955  0.00  0.00    -0.001 A 
HETATM   21  C   UNK N   1      32.475  16.051   8.746  0.00  0.00     0.017 A 
HETATM   22  C   UNK N   1      33.636  15.867   9.511  0.00  0.00     0.037 A 
HETATM   23  C   UNK N   1      34.671  16.821   9.470  0.00  0.00     0.068 A 
HETATM   24  C   UNK N   1      34.538  17.935   8.645  0.00  0.00     0.037 A 
HETATM   25  C   UNK N   1      33.380  18.115   7.895  0.00  0.00     0.017 A 
BRANCH  23  26
HETATM   26  O   UNK N   1      35.794  16.694  10.214  0.00  0.00    -0.356 OA
HETATM   27  C   UNK N   1      36.288  15.480  10.634  0.00  0.00     0.210 C 
ENDBRANCH  23  26
ENDBRANCH  11  20
BRANCH   3  28
HETATM   28  N   UNK N   1      28.996  16.885   3.253  0.00  0.00    -0.373 N 
HETATM   29  H   UNK N   1      29.692  17.397   2.781  0.00  0.00     0.161 HD
BRANCH  28  30
HETATM   30  C   UNK N   1      28.431  15.724   2.616  0.00  0.00     0.147 C 
BRANCH  30  31
HETATM   31  C   UNK N   1      29.002  14.468   3.246  0.00  0.00     0.183 C 
BRANCH  31  32
HETATM   32  O   UNK N   1      29.934  13.889   2.383  0.00  0.00    -0.399 OA
HETATM   33  H   UNK N   1      30.311  12.997   2.443  0.00  0.00     0.209 HD
ENDBRANCH  31  32
ENDBRANCH  30  31
ENDBRANCH  28  30
ENDBRANCH   3  28
TORSDOF 8
ENDMDL
MODEL 3
REMARK VINA RESULT:      -6.8      2.431      6.551
REMARK  8 active torsions:
REMARK  status: ('A' for Active; 'I' for Inactive)
REMARK    1  A    between atoms: O_2  and  C_3 
REMARK    2  A    between atoms: C_8  and  C_9 
REMARK    3  A    between atoms: C_11  and  N_12 
REMARK    4  A    between atoms: N_12  and  C_13 
REMARK    5  A    between atoms: C_13  and  C_14 
REMARK    6  A    between atoms: C_14  and  O_15 
REMARK    7  A    between atoms: C_23  and  C_24 
REMARK    8  A    between atoms: C_27  and  O_28 
ROOT
HETATM    1  C   UNK N   1      30.908  17.145   6.848  0.00  0.00     0.027 A 
HETATM    2  C   UNK N   1      29.688  17.818   6.952  0.00  0.00     0.073 A 
HETATM    3  C   UNK N   1      28.720  18.271   6.044  0.00  0.00     0.117 A 
HETATM    4  N   UNK N   1      27.625  18.926   6.539  0.00  0.00    -0.338 N 
ATOM      5  HN  UNK N   1      26.908  19.258   5.893  1.00  0.00     0.168 HD
HETATM    6  C   UNK N   1      27.471  19.146   7.881  0.00  0.00     0.184 A 
HETATM    7  N   UNK N   1      28.425  18.730   8.762  0.00  0.00    -0.332 N 
ATOM      8  HN  UNK N   1      28.323  18.906   9.761  1.00  0.00     0.168 HD
HETATM    9  C   UNK N   1      29.511  18.079   8.282  0.00  0.00     0.164 A 
HETATM   10  O   UNK N   1      30.514  17.633   8.993  0.00  0.00    -0.291 OA
HETATM   11  C   UNK N   1      31.379  17.050   8.183  0.00  0.00     0.100 A 
ENDROOT
BRANCH   1  12
HETATM   12  C   UNK N   1      31.584  16.653   5.611  0.00  0.00    -0.022 A 
HETATM   13  C   UNK N   1      31.531  15.305   5.236  0.00  0.00     0.015 A 
HETATM   14  C   UNK N   1      32.226  14.849   4.109  0.00  0.00     0.037 A 
HETATM   15  C   UNK N   1      32.980  15.739   3.336  0.00  0.00     0.068 A 
HETATM   16  C   UNK N   1      33.004  17.096   3.684  0.00  0.00     0.037 A 
HETATM   17  C   UNK N   1      32.309  17.541   4.805  0.00  0.00     0.015 A 
BRANCH  15  18
HETATM   18  O   UNK N   1      33.677  15.270   2.274  0.00  0.00    -0.356 OA
HETATM   19  C   UNK N   1      34.247  14.017   2.246  0.00  0.00     0.210 C 
ENDBRANCH  15  18
ENDBRANCH   1  12
BRANCH  11  20
HETATM   20  C   UNK N   1      32.587  16.358   8.707  0.00  0.00    -0.001 A 
HETATM   21  C   UNK N   1      33.768  17.079   8.927  0.00  0.00     0.017 A 
HETATM   22  C   UNK N   1      34.914  16.430   9.408  0.00  0.00     0.037 A 
HETATM   23  C   UNK N   1      34.880  15.053   9.699  0.00  0.00     0.068 A 
HETATM   24  C   UNK N   1      33.691  14.350   9.527  0.00  0.00     0.037 A 
HETATM   25  C   UNK N   1      32.560  14.998   9.041  0.00  0.00     0.017 A 
BRANCH  23  26
HETATM   26  O   UNK N   1      35.972  14.385  10.140  0.00  0.00    -0.356 OA
HETATM   27  C   UNK N   1      36.185  14.076  11.464  0.00  0.00     0.210 C 
ENDBRANCH  23  26
ENDBRANCH  11  20
BRANCH   3  28
HETATM   28  N   UNK N   1      28.879  18.107   4.649  0.00  0.00    -0.373 N 
HETATM   29  H   UNK N   1      29.666  18.503   4.210  0.00  0.00     0.161 HD
BRANCH  28  30
HETATM   30  C   UNK N   1      27.927  17.380   3.851  0.00  0.00     0.147 C 
BRANCH  30  31
HETATM   31  C   UNK N   1      28.632  16.264   3.105  0.00  0.00     0.183 C 
BRANCH  31  32
HETATM   32  O   UNK N   1      29.749  16.773   2.440  0.00  0.00    -0.399 OA
HETATM   33  H   UNK N   1      30.259  16.339   1.737  0.00  0.00     0.209 HD
ENDBRANCH  31  32
ENDBRANCH  30  31
ENDBRANCH  28  30
ENDBRANCH   3  28
TORSDOF 8
ENDMDL
MODEL 4
REMARK VINA RESULT:      -6.7      2.492      5.861
REMARK  8 active torsions:
REMARK  status: ('A' for Active; 'I' for Inactive)
REMARK    1  A    between atoms: O_2  and  C_3 
REMARK    2  A    between atoms: C_8  and  C_9 
REMARK    3  A    between atoms: C_11  and  N_12 
REMARK    4  A    between atoms: N_12  and  C_13 
REMARK    5  A    between atoms: C_13  and  C_14 
REMARK    6  A    between atoms: C_14  and  O_15 
REMARK    7  A    between atoms: C_23  and  C_24 
REMARK    8  A    between atoms: C_27  and  O_28 
ROOT
HETATM    1  C   UNK N   1      31.072  16.736   6.260  0.00  0.00     0.027 A 
HETATM    2  C   UNK N   1      29.777  17.259   6.309  0.00  0.00     0.073 A 
HETATM    3  C   UNK N   1      29.065  18.073   7.202  0.00  0.00     0.117 A 
HETATM    4  N   UNK N   1      27.763  18.371   6.908  0.00  0.00    -0.338 N 
ATOM      5  HN  UNK N   1      27.231  18.966   7.544  1.00  0.00     0.168 HD
HETATM    6  C   UNK N   1      27.157  17.887   5.780  0.00  0.00     0.184 A 
HETATM    7  N   UNK N   1      27.841  17.074   4.925  0.00  0.00    -0.332 N 
ATOM      8  HN  UNK N   1      27.389  16.698   4.091  1.00  0.00     0.168 HD
HETATM    9  C   UNK N   1      29.131  16.775   5.207  0.00  0.00     0.164 A 
HETATM   10  O   UNK N   1      29.911  16.001   4.498  0.00  0.00    -0.291 OA
HETATM   11  C   UNK N   1      31.097  15.951   5.078  0.00  0.00     0.100 A 
ENDROOT
BRANCH   1  12
HETATM   12  C   UNK N   1      32.182  16.933   7.240  0.00  0.00    -0.022 A 
HETATM   13  C   UNK N   1      33.145  17.933   7.061  0.00  0.00     0.015 A 
HETATM   14  C   UNK N   1      34.216  18.062   7.954  0.00  0.00     0.037 A 
HETATM   15  C   UNK N   1      34.334  17.193   9.045  0.00  0.00     0.068 A 
HETATM   16  C   UNK N   1      33.351  16.216   9.250  0.00  0.00     0.037 A 
HETATM   17  C   UNK N   1      32.288  16.096   8.359  0.00  0.00     0.015 A 
BRANCH  15  18
HETATM   18  O   UNK N   1      35.398  17.308   9.873  0.00  0.00    -0.356 OA
HETATM   19  C   UNK N   1      35.632  16.445  10.920  0.00  0.00     0.210 C 
ENDBRANCH  15  18
ENDBRANCH   1  12
BRANCH  11  20
HETATM   20  C   UNK N   1      32.234  15.223   4.455  0.00  0.00    -0.001 A 
HETATM   21  C   UNK N   1      32.677  14.012   5.006  0.00  0.00     0.017 A 
HETATM   22  C   UNK N   1      33.757  13.327   4.432  0.00  0.00     0.037 A 
HETATM   23  C   UNK N   1      34.391  13.837   3.283  0.00  0.00     0.068 A 
HETATM   24  C   UNK N   1      33.917  15.014   2.709  0.00  0.00     0.037 A 
HETATM   25  C   UNK N   1      32.849  15.693   3.289  0.00  0.00     0.017 A 
BRANCH  23  26
HETATM   26  O   UNK N   1      35.453  13.221   2.715  0.00  0.00    -0.356 OA
HETATM   27  C   UNK N   1      35.992  13.602   1.508  0.00  0.00     0.210 C 
ENDBRANCH  23  26
ENDBRANCH  11  20
BRANCH   3  28
HETATM   28  N   UNK N   1      29.648  18.541   8.402  0.00  0.00    -0.373 N 
HETATM   29  H   UNK N   1      30.511  19.012   8.360  0.00  0.00     0.161 HD
BRANCH  28  30
HETATM   30  C   UNK N   1      29.019  18.349   9.683  0.00  0.00     0.147 C 
BRANCH  30  31
HETATM   31  C   UNK N   1      28.909  16.867   9.981  0.00  0.00     0.183 C 
BRANCH  31  32
HETATM   32  O   UNK N   1      29.728  16.540  11.063  0.00  0.00    -0.399 OA
HETATM   33  H   UNK N   1      29.467  16.079  11.875  0.00  0.00     0.209 HD
ENDBRANCH  31  32
ENDBRANCH  30  31
ENDBRANCH  28  30
ENDBRANCH   3  28
TORSDOF 8
ENDMDL
MODEL 5
REMARK VINA RESULT:      -6.5     12.378     14.813
REMARK  8 active torsions:
REMARK  status: ('A' for Active; 'I' for Inactive)
REMARK    1  A    between atoms: O_2  and  C_3 
REMARK    2  A    between atoms: C_8  and  C_9 
REMARK    3  A    between atoms: C_11  and  N_12 
REMARK    4  A    between atoms: N_12  and  C_13 
REMARK    5  A    between atoms: C_13  and  C_14 
REMARK    6  A    between atoms: C_14  and  O_15 
REMARK    7  A    between atoms: C_23  and  C_24 
REMARK    8  A    between atoms: C_27  and  O_28 
ROOT
HETATM    1  C   UNK N   1      28.693  23.179  -5.590  0.00  0.00     0.027 A 
HETATM    2  C   UNK N   1      29.614  22.140  -5.433  0.00  0.00     0.073 A 
HETATM    3  C   UNK N   1      29.966  21.001  -6.172  0.00  0.00     0.117 A 
HETATM    4  N   UNK N   1      30.941  20.182  -5.671  0.00  0.00    -0.338 N 
ATOM      5  HN  UNK N   1      31.214  19.352  -6.198  1.00  0.00     0.168 HD
HETATM    6  C   UNK N   1      31.558  20.451  -4.480  0.00  0.00     0.184 A 
HETATM    7  N   UNK N   1      31.197  21.545  -3.748  0.00  0.00    -0.332 N 
ATOM      8  HN  UNK N   1      31.643  21.741  -2.852  1.00  0.00     0.168 HD
HETATM    9  C   UNK N   1      30.235  22.362  -4.236  0.00  0.00     0.164 A 
HETATM   10  O   UNK N   1      29.770  23.435  -3.650  0.00  0.00    -0.291 OA
HETATM   11  C   UNK N   1      28.848  23.975  -4.426  0.00  0.00     0.100 A 
ENDROOT
BRANCH   1  12
HETATM   12  C   UNK N   1      27.737  23.398  -6.717  0.00  0.00    -0.022 A 
HETATM   13  C   UNK N   1      28.074  24.198  -7.816  0.00  0.00     0.015 A 
HETATM   14  C   UNK N   1      27.143  24.447  -8.831  0.00  0.00     0.037 A 
HETATM   15  C   UNK N   1      25.860  23.891  -8.765  0.00  0.00     0.068 A 
HETATM   16  C   UNK N   1      25.531  23.058  -7.687  0.00  0.00     0.037 A 
HETATM   17  C   UNK N   1      26.463  22.815  -6.682  0.00  0.00     0.015 A 
BRANCH  15  18
HETATM   18  O   UNK N   1      24.961  24.177  -9.736  0.00  0.00    -0.356 OA
HETATM   19  C   UNK N   1      24.989  25.346 -10.463  0.00  0.00     0.210 C 
ENDBRANCH  15  18
ENDBRANCH   1  12
BRANCH  11  20
HETATM   20  C   UNK N   1      28.197  25.265  -4.074  0.00  0.00    -0.001 A 
HETATM   21  C   UNK N   1      28.901  26.468  -4.221  0.00  0.00     0.017 A 
HETATM   22  C   UNK N   1      28.299  27.687  -3.879  0.00  0.00     0.037 A 
HETATM   23  C   UNK N   1      26.972  27.714  -3.409  0.00  0.00     0.068 A 
HETATM   24  C   UNK N   1      26.259  26.523  -3.311  0.00  0.00     0.037 A 
HETATM   25  C   UNK N   1      26.866  25.316  -3.645  0.00  0.00     0.017 A 
BRANCH  23  26
HETATM   26  O   UNK N   1      26.363  28.867  -3.043  0.00  0.00    -0.356 OA
HETATM   27  C   UNK N   1      26.465  30.036  -3.761  0.00  0.00     0.210 C 
ENDBRANCH  23  26
ENDBRANCH  11  20
BRANCH   3  28
HETATM   28  N   UNK N   1      29.307  20.668  -7.377  0.00  0.00    -0.373 N 
HETATM   29  H   UNK N   1      28.997  21.393  -7.967  0.00  0.00     0.161 HD
BRANCH  28  30
HETATM   30  C   UNK N   1      29.075  19.302  -7.770  0.00  0.00     0.147 C 
BRANCH  30  31
HETATM   31  C   UNK N   1      29.973  18.947  -8.938  0.00  0.00     0.183 C 
BRANCH  31  32
HETATM   32  O   UNK N   1      31.288  18.793  -8.494  0.00  0.00    -0.399 OA
HETATM   33  H   UNK N   1      31.695  17.987  -8.140  0.00  0.00     0.209 HD
ENDBRANCH  31  32
ENDBRANCH  30  31
ENDBRANCH  28  30
ENDBRANCH   3  28
TORSDOF 8
ENDMDL
MODEL 6
REMARK VINA RESULT:      -6.5     12.381     14.572
REMARK  8 active torsions:
REMARK  status: ('A' for Active; 'I' for Inactive)
REMARK    1  A    between atoms: O_2  and  C_3 
REMARK    2  A    between atoms: C_8  and  C_9 
REMARK    3  A    between atoms: C_11  and  N_12 
REMARK    4  A    between atoms: N_12  and  C_13 
REMARK    5  A    between atoms: C_13  and  C_14 
REMARK    6  A    between atoms: C_14  and  O_15 
REMARK    7  A    between atoms: C_23  and  C_24 
REMARK    8  A    between atoms: C_27  and  O_28 
ROOT
HETATM    1  C   UNK N   1      29.377  26.456  -4.139  0.00  0.00     0.027 A 
HETATM    2  C   UNK N   1      29.529  27.768  -3.683  0.00  0.00     0.073 A 
HETATM    3  C   UNK N   1      28.793  28.956  -3.801  0.00  0.00     0.117 A 
HETATM    4  N   UNK N   1      29.287  30.085  -3.207  0.00  0.00    -0.338 N 
ATOM      5  HN  UNK N   1      28.761  30.957  -3.278  1.00  0.00     0.168 HD
HETATM    6  C   UNK N   1      30.470  30.071  -2.520  0.00  0.00     0.184 A 
HETATM    7  N   UNK N   1      31.200  28.922  -2.427  0.00  0.00    -0.332 N 
ATOM      8  HN  UNK N   1      32.091  28.911  -1.930  1.00  0.00     0.168 HD
HETATM    9  C   UNK N   1      30.719  27.800  -3.010  0.00  0.00     0.164 A 
HETATM   10  O   UNK N   1      31.305  26.631  -3.023  0.00  0.00    -0.291 OA
HETATM   11  C   UNK N   1      30.536  25.779  -3.678  0.00  0.00     0.100 A 
ENDROOT
BRANCH   1  12
HETATM   12  C   UNK N   1      28.259  25.889  -4.952  0.00  0.00    -0.022 A 
HETATM   13  C   UNK N   1      27.331  24.999  -4.397  0.00  0.00     0.015 A 
HETATM   14  C   UNK N   1      26.329  24.426  -5.189  0.00  0.00     0.037 A 
HETATM   15  C   UNK N   1      26.237  24.742  -6.550  0.00  0.00     0.068 A 
HETATM   16  C   UNK N   1      27.139  25.662  -7.100  0.00  0.00     0.037 A 
HETATM   17  C   UNK N   1      28.131  26.228  -6.305  0.00  0.00     0.015 A 
BRANCH  15  18
HETATM   18  O   UNK N   1      25.287  24.145  -7.307  0.00  0.00    -0.356 OA
HETATM   19  C   UNK N   1      25.579  23.229  -8.293  0.00  0.00     0.210 C 
ENDBRANCH  15  18
ENDBRANCH   1  12
BRANCH  11  20
HETATM   20  C   UNK N   1      30.887  24.338  -3.782  0.00  0.00    -0.001 A 
HETATM   21  C   UNK N   1      31.780  23.905  -4.772  0.00  0.00     0.017 A 
HETATM   22  C   UNK N   1      32.106  22.545  -4.884  0.00  0.00     0.037 A 
HETATM   23  C   UNK N   1      31.558  21.608  -3.987  0.00  0.00     0.068 A 
HETATM   24  C   UNK N   1      30.710  22.049  -2.975  0.00  0.00     0.037 A 
HETATM   25  C   UNK N   1      30.385  23.398  -2.874  0.00  0.00     0.017 A 
BRANCH  23  26
HETATM   26  O   UNK N   1      31.826  20.285  -4.079  0.00  0.00    -0.356 OA
HETATM   27  C   UNK N   1      33.030  19.787  -4.522  0.00  0.00     0.210 C 
ENDBRANCH  23  26
ENDBRANCH  11  20
BRANCH   3  28
HETATM   28  N   UNK N   1      27.596  29.013  -4.551  0.00  0.00    -0.373 N 
HETATM   29  H   UNK N   1      27.632  28.840  -5.520  0.00  0.00     0.161 HD
BRANCH  28  30
HETATM   30  C   UNK N   1      26.326  29.317  -3.944  0.00  0.00     0.147 C 
BRANCH  30  31
HETATM   31  C   UNK N   1      25.553  28.035  -3.708  0.00  0.00     0.183 C 
BRANCH  31  32
HETATM   32  O   UNK N   1      25.920  27.480  -2.481  0.00  0.00    -0.399 OA
HETATM   33  H   UNK N   1      26.688  27.717  -1.939  0.00  0.00     0.209 HD
ENDBRANCH  31  32
ENDBRANCH  30  31
ENDBRANCH  28  30
ENDBRANCH   3  28
TORSDOF 8
ENDMDL
MODEL 7
REMARK VINA RESULT:      -6.3      5.636     10.134
REMARK  8 active torsions:
REMARK  status: ('A' for Active; 'I' for Inactive)
REMARK    1  A    between atoms: O_2  and  C_3 
REMARK    2  A    between atoms: C_8  and  C_9 
REMARK    3  A    between atoms: C_11  and  N_12 
REMARK    4  A    between atoms: N_12  and  C_13 
REMARK    5  A    between atoms: C_13  and  C_14 
REMARK    6  A    between atoms: C_14  and  O_15 
REMARK    7  A    between atoms: C_23  and  C_24 
REMARK    8  A    between atoms: C_27  and  O_28 
ROOT
HETATM    1  C   UNK N   1      22.823  18.281   4.185  0.00  0.00     0.027 A 
HETATM    2  C   UNK N   1      21.877  18.913   3.374  0.00  0.00     0.073 A 
HETATM    3  C   UNK N   1      20.570  18.621   2.954  0.00  0.00     0.117 A 
HETATM    4  N   UNK N   1      19.947  19.507   2.118  0.00  0.00    -0.338 N 
ATOM      5  HN  UNK N   1      18.995  19.313   1.806  1.00  0.00     0.168 HD
HETATM    6  C   UNK N   1      20.573  20.645   1.689  0.00  0.00     0.184 A 
HETATM    7  N   UNK N   1      21.853  20.917   2.075  0.00  0.00    -0.332 N 
ATOM      8  HN  UNK N   1      22.329  21.756   1.746  1.00  0.00     0.168 HD
HETATM    9  C   UNK N   1      22.477  20.047   2.904  0.00  0.00     0.164 A 
HETATM   10  O   UNK N   1      23.702  20.158   3.350  0.00  0.00    -0.291 OA
HETATM   11  C   UNK N   1      23.960  19.129   4.136  0.00  0.00     0.100 A 
ENDROOT
BRANCH   1  12
HETATM   12  C   UNK N   1      22.685  16.990   4.923  0.00  0.00    -0.022 A 
HETATM   13  C   UNK N   1      22.120  16.937   6.203  0.00  0.00     0.015 A 
HETATM   14  C   UNK N   1      22.059  15.729   6.908  0.00  0.00     0.037 A 
HETATM   15  C   UNK N   1      22.559  14.553   6.338  0.00  0.00     0.068 A 
HETATM   16  C   UNK N   1      23.090  14.593   5.042  0.00  0.00     0.037 A 
HETATM   17  C   UNK N   1      23.145  15.798   4.347  0.00  0.00     0.015 A 
BRANCH  15  18
HETATM   18  O   UNK N   1      22.528  13.403   7.052  0.00  0.00    -0.356 OA
HETATM   19  C   UNK N   1      21.399  12.952   7.698  0.00  0.00     0.210 C 
ENDBRANCH  15  18
ENDBRANCH   1  12
BRANCH  11  20
HETATM   20  C   UNK N   1      25.247  19.020   4.873  0.00  0.00    -0.001 A 
HETATM   21  C   UNK N   1      25.904  17.785   4.956  0.00  0.00     0.017 A 
HETATM   22  C   UNK N   1      27.111  17.672   5.661  0.00  0.00     0.037 A 
HETATM   23  C   UNK N   1      27.685  18.804   6.270  0.00  0.00     0.068 A 
HETATM   24  C   UNK N   1      27.055  20.039   6.144  0.00  0.00     0.037 A 
HETATM   25  C   UNK N   1      25.853  20.142   5.450  0.00  0.00     0.017 A 
BRANCH  23  26
HETATM   26  O   UNK N   1      28.835  18.732   6.982  0.00  0.00    -0.356 OA
HETATM   27  C   UNK N   1      28.868  18.624   8.353  0.00  0.00     0.210 C 
ENDBRANCH  23  26
ENDBRANCH  11  20
BRANCH   3  28
HETATM   28  N   UNK N   1      19.920  17.426   3.336  0.00  0.00    -0.373 N 
HETATM   29  H   UNK N   1      19.411  17.409   4.179  0.00  0.00     0.161 HD
BRANCH  28  30
HETATM   30  C   UNK N   1      19.979  16.233   2.533  0.00  0.00     0.147 C 
BRANCH  30  31
HETATM   31  C   UNK N   1      19.646  15.025   3.387  0.00  0.00     0.183 C 
BRANCH  31  32
HETATM   32  O   UNK N   1      18.779  14.180   2.692  0.00  0.00    -0.399 OA
HETATM   33  H   UNK N   1      17.814  14.252   2.633  0.00  0.00     0.209 HD
ENDBRANCH  31  32
ENDBRANCH  30  31
ENDBRANCH  28  30
ENDBRANCH   3  28
TORSDOF 8
ENDMDL
MODEL 8
REMARK VINA RESULT:      -6.3      2.412      4.549
REMARK  8 active torsions:
REMARK  status: ('A' for Active; 'I' for Inactive)
REMARK    1  A    between atoms: O_2  and  C_3 
REMARK    2  A    between atoms: C_8  and  C_9 
REMARK    3  A    between atoms: C_11  and  N_12 
REMARK    4  A    between atoms: N_12  and  C_13 
REMARK    5  A    between atoms: C_13  and  C_14 
REMARK    6  A    between atoms: C_14  and  O_15 
REMARK    7  A    between atoms: C_23  and  C_24 
REMARK    8  A    between atoms: C_27  and  O_28 
ROOT
HETATM    1  C   UNK N   1      29.393  16.013   5.440  0.00  0.00     0.027 A 
HETATM    2  C   UNK N   1      30.580  15.445   5.908  0.00  0.00     0.073 A 
HETATM    3  C   UNK N   1      31.653  15.889   6.696  0.00  0.00     0.117 A 
HETATM    4  N   UNK N   1      32.681  15.018   6.937  0.00  0.00    -0.338 N 
ATOM      5  HN  UNK N   1      33.467  15.322   7.513  1.00  0.00     0.168 HD
HETATM    6  C   UNK N   1      32.678  13.750   6.424  0.00  0.00     0.184 A 
HETATM    7  N   UNK N   1      31.647  13.327   5.636  0.00  0.00    -0.332 N 
ATOM      8  HN  UNK N   1      31.648  12.388   5.238  1.00  0.00     0.168 HD
HETATM    9  C   UNK N   1      30.625  14.180   5.393  0.00  0.00     0.164 A 
HETATM   10  O   UNK N   1      29.578  13.931   4.650  0.00  0.00    -0.291 OA
HETATM   11  C   UNK N   1      28.795  14.995   4.652  0.00  0.00     0.100 A 
ENDROOT
BRANCH   1  12
HETATM   12  C   UNK N   1      28.871  17.391   5.688  0.00  0.00    -0.022 A 
HETATM   13  C   UNK N   1      28.443  17.792   6.959  0.00  0.00     0.015 A 
HETATM   14  C   UNK N   1      27.896  19.065   7.160  0.00  0.00     0.037 A 
HETATM   15  C   UNK N   1      27.775  19.959   6.090  0.00  0.00     0.068 A 
HETATM   16  C   UNK N   1      28.238  19.576   4.824  0.00  0.00     0.037 A 
HETATM   17  C   UNK N   1      28.782  18.309   4.633  0.00  0.00     0.015 A 
BRANCH  15  18
HETATM   18  O   UNK N   1      27.205  21.169   6.297  0.00  0.00    -0.356 OA
HETATM   19  C   UNK N   1      26.275  21.401   7.286  0.00  0.00     0.210 C 
ENDBRANCH  15  18
ENDBRANCH   1  12
BRANCH  11  20
HETATM   20  C   UNK N   1      27.474  14.987   3.970  0.00  0.00    -0.001 A 
HETATM   21  C   UNK N   1      26.315  14.672   4.691  0.00  0.00     0.017 A 
HETATM   22  C   UNK N   1      25.067  14.649   4.051  0.00  0.00     0.037 A 
HETATM   23  C   UNK N   1      24.966  14.968   2.683  0.00  0.00     0.068 A 
HETATM   24  C   UNK N   1      26.113  15.328   1.981  0.00  0.00     0.037 A 
HETATM   25  C   UNK N   1      27.349  15.340   2.621  0.00  0.00     0.017 A 
BRANCH  23  26
HETATM   26  O   UNK N   1      23.785  14.931   2.023  0.00  0.00    -0.356 OA
HETATM   27  C   UNK N   1      23.592  14.221   0.860  0.00  0.00     0.210 C 
ENDBRANCH  23  26
ENDBRANCH  11  20
BRANCH   3  28
HETATM   28  N   UNK N   1      31.710  17.211   7.193  0.00  0.00    -0.373 N 
HETATM   29  H   UNK N   1      31.193  17.914   6.737  0.00  0.00     0.161 HD
BRANCH  28  30
HETATM   30  C   UNK N   1      32.501  17.562   8.343  0.00  0.00     0.147 C 
BRANCH  30  31
HETATM   31  C   UNK N   1      33.661  18.440   7.917  0.00  0.00     0.183 C 
BRANCH  31  32
HETATM   32  O   UNK N   1      34.444  17.766   6.979  0.00  0.00    -0.399 OA
HETATM   33  H   UNK N   1      34.136  17.159   6.288  0.00  0.00     0.209 HD
ENDBRANCH  31  32
ENDBRANCH  30  31
ENDBRANCH  28  30
ENDBRANCH   3  28
TORSDOF 8
ENDMDL
MODEL 9
REMARK VINA RESULT:      -6.2     11.798     13.561
REMARK  8 active torsions:
REMARK  status: ('A' for Active; 'I' for Inactive)
REMARK    1  A    between atoms: O_2  and  C_3 
REMARK    2  A    between atoms: C_8  and  C_9 
REMARK    3  A    between atoms: C_11  and  N_12 
REMARK    4  A    between atoms: N_12  and  C_13 
REMARK    5  A    between atoms: C_13  and  C_14 
REMARK    6  A    between atoms: C_14  and  O_15 
REMARK    7  A    between atoms: C_23  and  C_24 
REMARK    8  A    between atoms: C_27  and  O_28 
ROOT
HETATM    1  C   UNK N   1      28.767  22.422  -6.306  0.00  0.00     0.027 A 
HETATM    2  C   UNK N   1      27.789  23.379  -6.019  0.00  0.00     0.073 A 
HETATM    3  C   UNK N   1      27.636  24.389  -5.058  0.00  0.00     0.117 A 
HETATM    4  N   UNK N   1      26.494  25.141  -5.088  0.00  0.00    -0.338 N 
ATOM      5  HN  UNK N   1      26.368  25.884  -4.399  1.00  0.00     0.168 HD
HETATM    6  C   UNK N   1      25.516  24.918  -6.018  0.00  0.00     0.184 A 
HETATM    7  N   UNK N   1      25.652  23.919  -6.936  0.00  0.00    -0.332 N 
ATOM      8  HN  UNK N   1      24.919  23.738  -7.622  1.00  0.00     0.168 HD
HETATM    9  C   UNK N   1      26.780  23.170  -6.917  0.00  0.00     0.164 A 
HETATM   10  O   UNK N   1      27.052  22.172  -7.716  0.00  0.00    -0.291 OA
HETATM   11  C   UNK N   1      28.241  21.691  -7.402  0.00  0.00     0.100 A 
ENDROOT
BRANCH   1  12
HETATM   12  C   UNK N   1      30.066  22.196  -5.605  0.00  0.00    -0.022 A 
HETATM   13  C   UNK N   1      31.244  22.824  -6.029  0.00  0.00     0.015 A 
HETATM   14  C   UNK N   1      32.466  22.551  -5.402  0.00  0.00     0.037 A 
HETATM   15  C   UNK N   1      32.525  21.647  -4.335  0.00  0.00     0.068 A 
HETATM   16  C   UNK N   1      31.343  21.046  -3.882  0.00  0.00     0.037 A 
HETATM   17  C   UNK N   1      30.132  21.325  -4.510  0.00  0.00     0.015 A 
BRANCH  15  18
HETATM   18  O   UNK N   1      33.722  21.366  -3.770  0.00  0.00    -0.356 OA
HETATM   19  C   UNK N   1      34.489  20.283  -4.138  0.00  0.00     0.210 C 
ENDBRANCH  15  18
ENDBRANCH   1  12
BRANCH  11  20
HETATM   20  C   UNK N   1      28.873  20.604  -8.198  0.00  0.00    -0.001 A 
HETATM   21  C   UNK N   1      29.191  19.383  -7.588  0.00  0.00     0.017 A 
HETATM   22  C   UNK N   1      29.799  18.359  -8.328  0.00  0.00     0.037 A 
HETATM   23  C   UNK N   1      30.071  18.541  -9.698  0.00  0.00     0.068 A 
HETATM   24  C   UNK N   1      29.709  19.736 -10.312  0.00  0.00     0.037 A 
HETATM   25  C   UNK N   1      29.114  20.751  -9.569  0.00  0.00     0.017 A 
BRANCH  23  26
HETATM   26  O   UNK N   1      30.681  17.587 -10.441  0.00  0.00    -0.356 OA
HETATM   27  C   UNK N   1      31.898  17.772 -11.056  0.00  0.00     0.210 C 
ENDBRANCH  23  26
ENDBRANCH  11  20
BRANCH   3  28
HETATM   28  N   UNK N   1      28.604  24.605  -4.050  0.00  0.00    -0.373 N 
HETATM   29  H   UNK N   1      28.661  23.969  -3.301  0.00  0.00     0.161 HD
BRANCH  28  30
HETATM   30  C   UNK N   1      29.507  25.725  -4.085  0.00  0.00     0.147 C 
BRANCH  30  31
HETATM   31  C   UNK N   1      30.817  25.345  -3.423  0.00  0.00     0.183 C 
BRANCH  31  32
HETATM   32  O   UNK N   1      30.628  24.229  -2.607  0.00  0.00    -0.399 OA
HETATM   33  H   UNK N   1      30.641  23.297  -2.879  0.00  0.00     0.209 HD
ENDBRANCH  31  32
ENDBRANCH  30  31
ENDBRANCH  28  30
ENDBRANCH   3  28
TORSDOF 8
ENDMDL
