MODEL 1
REMARK VINA RESULT:      -7.0      0.000      0.000
REMARK  6 active torsions:
REMARK  status: ('A' for Active; 'I' for Inactive)
REMARK    1  A    between atoms: C_2  and  C_3 
REMARK    2  A    between atoms: N_18  and  C_19 
REMARK    3  A    between atoms: N_18  and  C_26 
REMARK    4  A    between atoms: C_23  and  C_24 
REMARK    5  A    between atoms: C_25  and  C_26 
REMARK    6  A    between atoms: C_25  and  O_27 
ROOT
HETATM    1  C   UNK N   1      29.609  17.992  10.212  0.00  0.00     0.184 A 
HETATM    2  C   UNK N   1      27.957  18.672   6.145  0.00  0.00     0.100 A 
HETATM    3  N   UNK N   1      28.637  18.640   9.517  0.00  0.00    -0.332 N 
ATOM      4  HN  UNK N   1      27.953  19.222  10.000  1.00  0.00     0.168 HD
HETATM    5  C   UNK N   1      28.594  18.498   8.174  0.00  0.00     0.164 A 
HETATM    6  O   UNK N   1      27.712  19.050   7.382  0.00  0.00    -0.291 OA
HETATM    7  C   UNK N   1      29.492  17.730   7.472  0.00  0.00     0.073 A 
HETATM    8  C   UNK N   1      30.532  17.095   8.197  0.00  0.00     0.117 A 
HETATM    9  N   UNK N   1      30.539  17.237   9.555  0.00  0.00    -0.338 N 
ATOM     10  HN  UNK N   1      31.263  16.764  10.097  1.00  0.00     0.168 HD
HETATM   11  C   UNK N   1      29.086  17.824   6.132  0.00  0.00     0.027 A 
ENDROOT
BRANCH   2  12
HETATM   12  C   UNK N   1      27.057  19.046   5.025  0.00  0.00    -0.001 A 
HETATM   13  C   UNK N   1      27.340  20.192   4.268  0.00  0.00     0.014 A 
HETATM   14  C   UNK N   1      26.492  20.581   3.227  0.00  0.00     0.001 A 
HETATM   15  C   UNK N   1      25.343  19.838   2.943  0.00  0.00     0.000 A 
HETATM   16  C   UNK N   1      25.040  18.708   3.703  0.00  0.00     0.001 A 
HETATM   17  C   UNK N   1      25.892  18.320   4.739  0.00  0.00     0.014 A 
ENDBRANCH   2  12
BRANCH  11  18
HETATM   18  C   UNK N   1      29.654  17.172   4.932  0.00  0.00    -0.022 A 
HETATM   19  C   UNK N   1      28.948  16.140   4.295  0.00  0.00     0.012 A 
HETATM   20  C   UNK N   1      29.487  15.490   3.184  0.00  0.00     0.001 A 
HETATM   21  C   UNK N   1      30.746  15.859   2.706  0.00  0.00     0.000 A 
HETATM   22  C   UNK N   1      31.461  16.881   3.337  0.00  0.00     0.001 A 
HETATM   23  C   UNK N   1      30.917  17.539   4.446  0.00  0.00     0.012 A 
ENDBRANCH  11  18
BRANCH   8  24
HETATM   24  N   UNK N   1      31.585  16.352   7.604  0.00  0.00    -0.373 N 
HETATM   25  H   UNK N   1      31.351  15.653   6.952  0.00  0.00     0.161 HD
BRANCH  24  26
HETATM   26  C   UNK N   1      32.976  16.562   7.901  0.00  0.00     0.147 C 
BRANCH  26  27
HETATM   27  C   UNK N   1      33.383  17.942   7.431  0.00  0.00     0.183 C 
BRANCH  27  28
HETATM   28  O   UNK N   1      34.341  17.826   6.424  0.00  0.00    -0.399 OA
HETATM   29  H   UNK N   1      35.227  17.451   6.542  0.00  0.00     0.209 HD
ENDBRANCH  27  28
ENDBRANCH  26  27
ENDBRANCH  24  26
ENDBRANCH   8  24
TORSDOF 6
ENDMDL
MODEL 2
REMARK VINA RESULT:      -6.9      1.950      2.639
REMARK  6 active torsions:
REMARK  status: ('A' for Active; 'I' for Inactive)
REMARK    1  A    between atoms: C_2  and  C_3 
REMARK    2  A    between atoms: N_18  and  C_19 
REMARK    3  A    between atoms: N_18  and  C_26 
REMARK    4  A    between atoms: C_23  and  C_24 
REMARK    5  A    between atoms: C_25  and  C_26 
REMARK    6  A    between atoms: C_25  and  O_27 
ROOT
HETATM    1  C   UNK N   1      29.228  18.170   9.924  0.00  0.00     0.184 A 
HETATM    2  C   UNK N   1      28.622  16.620   5.806  0.00  0.00     0.100 A 
HETATM    3  N   UNK N   1      28.283  17.786   9.025  0.00  0.00    -0.332 N 
ATOM      4  HN  UNK N   1      27.293  17.807   9.269  1.00  0.00     0.168 HD
HETATM    5  C   UNK N   1      28.682  17.375   7.800  0.00  0.00     0.164 A 
HETATM    6  O   UNK N   1      27.890  16.968   6.844  0.00  0.00    -0.291 OA
HETATM    7  C   UNK N   1      30.001  17.330   7.417  0.00  0.00     0.073 A 
HETATM    8  C   UNK N   1      30.978  17.777   8.343  0.00  0.00     0.117 A 
HETATM    9  N   UNK N   1      30.550  18.166   9.580  0.00  0.00    -0.338 N 
ATOM     10  HN  UNK N   1      31.240  18.463  10.270  1.00  0.00     0.168 HD
HETATM   11  C   UNK N   1      29.985  16.827   6.107  0.00  0.00     0.027 A 
ENDROOT
BRANCH   2  12
HETATM   12  C   UNK N   1      28.015  16.010   4.596  0.00  0.00    -0.001 A 
HETATM   13  C   UNK N   1      27.094  16.749   3.840  0.00  0.00     0.014 A 
HETATM   14  C   UNK N   1      26.487  16.186   2.713  0.00  0.00     0.001 A 
HETATM   15  C   UNK N   1      26.782  14.872   2.340  0.00  0.00     0.000 A 
HETATM   16  C   UNK N   1      27.680  14.119   3.098  0.00  0.00     0.001 A 
HETATM   17  C   UNK N   1      28.288  14.686   4.219  0.00  0.00     0.014 A 
ENDBRANCH   2  12
BRANCH  11  18
HETATM   18  C   UNK N   1      31.117  16.526   5.205  0.00  0.00    -0.022 A 
HETATM   19  C   UNK N   1      31.808  15.311   5.329  0.00  0.00     0.012 A 
HETATM   20  C   UNK N   1      32.901  15.026   4.510  0.00  0.00     0.001 A 
HETATM   21  C   UNK N   1      33.323  15.964   3.564  0.00  0.00     0.000 A 
HETATM   22  C   UNK N   1      32.647  17.181   3.436  0.00  0.00     0.001 A 
HETATM   23  C   UNK N   1      31.545  17.462   4.252  0.00  0.00     0.012 A 
ENDBRANCH  11  18
BRANCH   8  24
HETATM   24  N   UNK N   1      32.364  17.880   8.059  0.00  0.00    -0.373 N 
HETATM   25  H   UNK N   1      32.683  18.684   7.588  0.00  0.00     0.161 HD
BRANCH  24  26
HETATM   26  C   UNK N   1      33.329  16.878   8.419  0.00  0.00     0.147 C 
BRANCH  26  27
HETATM   27  C   UNK N   1      34.453  16.882   7.405  0.00  0.00     0.183 C 
BRANCH  27  28
HETATM   28  O   UNK N   1      34.284  17.951   6.527  0.00  0.00    -0.399 OA
HETATM   29  H   UNK N   1      34.169  18.876   6.795  0.00  0.00     0.209 HD
ENDBRANCH  27  28
ENDBRANCH  26  27
ENDBRANCH  24  26
ENDBRANCH   8  24
TORSDOF 6
ENDMDL
MODEL 3
REMARK VINA RESULT:      -6.8      9.842     14.121
REMARK  6 active torsions:
REMARK  status: ('A' for Active; 'I' for Inactive)
REMARK    1  A    between atoms: C_2  and  C_3 
REMARK    2  A    between atoms: N_18  and  C_19 
REMARK    3  A    between atoms: N_18  and  C_26 
REMARK    4  A    between atoms: C_23  and  C_24 
REMARK    5  A    between atoms: C_25  and  C_26 
REMARK    6  A    between atoms: C_25  and  O_27 
ROOT
HETATM    1  C   UNK N   1      34.237  10.620  11.597  0.00  0.00     0.184 A 
HETATM    2  C   UNK N   1      35.250  10.501  15.920  0.00  0.00     0.100 A 
HETATM    3  N   UNK N   1      34.364   9.796  12.672  0.00  0.00    -0.332 N 
ATOM      4  HN  UNK N   1      34.175   8.798  12.587  1.00  0.00     0.168 HD
HETATM    5  C   UNK N   1      34.747  10.327  13.854  0.00  0.00     0.164 A 
HETATM    6  O   UNK N   1      34.898   9.661  14.969  0.00  0.00    -0.291 OA
HETATM    7  C   UNK N   1      35.019  11.663  14.024  0.00  0.00     0.073 A 
HETATM    8  C   UNK N   1      34.930  12.508  12.888  0.00  0.00     0.117 A 
HETATM    9  N   UNK N   1      34.520  11.951  11.711  0.00  0.00    -0.338 N 
ATOM     10  HN  UNK N   1      34.423  12.548  10.889  1.00  0.00     0.168 HD
HETATM   11  C   UNK N   1      35.345  11.801  15.381  0.00  0.00     0.027 A 
ENDROOT
BRANCH   2  12
HETATM   12  C   UNK N   1      35.390  10.062  17.332  0.00  0.00    -0.001 A 
HETATM   13  C   UNK N   1      36.662  10.037  17.922  0.00  0.00     0.014 A 
HETATM   14  C   UNK N   1      36.824   9.600  19.241  0.00  0.00     0.001 A 
HETATM   15  C   UNK N   1      35.718   9.168  19.977  0.00  0.00     0.000 A 
HETATM   16  C   UNK N   1      34.450   9.167  19.393  0.00  0.00     0.001 A 
HETATM   17  C   UNK N   1      34.292   9.609  18.078  0.00  0.00     0.014 A 
ENDBRANCH   2  12
BRANCH  11  18
HETATM   18  C   UNK N   1      35.687  13.022  16.144  0.00  0.00    -0.022 A 
HETATM   19  C   UNK N   1      36.725  13.857  15.701  0.00  0.00     0.012 A 
HETATM   20  C   UNK N   1      37.083  14.993  16.428  0.00  0.00     0.001 A 
HETATM   21  C   UNK N   1      36.414  15.298  17.615  0.00  0.00     0.000 A 
HETATM   22  C   UNK N   1      35.383  14.469  18.069  0.00  0.00     0.001 A 
HETATM   23  C   UNK N   1      35.018  13.335  17.335  0.00  0.00     0.012 A 
ENDBRANCH  11  18
BRANCH   8  24
HETATM   24  N   UNK N   1      35.273  13.885  12.885  0.00  0.00    -0.373 N 
HETATM   25  H   UNK N   1      35.103  14.408  13.701  0.00  0.00     0.161 HD
BRANCH  24  26
HETATM   26  C   UNK N   1      35.853  14.560  11.756  0.00  0.00     0.147 C 
BRANCH  26  27
HETATM   27  C   UNK N   1      34.825  15.490  11.149  0.00  0.00     0.183 C 
BRANCH  27  28
HETATM   28  O   UNK N   1      33.559  14.918  11.257  0.00  0.00    -0.399 OA
HETATM   29  H   UNK N   1      33.371  13.969  11.186  0.00  0.00     0.209 HD
ENDBRANCH  27  28
ENDBRANCH  26  27
ENDBRANCH  24  26
ENDBRANCH   8  24
TORSDOF 6
ENDMDL
MODEL 4
REMARK VINA RESULT:      -6.8      5.874      9.044
REMARK  6 active torsions:
REMARK  status: ('A' for Active; 'I' for Inactive)
REMARK    1  A    between atoms: C_2  and  C_3 
REMARK    2  A    between atoms: N_18  and  C_19 
REMARK    3  A    between atoms: N_18  and  C_26 
REMARK    4  A    between atoms: C_23  and  C_24 
REMARK    5  A    between atoms: C_25  and  C_26 
REMARK    6  A    between atoms: C_25  and  O_27 
ROOT
HETATM    1  C   UNK N   1      20.259  20.950   1.597  0.00  0.00     0.184 A 
HETATM    2  C   UNK N   1      23.974  19.805   3.747  0.00  0.00     0.100 A 
HETATM    3  N   UNK N   1      21.501  21.380   1.948  0.00  0.00    -0.332 N 
ATOM      4  HN  UNK N   1      21.832  22.301   1.662  1.00  0.00     0.168 HD
HETATM    5  C   UNK N   1      22.287  20.562   2.683  0.00  0.00     0.164 A 
HETATM    6  O   UNK N   1      23.502  20.837   3.080  0.00  0.00    -0.291 OA
HETATM    7  C   UNK N   1      21.890  19.314   3.098  0.00  0.00     0.073 A 
HETATM    8  C   UNK N   1      20.577  18.891   2.769  0.00  0.00     0.117 A 
HETATM    9  N   UNK N   1      19.811  19.726   2.008  0.00  0.00    -0.338 N 
ATOM     10  HN  UNK N   1      18.874  19.428   1.737  1.00  0.00     0.168 HD
HETATM   11  C   UNK N   1      22.991  18.793   3.795  0.00  0.00     0.027 A 
ENDROOT
BRANCH   2  12
HETATM   12  C   UNK N   1      25.376  19.769   4.234  0.00  0.00    -0.001 A 
HETATM   13  C   UNK N   1      25.753  20.588   5.307  0.00  0.00     0.014 A 
HETATM   14  C   UNK N   1      27.074  20.593   5.766  0.00  0.00     0.001 A 
HETATM   15  C   UNK N   1      28.036  19.793   5.144  0.00  0.00     0.000 A 
HETATM   16  C   UNK N   1      27.677  18.991   4.060  0.00  0.00     0.001 A 
HETATM   17  C   UNK N   1      26.356  18.984   3.609  0.00  0.00     0.014 A 
ENDBRANCH   2  12
BRANCH  11  18
HETATM   18  C   UNK N   1      23.156  17.468   4.431  0.00  0.00    -0.022 A 
HETATM   19  C   UNK N   1      23.741  16.414   3.713  0.00  0.00     0.012 A 
HETATM   20  C   UNK N   1      23.871  15.148   4.286  0.00  0.00     0.001 A 
HETATM   21  C   UNK N   1      23.403  14.921   5.582  0.00  0.00     0.000 A 
HETATM   22  C   UNK N   1      22.812  15.962   6.304  0.00  0.00     0.001 A 
HETATM   23  C   UNK N   1      22.690  17.233   5.733  0.00  0.00     0.012 A 
ENDBRANCH  11  18
BRANCH   8  24
HETATM   24  N   UNK N   1      19.994  17.675   3.208  0.00  0.00    -0.373 N 
HETATM   25  H   UNK N   1      19.408  17.699   3.999  0.00  0.00     0.161 HD
BRANCH  24  26
HETATM   26  C   UNK N   1      20.209  16.408   2.564  0.00  0.00     0.147 C 
BRANCH  26  27
HETATM   27  C   UNK N   1      20.214  16.606   1.064  0.00  0.00     0.183 C 
BRANCH  27  28
HETATM   28  O   UNK N   1      18.946  17.002   0.643  0.00  0.00    -0.399 OA
HETATM   29  H   UNK N   1      18.142  16.466   0.724  0.00  0.00     0.209 HD
ENDBRANCH  27  28
ENDBRANCH  26  27
ENDBRANCH  24  26
ENDBRANCH   8  24
TORSDOF 6
ENDMDL
MODEL 5
REMARK VINA RESULT:      -6.5      2.513      5.757
REMARK  6 active torsions:
REMARK  status: ('A' for Active; 'I' for Inactive)
REMARK    1  A    between atoms: C_2  and  C_3 
REMARK    2  A    between atoms: N_18  and  C_19 
REMARK    3  A    between atoms: N_18  and  C_26 
REMARK    4  A    between atoms: C_23  and  C_24 
REMARK    5  A    between atoms: C_25  and  C_26 
REMARK    6  A    between atoms: C_25  and  O_27 
ROOT
HETATM    1  C   UNK N   1      26.907  19.038   6.224  0.00  0.00     0.184 A 
HETATM    2  C   UNK N   1      30.884  17.387   7.316  0.00  0.00     0.100 A 
HETATM    3  N   UNK N   1      27.778  18.866   7.253  0.00  0.00    -0.332 N 
ATOM      4  HN  UNK N   1      27.555  19.211   8.187  1.00  0.00     0.168 HD
HETATM    5  C   UNK N   1      28.946  18.228   7.016  0.00  0.00     0.164 A 
HETATM    6  O   UNK N   1      29.880  18.004   7.903  0.00  0.00    -0.291 OA
HETATM    7  C   UNK N   1      29.296  17.739   5.780  0.00  0.00     0.073 A 
HETATM    8  C   UNK N   1      28.363  17.880   4.722  0.00  0.00     0.117 A 
HETATM    9  N   UNK N   1      27.200  18.547   4.983  0.00  0.00    -0.338 N 
ATOM     10  HN  UNK N   1      26.529  18.683   4.227  1.00  0.00     0.168 HD
HETATM   11  C   UNK N   1      30.575  17.187   5.953  0.00  0.00     0.027 A 
ENDROOT
BRANCH   2  12
HETATM   12  C   UNK N   1      32.147  17.093   8.040  0.00  0.00    -0.001 A 
HETATM   13  C   UNK N   1      33.205  18.011   7.977  0.00  0.00     0.014 A 
HETATM   14  C   UNK N   1      34.414  17.744   8.627  0.00  0.00     0.001 A 
HETATM   15  C   UNK N   1      34.584  16.549   9.330  0.00  0.00     0.000 A 
HETATM   16  C   UNK N   1      33.545  15.618   9.381  0.00  0.00     0.001 A 
HETATM   17  C   UNK N   1      32.337  15.890   8.736  0.00  0.00     0.014 A 
ENDBRANCH   2  12
BRANCH  11  18
HETATM   18  C   UNK N   1      31.465  16.554   4.956  0.00  0.00    -0.022 A 
HETATM   19  C   UNK N   1      31.705  15.172   5.009  0.00  0.00     0.012 A 
HETATM   20  C   UNK N   1      32.571  14.565   4.098  0.00  0.00     0.001 A 
HETATM   21  C   UNK N   1      33.216  15.339   3.131  0.00  0.00     0.000 A 
HETATM   22  C   UNK N   1      32.989  16.718   3.074  0.00  0.00     0.001 A 
HETATM   23  C   UNK N   1      32.114  17.325   3.982  0.00  0.00     0.012 A 
ENDBRANCH  11  18
BRANCH   8  24
HETATM   24  N   UNK N   1      28.540  17.343   3.421  0.00  0.00    -0.373 N 
HETATM   25  H   UNK N   1      29.035  17.879   2.760  0.00  0.00     0.161 HD
BRANCH  24  26
HETATM   26  C   UNK N   1      28.035  16.061   3.011  0.00  0.00     0.147 C 
BRANCH  26  27
HETATM   27  C   UNK N   1      29.150  15.272   2.358  0.00  0.00     0.183 C 
BRANCH  27  28
HETATM   28  O   UNK N   1      29.158  13.973   2.862  0.00  0.00    -0.399 OA
HETATM   29  H   UNK N   1      29.650  13.686   3.647  0.00  0.00     0.209 HD
ENDBRANCH  27  28
ENDBRANCH  26  27
ENDBRANCH  24  26
ENDBRANCH   8  24
TORSDOF 6
ENDMDL
MODEL 6
REMARK VINA RESULT:      -6.5     12.831     15.777
REMARK  6 active torsions:
REMARK  status: ('A' for Active; 'I' for Inactive)
REMARK    1  A    between atoms: C_2  and  C_3 
REMARK    2  A    between atoms: N_18  and  C_19 
REMARK    3  A    between atoms: N_18  and  C_26 
REMARK    4  A    between atoms: C_23  and  C_24 
REMARK    5  A    between atoms: C_25  and  C_26 
REMARK    6  A    between atoms: C_25  and  O_27 
ROOT
HETATM    1  C   UNK N   1      25.590  24.465 -10.585  0.00  0.00     0.184 A 
HETATM    2  C   UNK N   1      26.349  26.757  -6.857  0.00  0.00     0.100 A 
HETATM    3  N   UNK N   1      25.495  25.696 -10.016  0.00  0.00    -0.332 N 
ATOM      4  HN  UNK N   1      25.133  26.489 -10.547  1.00  0.00     0.168 HD
HETATM    5  C   UNK N   1      25.890  25.850  -8.733  0.00  0.00     0.164 A 
HETATM    6  O   UNK N   1      25.868  26.973  -8.064  0.00  0.00    -0.291 OA
HETATM    7  C   UNK N   1      26.381  24.818  -7.970  0.00  0.00     0.073 A 
HETATM    8  C   UNK N   1      26.432  23.526  -8.555  0.00  0.00     0.117 A 
HETATM    9  N   UNK N   1      26.048  23.403  -9.859  0.00  0.00    -0.338 N 
ATOM     10  HN  UNK N   1      26.104  22.487 -10.306  1.00  0.00     0.168 HD
HETATM   11  C   UNK N   1      26.697  25.396  -6.731  0.00  0.00     0.027 A 
ENDROOT
BRANCH   2  12
HETATM   12  C   UNK N   1      26.556  27.867  -5.893  0.00  0.00    -0.001 A 
HETATM   13  C   UNK N   1      27.580  28.796  -6.122  0.00  0.00     0.014 A 
HETATM   14  C   UNK N   1      27.814  29.834  -5.214  0.00  0.00     0.001 A 
HETATM   15  C   UNK N   1      27.036  29.942  -4.058  0.00  0.00     0.000 A 
HETATM   16  C   UNK N   1      26.028  29.010  -3.808  0.00  0.00     0.001 A 
HETATM   17  C   UNK N   1      25.795  27.979  -4.720  0.00  0.00     0.014 A 
ENDBRANCH   2  12
BRANCH  11  18
HETATM   18  C   UNK N   1      27.299  24.772  -5.533  0.00  0.00    -0.022 A 
HETATM   19  C   UNK N   1      26.502  24.498  -4.410  0.00  0.00     0.012 A 
HETATM   20  C   UNK N   1      27.061  23.943  -3.259  0.00  0.00     0.001 A 
HETATM   21  C   UNK N   1      28.430  23.668  -3.214  0.00  0.00     0.000 A 
HETATM   22  C   UNK N   1      29.235  23.944  -4.324  0.00  0.00     0.001 A 
HETATM   23  C   UNK N   1      28.672  24.492  -5.482  0.00  0.00     0.012 A 
ENDBRANCH  11  18
BRANCH   8  24
HETATM   24  N   UNK N   1      26.821  22.349  -7.865  0.00  0.00    -0.373 N 
HETATM   25  H   UNK N   1      27.689  22.349  -7.400  0.00  0.00     0.161 HD
BRANCH  24  26
HETATM   26  C   UNK N   1      26.021  21.156  -7.807  0.00  0.00     0.147 C 
BRANCH  26  27
HETATM   27  C   UNK N   1      24.705  21.471  -7.130  0.00  0.00     0.183 C 
BRANCH  27  28
HETATM   28  O   UNK N   1      23.777  21.883  -8.085  0.00  0.00    -0.399 OA
HETATM   29  H   UNK N   1      23.823  22.716  -8.580  0.00  0.00     0.209 HD
ENDBRANCH  27  28
ENDBRANCH  26  27
ENDBRANCH  24  26
ENDBRANCH   8  24
TORSDOF 6
ENDMDL
MODEL 7
REMARK VINA RESULT:      -6.4      4.253      6.512
REMARK  6 active torsions:
REMARK  status: ('A' for Active; 'I' for Inactive)
REMARK    1  A    between atoms: C_2  and  C_3 
REMARK    2  A    between atoms: N_18  and  C_19 
REMARK    3  A    between atoms: N_18  and  C_26 
REMARK    4  A    between atoms: C_23  and  C_24 
REMARK    5  A    between atoms: C_25  and  C_26 
REMARK    6  A    between atoms: C_25  and  O_27 
ROOT
HETATM    1  C   UNK N   1      35.823  16.359  11.436  0.00  0.00     0.184 A 
HETATM    2  C   UNK N   1      33.740  16.599   7.520  0.00  0.00     0.100 A 
HETATM    3  N   UNK N   1      34.920  17.077  10.716  0.00  0.00    -0.332 N 
ATOM      4  HN  UNK N   1      34.467  17.897  11.119  1.00  0.00     0.168 HD
HETATM    5  C   UNK N   1      34.635  16.683   9.455  0.00  0.00     0.164 A 
HETATM    6  O   UNK N   1      33.783  17.267   8.654  0.00  0.00    -0.291 OA
HETATM    7  C   UNK N   1      35.218  15.590   8.861  0.00  0.00     0.073 A 
HETATM    8  C   UNK N   1      36.194  14.873   9.601  0.00  0.00     0.117 A 
HETATM    9  N   UNK N   1      36.447  15.279  10.879  0.00  0.00    -0.338 N 
ATOM     10  HN  UNK N   1      37.125  14.759  11.437  1.00  0.00     0.168 HD
HETATM   11  C   UNK N   1      34.636  15.511   7.587  0.00  0.00     0.027 A 
ENDROOT
BRANCH   2  12
HETATM   12  C   UNK N   1      32.779  16.953   6.445  0.00  0.00    -0.001 A 
HETATM   13  C   UNK N   1      31.406  16.766   6.660  0.00  0.00     0.014 A 
HETATM   14  C   UNK N   1      30.483  17.065   5.652  0.00  0.00     0.001 A 
HETATM   15  C   UNK N   1      30.926  17.538   4.414  0.00  0.00     0.000 A 
HETATM   16  C   UNK N   1      32.291  17.707   4.181  0.00  0.00     0.001 A 
HETATM   17  C   UNK N   1      33.209  17.412   5.191  0.00  0.00     0.014 A 
ENDBRANCH   2  12
BRANCH  11  18
HETATM   18  C   UNK N   1      34.849  14.509   6.519  0.00  0.00    -0.022 A 
HETATM   19  C   UNK N   1      35.946  14.632   5.652  0.00  0.00     0.012 A 
HETATM   20  C   UNK N   1      36.141  13.717   4.617  0.00  0.00     0.001 A 
HETATM   21  C   UNK N   1      35.231  12.673   4.432  0.00  0.00     0.000 A 
HETATM   22  C   UNK N   1      34.131  12.545   5.286  0.00  0.00     0.001 A 
HETATM   23  C   UNK N   1      33.940  13.459   6.329  0.00  0.00     0.012 A 
ENDBRANCH  11  18
BRANCH   8  24
HETATM   24  N   UNK N   1      36.949  13.787   9.089  0.00  0.00    -0.373 N 
HETATM   25  H   UNK N   1      36.488  13.126   8.523  0.00  0.00     0.161 HD
BRANCH  24  26
HETATM   26  C   UNK N   1      38.349  13.594   9.352  0.00  0.00     0.147 C 
BRANCH  26  27
HETATM   27  C   UNK N   1      38.518  12.486  10.368  0.00  0.00     0.183 C 
BRANCH  27  28
HETATM   28  O   UNK N   1      38.306  12.993  11.649  0.00  0.00    -0.399 OA
HETATM   29  H   UNK N   1      38.173  13.930  11.860  0.00  0.00     0.209 HD
ENDBRANCH  27  28
ENDBRANCH  26  27
ENDBRANCH  24  26
ENDBRANCH   8  24
TORSDOF 6
ENDMDL
MODEL 8
REMARK VINA RESULT:      -6.4     11.180     14.041
REMARK  6 active torsions:
REMARK  status: ('A' for Active; 'I' for Inactive)
REMARK    1  A    between atoms: C_2  and  C_3 
REMARK    2  A    between atoms: N_18  and  C_19 
REMARK    3  A    between atoms: N_18  and  C_26 
REMARK    4  A    between atoms: C_23  and  C_24 
REMARK    5  A    between atoms: C_25  and  C_26 
REMARK    6  A    between atoms: C_25  and  O_27 
ROOT
HETATM    1  C   UNK N   1      30.821  29.497  -3.001  0.00  0.00     0.184 A 
HETATM    2  C   UNK N   1      30.134  25.169  -3.731  0.00  0.00     0.100 A 
HETATM    3  N   UNK N   1      31.328  28.254  -2.785  0.00  0.00    -0.332 N 
ATOM      4  HN  UNK N   1      32.205  28.131  -2.278  1.00  0.00     0.168 HD
HETATM    5  C   UNK N   1      30.648  27.185  -3.254  0.00  0.00     0.164 A 
HETATM    6  O   UNK N   1      31.021  25.937  -3.132  0.00  0.00    -0.291 OA
HETATM    7  C   UNK N   1      29.461  27.292  -3.939  0.00  0.00     0.073 A 
HETATM    8  C   UNK N   1      28.914  28.588  -4.120  0.00  0.00     0.117 A 
HETATM    9  N   UNK N   1      29.632  29.652  -3.655  0.00  0.00    -0.338 N 
ATOM     10  HN  UNK N   1      29.268  30.594  -3.800  1.00  0.00     0.168 HD
HETATM   11  C   UNK N   1      29.109  25.975  -4.270  0.00  0.00     0.027 A 
ENDROOT
BRANCH   2  12
HETATM   12  C   UNK N   1      30.336  23.704  -3.859  0.00  0.00    -0.001 A 
HETATM   13  C   UNK N   1      30.860  22.984  -2.777  0.00  0.00     0.014 A 
HETATM   14  C   UNK N   1      31.087  21.608  -2.883  0.00  0.00     0.001 A 
HETATM   15  C   UNK N   1      30.808  20.941  -4.079  0.00  0.00     0.000 A 
HETATM   16  C   UNK N   1      30.307  21.652  -5.170  0.00  0.00     0.001 A 
HETATM   17  C   UNK N   1      30.077  23.024  -5.059  0.00  0.00     0.014 A 
ENDBRANCH   2  12
BRANCH  11  18
HETATM   18  C   UNK N   1      27.948  25.481  -5.043  0.00  0.00    -0.022 A 
HETATM   19  C   UNK N   1      26.932  24.759  -4.397  0.00  0.00     0.012 A 
HETATM   20  C   UNK N   1      25.849  24.256  -5.118  0.00  0.00     0.001 A 
HETATM   21  C   UNK N   1      25.778  24.459  -6.498  0.00  0.00     0.000 A 
HETATM   22  C   UNK N   1      26.788  25.172  -7.153  0.00  0.00     0.001 A 
HETATM   23  C   UNK N   1      27.869  25.684  -6.428  0.00  0.00     0.012 A 
ENDBRANCH  11  18
BRANCH   8  24
HETATM   24  N   UNK N   1      27.654  28.850  -4.718  0.00  0.00    -0.373 N 
HETATM   25  H   UNK N   1      27.572  28.741  -5.693  0.00  0.00     0.161 HD
BRANCH  24  26
HETATM   26  C   UNK N   1      26.492  29.266  -3.982  0.00  0.00     0.147 C 
BRANCH  26  27
HETATM   27  C   UNK N   1      25.605  28.066  -3.731  0.00  0.00     0.183 C 
BRANCH  27  28
HETATM   28  O   UNK N   1      25.931  27.495  -2.502  0.00  0.00    -0.399 OA
HETATM   29  H   UNK N   1      26.627  26.835  -2.364  0.00  0.00     0.209 HD
ENDBRANCH  27  28
ENDBRANCH  26  27
ENDBRANCH  24  26
ENDBRANCH   8  24
TORSDOF 6
ENDMDL
MODEL 9
REMARK VINA RESULT:      -6.3      2.862      4.471
REMARK  6 active torsions:
REMARK  status: ('A' for Active; 'I' for Inactive)
REMARK    1  A    between atoms: C_2  and  C_3 
REMARK    2  A    between atoms: N_18  and  C_19 
REMARK    3  A    between atoms: N_18  and  C_26 
REMARK    4  A    between atoms: C_23  and  C_24 
REMARK    5  A    between atoms: C_25  and  C_26 
REMARK    6  A    between atoms: C_25  and  O_27 
ROOT
HETATM    1  C   UNK N   1      28.907  12.342   4.225  0.00  0.00     0.184 A 
HETATM    2  C   UNK N   1      28.821  16.582   5.547  0.00  0.00     0.100 A 
HETATM    3  N   UNK N   1      28.124  13.452   4.302  0.00  0.00    -0.332 N 
ATOM      4  HN  UNK N   1      27.169  13.440   3.946  1.00  0.00     0.168 HD
HETATM    5  C   UNK N   1      28.638  14.571   4.859  0.00  0.00     0.164 A 
HETATM    6  O   UNK N   1      28.008  15.709   4.988  0.00  0.00    -0.291 OA
HETATM    7  C   UNK N   1      29.917  14.642   5.357  0.00  0.00     0.073 A 
HETATM    8  C   UNK N   1      30.711  13.468   5.317  0.00  0.00     0.117 A 
HETATM    9  N   UNK N   1      30.176  12.358   4.729  0.00  0.00    -0.338 N 
ATOM     10  HN  UNK N   1      30.743  11.511   4.665  1.00  0.00     0.168 HD
HETATM   11  C   UNK N   1      30.061  15.963   5.809  0.00  0.00     0.027 A 
ENDROOT
BRANCH   2  12
HETATM   12  C   UNK N   1      28.430  18.004   5.726  0.00  0.00    -0.001 A 
HETATM   13  C   UNK N   1      28.117  18.475   7.009  0.00  0.00     0.014 A 
HETATM   14  C   UNK N   1      27.719  19.802   7.199  0.00  0.00     0.001 A 
HETATM   15  C   UNK N   1      27.613  20.666   6.106  0.00  0.00     0.000 A 
HETATM   16  C   UNK N   1      27.900  20.202   4.822  0.00  0.00     0.001 A 
HETATM   17  C   UNK N   1      28.302  18.878   4.637  0.00  0.00     0.014 A 
ENDBRANCH   2  12
BRANCH  11  18
HETATM   18  C   UNK N   1      31.241  16.626   6.404  0.00  0.00    -0.022 A 
HETATM   19  C   UNK N   1      31.287  16.867   7.786  0.00  0.00     0.012 A 
HETATM   20  C   UNK N   1      32.377  17.524   8.358  0.00  0.00     0.001 A 
HETATM   21  C   UNK N   1      33.429  17.958   7.550  0.00  0.00     0.000 A 
HETATM   22  C   UNK N   1      33.391  17.729   6.171  0.00  0.00     0.001 A 
HETATM   23  C   UNK N   1      32.302  17.062   5.598  0.00  0.00     0.012 A 
ENDBRANCH  11  18
BRANCH   8  24
HETATM   24  N   UNK N   1      32.010  13.359   5.878  0.00  0.00    -0.373 N 
HETATM   25  H   UNK N   1      32.086  13.164   6.839  0.00  0.00     0.161 HD
BRANCH  24  26
HETATM   26  C   UNK N   1      33.222  13.520   5.121  0.00  0.00     0.147 C 
BRANCH  26  27
HETATM   27  C   UNK N   1      34.335  13.956   6.049  0.00  0.00     0.183 C 
BRANCH  27  28
HETATM   28  O   UNK N   1      33.798  14.305   7.287  0.00  0.00    -0.399 OA
HETATM   29  H   UNK N   1      34.082  13.937   8.138  0.00  0.00     0.209 HD
ENDBRANCH  27  28
ENDBRANCH  26  27
ENDBRANCH  24  26
ENDBRANCH   8  24
TORSDOF 6
ENDMDL
