MODEL 1
REMARK VINA RESULT:      -6.8      0.000      0.000
REMARK  11 active torsions:
REMARK  status: ('A' for Active; 'I' for Inactive)
REMARK    1  A    between atoms: C_1  and  O_8 
REMARK    2  A    between atoms: C_4  and  N_21 
REMARK    3  A    between atoms: P_7  and  O_8 
REMARK    4  A    between atoms: P_7  and  O_9 
REMARK    5  A    between atoms: P_7  and  C_11 
REMARK    6  A    between atoms: C_11  and  C_12 
REMARK    7  A    between atoms: C_12  and  C_13 
REMARK    8  A    between atoms: C_13  and  C_14 
REMARK       I    between atoms: C_14  and  N_15 
REMARK    9  A    between atoms: N_15  and  C_17 
REMARK   10  A    between atoms: C_17  and  C_18 
REMARK   11  A    between atoms: C_18  and  O_19 
ROOT
HETATM    1  P   UNK N   1      35.256  12.370  12.001  0.00  0.00     0.243 P 
HETATM    2  O   UNK N   1      34.541  13.650  12.496  0.00  0.00    -0.653 OA
ENDROOT
BRANCH   1   3
HETATM    3  O   UNK N   1      36.284  11.962  13.320  0.00  0.00    -0.276 OA
BRANCH   3   4
HETATM    4  C   UNK N   1      36.115  12.469  14.559  0.00  0.00     0.079 A 
HETATM    5  C   UNK N   1      36.798  13.635  14.917  0.00  0.00     0.040 A 
HETATM    6  C   UNK N   1      36.574  14.224  16.165  0.00  0.00     0.039 A 
HETATM    7  C   UNK N   1      35.676  13.639  17.073  0.00  0.00     0.103 A 
HETATM    8  C   UNK N   1      35.021  12.452  16.723  0.00  0.00     0.039 A 
HETATM    9  C   UNK N   1      35.234  11.875  15.474  0.00  0.00     0.040 A 
BRANCH   7  10
HETATM   10  N   UNK N   1      35.412  14.247  18.329  0.00  0.00    -0.116 N 
HETATM   11  O   UNK N   1      35.511  15.430  18.460  0.00  0.00    -0.532 OA
HETATM   12  O   UNK N   1      35.022  13.513  19.349  0.00  0.00    -0.532 OA
ENDBRANCH   7  10
ENDBRANCH   3   4
ENDBRANCH   1   3
BRANCH   1  13
HETATM   13  O   UNK N   1      34.014  11.157  11.995  0.00  0.00    -0.329 OA
HETATM   14  H   UNK N   1      33.172  10.679  12.037  0.00  0.00     0.220 HD
ENDBRANCH   1  13
BRANCH   1  15
HETATM   15  C   UNK N   1      36.120  12.618  10.352  0.00  0.00     0.126 C 
BRANCH  15  16
HETATM   16  C   UNK N   1      36.767  13.989  10.098  0.00  0.00     0.021 C 
BRANCH  16  17
HETATM   17  C   UNK N   1      35.876  15.058   9.472  0.00  0.00     0.103 C 
BRANCH  17  18
HETATM   18  C   UNK N   1      35.674  16.194  10.441  0.00  0.00     0.218 C 
HETATM   19  N   UNK N   1      34.796  17.195  10.191  0.00  0.00    -0.351 N 
HETATM   20  H   UNK N   1      34.700  17.908  10.862  0.00  0.00     0.163 HD
HETATM   21  O   UNK N   1      36.312  16.216  11.478  0.00  0.00    -0.274 OA
BRANCH  19  22
HETATM   22  C   UNK N   1      33.992  17.272   8.995  0.00  0.00     0.232 C 
BRANCH  22  23
HETATM   23  C   UNK N   1      34.587  18.255   8.042  0.00  0.00     0.158 C 
HETATM   24  O   UNK N   1      34.424  18.119   6.840  0.00  0.00    -0.649 OA
BRANCH  23  25
HETATM   25  O   UNK N   1      35.302  19.296   8.508  0.00  0.00    -0.775 OA
HETATM   26  H   UNK N   1      35.359  20.110   8.048  0.00  0.00     0.167 HD
ENDBRANCH  23  25
ENDBRANCH  22  23
ENDBRANCH  19  22
ENDBRANCH  17  18
ENDBRANCH  16  17
ENDBRANCH  15  16
ENDBRANCH   1  15
TORSDOF 11
ENDMDL
MODEL 2
REMARK VINA RESULT:      -6.6     18.528     23.174
REMARK  11 active torsions:
REMARK  status: ('A' for Active; 'I' for Inactive)
REMARK    1  A    between atoms: C_1  and  O_8 
REMARK    2  A    between atoms: C_4  and  N_21 
REMARK    3  A    between atoms: P_7  and  O_8 
REMARK    4  A    between atoms: P_7  and  O_9 
REMARK    5  A    between atoms: P_7  and  C_11 
REMARK    6  A    between atoms: C_11  and  C_12 
REMARK    7  A    between atoms: C_12  and  C_13 
REMARK    8  A    between atoms: C_13  and  C_14 
REMARK       I    between atoms: C_14  and  N_15 
REMARK    9  A    between atoms: N_15  and  C_17 
REMARK   10  A    between atoms: C_17  and  C_18 
REMARK   11  A    between atoms: C_18  and  O_19 
ROOT
HETATM    1  P   UNK N   1      26.019  24.204  -7.720  0.00  0.00     0.243 P 
HETATM    2  O   UNK N   1      27.208  23.961  -8.679  0.00  0.00    -0.653 OA
ENDROOT
BRANCH   1   3
HETATM    3  O   UNK N   1      25.731  25.894  -7.874  0.00  0.00    -0.276 OA
BRANCH   3   4
HETATM    4  C   UNK N   1      25.919  26.760  -6.857  0.00  0.00     0.079 A 
HETATM    5  C   UNK N   1      24.933  26.884  -5.876  0.00  0.00     0.040 A 
HETATM    6  C   UNK N   1      25.144  27.712  -4.769  0.00  0.00     0.039 A 
HETATM    7  C   UNK N   1      26.340  28.439  -4.647  0.00  0.00     0.103 A 
HETATM    8  C   UNK N   1      27.310  28.339  -5.651  0.00  0.00     0.039 A 
HETATM    9  C   UNK N   1      27.105  27.501  -6.744  0.00  0.00     0.040 A 
BRANCH   7  10
HETATM   10  N   UNK N   1      26.582  29.256  -3.511  0.00  0.00    -0.116 N 
HETATM   11  O   UNK N   1      26.373  30.431  -3.556  0.00  0.00    -0.532 OA
HETATM   12  O   UNK N   1      27.006  28.718  -2.387  0.00  0.00    -0.532 OA
ENDBRANCH   7  10
ENDBRANCH   3   4
ENDBRANCH   1   3
BRANCH   1  13
HETATM   13  O   UNK N   1      24.671  23.437  -8.502  0.00  0.00    -0.329 OA
HETATM   14  H   UNK N   1      23.801  23.221  -8.870  0.00  0.00     0.220 HD
ENDBRANCH   1  13
BRANCH   1  15
HETATM   15  C   UNK N   1      26.363  23.600  -5.975  0.00  0.00     0.126 C 
BRANCH  15  16
HETATM   16  C   UNK N   1      27.832  23.562  -5.523  0.00  0.00     0.021 C 
BRANCH  16  17
HETATM   17  C   UNK N   1      28.229  24.536  -4.418  0.00  0.00     0.103 C 
BRANCH  17  18
HETATM   18  C   UNK N   1      28.058  23.886  -3.069  0.00  0.00     0.218 C 
HETATM   19  N   UNK N   1      29.104  23.338  -2.406  0.00  0.00    -0.351 N 
HETATM   20  H   UNK N   1      28.935  22.933  -1.525  0.00  0.00     0.163 HD
HETATM   21  O   UNK N   1      26.953  23.854  -2.557  0.00  0.00    -0.274 OA
BRANCH  19  22
HETATM   22  C   UNK N   1      30.452  23.315  -2.919  0.00  0.00     0.232 C 
BRANCH  22  23
HETATM   23  C   UNK N   1      30.965  21.914  -2.948  0.00  0.00     0.158 C 
HETATM   24  O   UNK N   1      30.449  21.088  -3.683  0.00  0.00    -0.649 OA
BRANCH  23  25
HETATM   25  O   UNK N   1      32.001  21.560  -2.165  0.00  0.00    -0.775 OA
HETATM   26  H   UNK N   1      32.585  22.191  -1.793  0.00  0.00     0.167 HD
ENDBRANCH  23  25
ENDBRANCH  22  23
ENDBRANCH  19  22
ENDBRANCH  17  18
ENDBRANCH  16  17
ENDBRANCH  15  16
ENDBRANCH   1  15
TORSDOF 11
ENDMDL
MODEL 3
REMARK VINA RESULT:      -6.6     14.003     17.867
REMARK  11 active torsions:
REMARK  status: ('A' for Active; 'I' for Inactive)
REMARK    1  A    between atoms: C_1  and  O_8 
REMARK    2  A    between atoms: C_4  and  N_21 
REMARK    3  A    between atoms: P_7  and  O_8 
REMARK    4  A    between atoms: P_7  and  O_9 
REMARK    5  A    between atoms: P_7  and  C_11 
REMARK    6  A    between atoms: C_11  and  C_12 
REMARK    7  A    between atoms: C_12  and  C_13 
REMARK    8  A    between atoms: C_13  and  C_14 
REMARK       I    between atoms: C_14  and  N_15 
REMARK    9  A    between atoms: N_15  and  C_17 
REMARK   10  A    between atoms: C_17  and  C_18 
REMARK   11  A    between atoms: C_18  and  O_19 
ROOT
HETATM    1  P   UNK N   1      19.735  15.511   6.018  0.00  0.00     0.243 P 
HETATM    2  O   UNK N   1      19.712  13.966   6.111  0.00  0.00    -0.653 OA
ENDROOT
BRANCH   1   3
HETATM    3  O   UNK N   1      20.529  15.800   4.518  0.00  0.00    -0.276 OA
BRANCH   3   4
HETATM    4  C   UNK N   1      20.700  17.038   4.011  0.00  0.00     0.079 A 
HETATM    5  C   UNK N   1      21.556  17.929   4.663  0.00  0.00     0.040 A 
HETATM    6  C   UNK N   1      21.813  19.187   4.109  0.00  0.00     0.039 A 
HETATM    7  C   UNK N   1      21.198  19.570   2.906  0.00  0.00     0.103 A 
HETATM    8  C   UNK N   1      20.313  18.687   2.275  0.00  0.00     0.039 A 
HETATM    9  C   UNK N   1      20.071  17.428   2.819  0.00  0.00     0.040 A 
BRANCH   7  10
HETATM   10  N   UNK N   1      21.478  20.830   2.314  0.00  0.00    -0.116 N 
HETATM   11  O   UNK N   1      22.418  21.472   2.676  0.00  0.00    -0.532 OA
HETATM   12  O   UNK N   1      20.722  21.285   1.338  0.00  0.00    -0.532 OA
ENDBRANCH   7  10
ENDBRANCH   3   4
ENDBRANCH   1   3
BRANCH   1  13
HETATM   13  O   UNK N   1      18.077  15.952   5.752  0.00  0.00    -0.329 OA
HETATM   14  H   UNK N   1      17.257  16.402   5.498  0.00  0.00     0.220 HD
ENDBRANCH   1  13
BRANCH   1  15
HETATM   15  C   UNK N   1      20.531  16.312   7.519  0.00  0.00     0.126 C 
BRANCH  15  16
HETATM   16  C   UNK N   1      20.372  15.590   8.867  0.00  0.00     0.021 C 
BRANCH  16  17
HETATM   17  C   UNK N   1      21.420  14.533   9.200  0.00  0.00     0.103 C 
BRANCH  17  18
HETATM   18  C   UNK N   1      20.809  13.449  10.049  0.00  0.00     0.218 C 
HETATM   19  N   UNK N   1      21.562  12.471  10.606  0.00  0.00    -0.351 N 
HETATM   20  H   UNK N   1      21.110  11.792  11.157  0.00  0.00     0.163 HD
HETATM   21  O   UNK N   1      19.606  13.450  10.246  0.00  0.00    -0.274 OA
BRANCH  19  22
HETATM   22  C   UNK N   1      22.992  12.369  10.437  0.00  0.00     0.232 C 
BRANCH  22  23
HETATM   23  C   UNK N   1      23.644  12.089  11.750  0.00  0.00     0.158 C 
HETATM   24  O   UNK N   1      22.970  11.749  12.709  0.00  0.00    -0.649 OA
BRANCH  23  25
HETATM   25  O   UNK N   1      24.978  12.210  11.877  0.00  0.00    -0.775 OA
HETATM   26  H   UNK N   1      25.439  12.980  11.609  0.00  0.00     0.167 HD
ENDBRANCH  23  25
ENDBRANCH  22  23
ENDBRANCH  19  22
ENDBRANCH  17  18
ENDBRANCH  16  17
ENDBRANCH  15  16
ENDBRANCH   1  15
TORSDOF 11
ENDMDL
MODEL 4
REMARK VINA RESULT:      -6.5      1.617      2.397
REMARK  11 active torsions:
REMARK  status: ('A' for Active; 'I' for Inactive)
REMARK    1  A    between atoms: C_1  and  O_8 
REMARK    2  A    between atoms: C_4  and  N_21 
REMARK    3  A    between atoms: P_7  and  O_8 
REMARK    4  A    between atoms: P_7  and  O_9 
REMARK    5  A    between atoms: P_7  and  C_11 
REMARK    6  A    between atoms: C_11  and  C_12 
REMARK    7  A    between atoms: C_12  and  C_13 
REMARK    8  A    between atoms: C_13  and  C_14 
REMARK       I    between atoms: C_14  and  N_15 
REMARK    9  A    between atoms: N_15  and  C_17 
REMARK   10  A    between atoms: C_17  and  C_18 
REMARK   11  A    between atoms: C_18  and  O_19 
ROOT
HETATM    1  P   UNK N   1      35.775  12.468  12.677  0.00  0.00     0.243 P 
HETATM    2  O   UNK N   1      36.571  11.208  13.091  0.00  0.00    -0.653 OA
ENDROOT
BRANCH   1   3
HETATM    3  O   UNK N   1      34.511  12.533  13.844  0.00  0.00    -0.276 OA
BRANCH   3   4
HETATM    4  C   UNK N   1      34.695  12.190  15.136  0.00  0.00     0.079 A 
HETATM    5  C   UNK N   1      34.568  10.850  15.510  0.00  0.00     0.040 A 
HETATM    6  C   UNK N   1      34.836  10.461  16.826  0.00  0.00     0.039 A 
HETATM    7  C   UNK N   1      35.217  11.416  17.783  0.00  0.00     0.103 A 
HETATM    8  C   UNK N   1      35.308  12.763  17.411  0.00  0.00     0.039 A 
HETATM    9  C   UNK N   1      35.055  13.147  16.096  0.00  0.00     0.040 A 
BRANCH   7  10
HETATM   10  N   UNK N   1      35.527  11.030  19.114  0.00  0.00    -0.116 N 
HETATM   11  O   UNK N   1      35.639  11.853  19.972  0.00  0.00    -0.532 OA
HETATM   12  O   UNK N   1      35.660   9.756  19.418  0.00  0.00    -0.532 OA
ENDBRANCH   7  10
ENDBRANCH   3   4
ENDBRANCH   1   3
BRANCH   1  13
HETATM   13  O   UNK N   1      36.828  13.792  13.068  0.00  0.00    -0.329 OA
HETATM   14  H   UNK N   1      37.382  14.587  13.044  0.00  0.00     0.220 HD
ENDBRANCH   1  13
BRANCH   1  15
HETATM   15  C   UNK N   1      35.215  12.413  10.885  0.00  0.00     0.126 C 
BRANCH  15  16
HETATM   16  C   UNK N   1      35.134  13.751  10.133  0.00  0.00     0.021 C 
BRANCH  16  17
HETATM   17  C   UNK N   1      34.267  14.836  10.765  0.00  0.00     0.103 C 
BRANCH  17  18
HETATM   18  C   UNK N   1      35.082  16.081  10.994  0.00  0.00     0.218 C 
HETATM   19  N   UNK N   1      34.957  17.171  10.199  0.00  0.00    -0.351 N 
HETATM   20  H   UNK N   1      35.510  17.959  10.400  0.00  0.00     0.163 HD
HETATM   21  O   UNK N   1      35.873  16.116  11.920  0.00  0.00    -0.274 OA
BRANCH  19  22
HETATM   22  C   UNK N   1      34.057  17.239   9.073  0.00  0.00     0.232 C 
BRANCH  22  23
HETATM   23  C   UNK N   1      34.570  18.215   8.067  0.00  0.00     0.158 C 
HETATM   24  O   UNK N   1      35.114  19.244   8.433  0.00  0.00    -0.649 OA
BRANCH  23  25
HETATM   25  O   UNK N   1      34.435  17.958   6.753  0.00  0.00    -0.775 OA
HETATM   26  H   UNK N   1      33.623  17.682   6.377  0.00  0.00     0.167 HD
ENDBRANCH  23  25
ENDBRANCH  22  23
ENDBRANCH  19  22
ENDBRANCH  17  18
ENDBRANCH  16  17
ENDBRANCH  15  16
ENDBRANCH   1  15
TORSDOF 11
ENDMDL
MODEL 5
REMARK VINA RESULT:      -6.3      7.081     12.203
REMARK  11 active torsions:
REMARK  status: ('A' for Active; 'I' for Inactive)
REMARK    1  A    between atoms: C_1  and  O_8 
REMARK    2  A    between atoms: C_4  and  N_21 
REMARK    3  A    between atoms: P_7  and  O_8 
REMARK    4  A    between atoms: P_7  and  O_9 
REMARK    5  A    between atoms: P_7  and  C_11 
REMARK    6  A    between atoms: C_11  and  C_12 
REMARK    7  A    between atoms: C_12  and  C_13 
REMARK    8  A    between atoms: C_13  and  C_14 
REMARK       I    between atoms: C_14  and  N_15 
REMARK    9  A    between atoms: N_15  and  C_17 
REMARK   10  A    between atoms: C_17  and  C_18 
REMARK   11  A    between atoms: C_18  and  O_19 
ROOT
HETATM    1  P   UNK N   1      28.632  18.143   7.895  0.00  0.00     0.243 P 
HETATM    2  O   UNK N   1      27.929  16.788   8.152  0.00  0.00    -0.653 OA
ENDROOT
BRANCH   1   3
HETATM    3  O   UNK N   1      28.668  18.243   6.177  0.00  0.00    -0.276 OA
BRANCH   3   4
HETATM    4  C   UNK N   1      27.663  18.783   5.457  0.00  0.00     0.079 A 
HETATM    5  C   UNK N   1      27.830  20.053   4.900  0.00  0.00     0.040 A 
HETATM    6  C   UNK N   1      26.835  20.597   4.081  0.00  0.00     0.039 A 
HETATM    7  C   UNK N   1      25.655  19.877   3.829  0.00  0.00     0.103 A 
HETATM    8  C   UNK N   1      25.478  18.620   4.419  0.00  0.00     0.039 A 
HETATM    9  C   UNK N   1      26.476  18.074   5.222  0.00  0.00     0.040 A 
BRANCH   7  10
HETATM   10  N   UNK N   1      24.652  20.401   2.971  0.00  0.00    -0.116 N 
HETATM   11  O   UNK N   1      24.938  20.803   1.883  0.00  0.00    -0.532 OA
HETATM   12  O   UNK N   1      23.394  20.416   3.356  0.00  0.00    -0.532 OA
ENDBRANCH   7  10
ENDBRANCH   3   4
ENDBRANCH   1   3
BRANCH   1  13
HETATM   13  O   UNK N   1      27.472  19.333   8.399  0.00  0.00    -0.329 OA
HETATM   14  H   UNK N   1      26.709  19.926   8.468  0.00  0.00     0.220 HD
ENDBRANCH   1  13
BRANCH   1  15
HETATM   15  C   UNK N   1      30.301  18.263   8.746  0.00  0.00     0.126 C 
BRANCH  15  16
HETATM   16  C   UNK N   1      31.493  17.581   8.053  0.00  0.00     0.021 C 
BRANCH  16  17
HETATM   17  C   UNK N   1      32.868  18.190   8.309  0.00  0.00     0.103 C 
BRANCH  17  18
HETATM   18  C   UNK N   1      33.898  17.526   7.432  0.00  0.00     0.218 C 
HETATM   19  N   UNK N   1      34.560  16.412   7.829  0.00  0.00    -0.351 N 
HETATM   20  H   UNK N   1      35.217  16.018   7.212  0.00  0.00     0.163 HD
HETATM   21  O   UNK N   1      34.142  17.997   6.335  0.00  0.00    -0.274 OA
BRANCH  19  22
HETATM   22  C   UNK N   1      34.354  15.773   9.106  0.00  0.00     0.232 C 
BRANCH  22  23
HETATM   23  C   UNK N   1      35.434  16.171  10.057  0.00  0.00     0.158 C 
HETATM   24  O   UNK N   1      36.196  15.329  10.504  0.00  0.00    -0.649 OA
BRANCH  23  25
HETATM   25  O   UNK N   1      35.571  17.459  10.419  0.00  0.00    -0.775 OA
HETATM   26  H   UNK N   1      35.002  18.132  10.101  0.00  0.00     0.167 HD
ENDBRANCH  23  25
ENDBRANCH  22  23
ENDBRANCH  19  22
ENDBRANCH  17  18
ENDBRANCH  16  17
ENDBRANCH  15  16
ENDBRANCH   1  15
TORSDOF 11
ENDMDL
MODEL 6
REMARK VINA RESULT:      -6.3     18.924     22.869
REMARK  11 active torsions:
REMARK  status: ('A' for Active; 'I' for Inactive)
REMARK    1  A    between atoms: C_1  and  O_8 
REMARK    2  A    between atoms: C_4  and  N_21 
REMARK    3  A    between atoms: P_7  and  O_8 
REMARK    4  A    between atoms: P_7  and  O_9 
REMARK    5  A    between atoms: P_7  and  C_11 
REMARK    6  A    between atoms: C_11  and  C_12 
REMARK    7  A    between atoms: C_12  and  C_13 
REMARK    8  A    between atoms: C_13  and  C_14 
REMARK       I    between atoms: C_14  and  N_15 
REMARK    9  A    between atoms: N_15  and  C_17 
REMARK   10  A    between atoms: C_17  and  C_18 
REMARK   11  A    between atoms: C_18  and  O_19 
ROOT
HETATM    1  P   UNK N   1      25.913  23.566  -7.520  0.00  0.00     0.243 P 
HETATM    2  O   UNK N   1      24.761  23.633  -8.551  0.00  0.00    -0.653 OA
ENDROOT
BRANCH   1   3
HETATM    3  O   UNK N   1      25.168  24.109  -6.067  0.00  0.00    -0.276 OA
BRANCH   3   4
HETATM    4  C   UNK N   1      25.542  25.241  -5.435  0.00  0.00     0.079 A 
HETATM    5  C   UNK N   1      25.091  26.472  -5.918  0.00  0.00     0.040 A 
HETATM    6  C   UNK N   1      25.397  27.651  -5.230  0.00  0.00     0.039 A 
HETATM    7  C   UNK N   1      26.175  27.606  -4.062  0.00  0.00     0.103 A 
HETATM    8  C   UNK N   1      26.655  26.374  -3.602  0.00  0.00     0.039 A 
HETATM    9  C   UNK N   1      26.336  25.199  -4.279  0.00  0.00     0.040 A 
BRANCH   7  10
HETATM   10  N   UNK N   1      26.464  28.791  -3.334  0.00  0.00    -0.116 N 
HETATM   11  O   UNK N   1      26.116  29.855  -3.750  0.00  0.00    -0.532 OA
HETATM   12  O   UNK N   1      27.087  28.721  -2.177  0.00  0.00    -0.532 OA
ENDBRANCH   7  10
ENDBRANCH   3   4
ENDBRANCH   1   3
BRANCH   1  13
HETATM   13  O   UNK N   1      26.186  21.867  -7.288  0.00  0.00    -0.329 OA
HETATM   14  H   UNK N   1      26.335  20.917  -7.410  0.00  0.00     0.220 HD
ENDBRANCH   1  13
BRANCH   1  15
HETATM   15  C   UNK N   1      27.426  24.538  -8.063  0.00  0.00     0.126 C 
BRANCH  15  16
HETATM   16  C   UNK N   1      28.800  23.989  -7.644  0.00  0.00     0.021 C 
BRANCH  16  17
HETATM   17  C   UNK N   1      29.072  23.907  -6.146  0.00  0.00     0.103 C 
BRANCH  17  18
HETATM   18  C   UNK N   1      29.415  22.492  -5.759  0.00  0.00     0.218 C 
HETATM   19  N   UNK N   1      30.119  22.211  -4.637  0.00  0.00    -0.351 N 
HETATM   20  H   UNK N   1      30.308  21.268  -4.430  0.00  0.00     0.163 HD
HETATM   21  O   UNK N   1      29.048  21.573  -6.470  0.00  0.00    -0.274 OA
BRANCH  19  22
HETATM   22  C   UNK N   1      30.606  23.219  -3.726  0.00  0.00     0.232 C 
BRANCH  22  23
HETATM   23  C   UNK N   1      29.892  23.116  -2.419  0.00  0.00     0.158 C 
HETATM   24  O   UNK N   1      30.526  22.997  -1.383  0.00  0.00    -0.649 OA
BRANCH  23  25
HETATM   25  O   UNK N   1      28.548  23.157  -2.382  0.00  0.00    -0.775 OA
HETATM   26  H   UNK N   1      28.031  23.335  -3.143  0.00  0.00     0.167 HD
ENDBRANCH  23  25
ENDBRANCH  22  23
ENDBRANCH  19  22
ENDBRANCH  17  18
ENDBRANCH  16  17
ENDBRANCH  15  16
ENDBRANCH   1  15
TORSDOF 11
ENDMDL
MODEL 7
REMARK VINA RESULT:      -6.2     13.983     15.811
REMARK  11 active torsions:
REMARK  status: ('A' for Active; 'I' for Inactive)
REMARK    1  A    between atoms: C_1  and  O_8 
REMARK    2  A    between atoms: C_4  and  N_21 
REMARK    3  A    between atoms: P_7  and  O_8 
REMARK    4  A    between atoms: P_7  and  O_9 
REMARK    5  A    between atoms: P_7  and  C_11 
REMARK    6  A    between atoms: C_11  and  C_12 
REMARK    7  A    between atoms: C_12  and  C_13 
REMARK    8  A    between atoms: C_13  and  C_14 
REMARK       I    between atoms: C_14  and  N_15 
REMARK    9  A    between atoms: N_15  and  C_17 
REMARK   10  A    between atoms: C_17  and  C_18 
REMARK   11  A    between atoms: C_18  and  O_19 
ROOT
HETATM    1  P   UNK N   1      20.127  15.779   7.102  0.00  0.00     0.243 P 
HETATM    2  O   UNK N   1      21.392  16.424   7.718  0.00  0.00    -0.653 OA
ENDROOT
BRANCH   1   3
HETATM    3  O   UNK N   1      20.435  14.092   7.253  0.00  0.00    -0.276 OA
BRANCH   3   4
HETATM    4  C   UNK N   1      21.134  13.569   8.281  0.00  0.00     0.079 A 
HETATM    5  C   UNK N   1      22.474  13.223   8.088  0.00  0.00     0.040 A 
HETATM    6  C   UNK N   1      23.240  12.758   9.162  0.00  0.00     0.039 A 
HETATM    7  C   UNK N   1      22.663  12.619  10.435  0.00  0.00     0.103 A 
HETATM    8  C   UNK N   1      21.311  12.933  10.615  0.00  0.00     0.039 A 
HETATM    9  C   UNK N   1      20.553  13.411   9.548  0.00  0.00     0.040 A 
BRANCH   7  10
HETATM   10  N   UNK N   1      23.439  12.182  11.541  0.00  0.00    -0.116 N 
HETATM   11  O   UNK N   1      22.910  11.887  12.571  0.00  0.00    -0.532 OA
HETATM   12  O   UNK N   1      24.745  12.066  11.428  0.00  0.00    -0.532 OA
ENDBRANCH   7  10
ENDBRANCH   3   4
ENDBRANCH   1   3
BRANCH   1  13
HETATM   13  O   UNK N   1      18.867  16.120   8.248  0.00  0.00    -0.329 OA
HETATM   14  H   UNK N   1      18.111  16.494   8.724  0.00  0.00     0.220 HD
ENDBRANCH   1  13
BRANCH   1  15
HETATM   15  C   UNK N   1      19.787  16.384   5.357  0.00  0.00     0.126 C 
BRANCH  15  16
HETATM   16  C   UNK N   1      20.803  15.999   4.270  0.00  0.00     0.021 C 
BRANCH  16  17
HETATM   17  C   UNK N   1      21.333  17.135   3.400  0.00  0.00     0.103 C 
BRANCH  17  18
HETATM   18  C   UNK N   1      20.446  17.321   2.196  0.00  0.00     0.218 C 
HETATM   19  N   UNK N   1      19.907  18.525   1.888  0.00  0.00    -0.351 N 
HETATM   20  H   UNK N   1      19.341  18.589   1.086  0.00  0.00     0.163 HD
HETATM   21  O   UNK N   1      20.207  16.367   1.476  0.00  0.00    -0.274 OA
BRANCH  19  22
HETATM   22  C   UNK N   1      20.118  19.718   2.671  0.00  0.00     0.232 C 
BRANCH  22  23
HETATM   23  C   UNK N   1      21.041  20.645   1.951  0.00  0.00     0.158 C 
HETATM   24  O   UNK N   1      21.257  20.492   0.760  0.00  0.00    -0.649 OA
BRANCH  23  25
HETATM   25  O   UNK N   1      21.633  21.655   2.616  0.00  0.00    -0.775 OA
HETATM   26  H   UNK N   1      21.292  22.528   2.607  0.00  0.00     0.167 HD
ENDBRANCH  23  25
ENDBRANCH  22  23
ENDBRANCH  19  22
ENDBRANCH  17  18
ENDBRANCH  16  17
ENDBRANCH  15  16
ENDBRANCH   1  15
TORSDOF 11
ENDMDL
MODEL 8
REMARK VINA RESULT:      -6.1      8.049     12.149
REMARK  11 active torsions:
REMARK  status: ('A' for Active; 'I' for Inactive)
REMARK    1  A    between atoms: C_1  and  O_8 
REMARK    2  A    between atoms: C_4  and  N_21 
REMARK    3  A    between atoms: P_7  and  O_8 
REMARK    4  A    between atoms: P_7  and  O_9 
REMARK    5  A    between atoms: P_7  and  C_11 
REMARK    6  A    between atoms: C_11  and  C_12 
REMARK    7  A    between atoms: C_12  and  C_13 
REMARK    8  A    between atoms: C_13  and  C_14 
REMARK       I    between atoms: C_14  and  N_15 
REMARK    9  A    between atoms: N_15  and  C_17 
REMARK   10  A    between atoms: C_17  and  C_18 
REMARK   11  A    between atoms: C_18  and  O_19 
ROOT
HETATM    1  P   UNK N   1      28.688  17.785   8.099  0.00  0.00     0.243 P 
HETATM    2  O   UNK N   1      27.892  16.706   7.327  0.00  0.00    -0.653 OA
ENDROOT
BRANCH   1   3
HETATM    3  O   UNK N   1      28.795  19.077   6.967  0.00  0.00    -0.276 OA
BRANCH   3   4
HETATM    4  C   UNK N   1      27.827  19.335   6.063  0.00  0.00     0.079 A 
HETATM    5  C   UNK N   1      26.872  20.314   6.347  0.00  0.00     0.040 A 
HETATM    6  C   UNK N   1      25.911  20.656   5.390  0.00  0.00     0.039 A 
HETATM    7  C   UNK N   1      25.889  20.005   4.145  0.00  0.00     0.103 A 
HETATM    8  C   UNK N   1      26.827  19.000   3.879  0.00  0.00     0.039 A 
HETATM    9  C   UNK N   1      27.792  18.671   4.827  0.00  0.00     0.040 A 
BRANCH   7  10
HETATM   10  N   UNK N   1      24.942  20.368   3.151  0.00  0.00    -0.116 N 
HETATM   11  O   UNK N   1      23.778  20.158   3.321  0.00  0.00    -0.532 OA
HETATM   12  O   UNK N   1      25.337  20.970   2.050  0.00  0.00    -0.532 OA
ENDBRANCH   7  10
ENDBRANCH   3   4
ENDBRANCH   1   3
BRANCH   1  13
HETATM   13  O   UNK N   1      27.589  18.338   9.324  0.00  0.00    -0.329 OA
HETATM   14  H   UNK N   1      26.825  18.686   9.809  0.00  0.00     0.220 HD
ENDBRANCH   1  13
BRANCH   1  15
HETATM   15  C   UNK N   1      30.330  17.144   8.748  0.00  0.00     0.126 C 
BRANCH  15  16
HETATM   16  C   UNK N   1      31.608  17.765   8.161  0.00  0.00     0.021 C 
BRANCH  16  17
HETATM   17  C   UNK N   1      32.668  16.791   7.657  0.00  0.00     0.103 C 
BRANCH  17  18
HETATM   18  C   UNK N   1      33.663  17.515   6.787  0.00  0.00     0.218 C 
HETATM   19  N   UNK N   1      33.737  17.293   5.453  0.00  0.00    -0.351 N 
HETATM   20  H   UNK N   1      34.401  17.799   4.933  0.00  0.00     0.163 HD
HETATM   21  O   UNK N   1      34.421  18.325   7.292  0.00  0.00    -0.274 OA
BRANCH  19  22
HETATM   22  C   UNK N   1      32.894  16.355   4.752  0.00  0.00     0.232 C 
BRANCH  22  23
HETATM   23  C   UNK N   1      32.079  17.069   3.725  0.00  0.00     0.158 C 
HETATM   24  O   UNK N   1      32.209  16.797   2.542  0.00  0.00    -0.649 OA
BRANCH  23  25
HETATM   25  O   UNK N   1      31.196  18.011   4.103  0.00  0.00    -0.775 OA
HETATM   26  H   UNK N   1      31.052  18.791   3.605  0.00  0.00     0.167 HD
ENDBRANCH  23  25
ENDBRANCH  22  23
ENDBRANCH  19  22
ENDBRANCH  17  18
ENDBRANCH  16  17
ENDBRANCH  15  16
ENDBRANCH   1  15
TORSDOF 11
ENDMDL
MODEL 9
REMARK VINA RESULT:      -6.1     13.999     15.916
REMARK  11 active torsions:
REMARK  status: ('A' for Active; 'I' for Inactive)
REMARK    1  A    between atoms: C_1  and  O_8 
REMARK    2  A    between atoms: C_4  and  N_21 
REMARK    3  A    between atoms: P_7  and  O_8 
REMARK    4  A    between atoms: P_7  and  O_9 
REMARK    5  A    between atoms: P_7  and  C_11 
REMARK    6  A    between atoms: C_11  and  C_12 
REMARK    7  A    between atoms: C_12  and  C_13 
REMARK    8  A    between atoms: C_13  and  C_14 
REMARK       I    between atoms: C_14  and  N_15 
REMARK    9  A    between atoms: N_15  and  C_17 
REMARK   10  A    between atoms: C_17  and  C_18 
REMARK   11  A    between atoms: C_18  and  O_19 
ROOT
HETATM    1  P   UNK N   1      20.555  14.162   5.700  0.00  0.00     0.243 P 
HETATM    2  O   UNK N   1      19.239  14.879   6.081  0.00  0.00    -0.653 OA
ENDROOT
BRANCH   1   3
HETATM    3  O   UNK N   1      21.715  14.896   6.738  0.00  0.00    -0.276 OA
BRANCH   3   4
HETATM    4  C   UNK N   1      22.157  14.307   7.868  0.00  0.00     0.079 A 
HETATM    5  C   UNK N   1      21.298  14.204   8.964  0.00  0.00     0.040 A 
HETATM    6  C   UNK N   1      21.707  13.522  10.116  0.00  0.00     0.039 A 
HETATM    7  C   UNK N   1      22.989  12.954  10.183  0.00  0.00     0.103 A 
HETATM    8  C   UNK N   1      23.860  13.090   9.095  0.00  0.00     0.039 A 
HETATM    9  C   UNK N   1      23.445  13.756   7.944  0.00  0.00     0.040 A 
BRANCH   7  10
HETATM   10  N   UNK N   1      23.404  12.229  11.331  0.00  0.00    -0.116 N 
HETATM   11  O   UNK N   1      22.595  11.790  12.093  0.00  0.00    -0.532 OA
HETATM   12  O   UNK N   1      24.683  12.005  11.546  0.00  0.00    -0.532 OA
ENDBRANCH   7  10
ENDBRANCH   3   4
ENDBRANCH   1   3
BRANCH   1  13
HETATM   13  O   UNK N   1      20.356  12.546   6.305  0.00  0.00    -0.329 OA
HETATM   14  H   UNK N   1      20.007  11.721   6.676  0.00  0.00     0.220 HD
ENDBRANCH   1  13
BRANCH   1  15
HETATM   15  C   UNK N   1      20.932  14.272   3.863  0.00  0.00     0.126 C 
BRANCH  15  16
HETATM   16  C   UNK N   1      20.234  15.388   3.069  0.00  0.00     0.021 C 
BRANCH  16  17
HETATM   17  C   UNK N   1      21.129  16.273   2.207  0.00  0.00     0.103 C 
BRANCH  17  18
HETATM   18  C   UNK N   1      20.350  16.812   1.036  0.00  0.00     0.218 C 
HETATM   19  N   UNK N   1      20.029  18.124   0.937  0.00  0.00    -0.351 N 
HETATM   20  H   UNK N   1      19.525  18.421   0.147  0.00  0.00     0.163 HD
HETATM   21  O   UNK N   1      19.999  16.052   0.150  0.00  0.00    -0.274 OA
BRANCH  19  22
HETATM   22  C   UNK N   1      20.388  19.111   1.927  0.00  0.00     0.232 C 
BRANCH  22  23
HETATM   23  C   UNK N   1      20.991  20.305   1.264  0.00  0.00     0.158 C 
HETATM   24  O   UNK N   1      21.780  21.010   1.872  0.00  0.00    -0.649 OA
BRANCH  23  25
HETATM   25  O   UNK N   1      20.667  20.603  -0.007  0.00  0.00    -0.775 OA
HETATM   26  H   UNK N   1      20.757  19.985  -0.705  0.00  0.00     0.167 HD
ENDBRANCH  23  25
ENDBRANCH  22  23
ENDBRANCH  19  22
ENDBRANCH  17  18
ENDBRANCH  16  17
ENDBRANCH  15  16
ENDBRANCH   1  15
TORSDOF 11
ENDMDL
