MODEL 1
REMARK VINA RESULT:      -7.4      0.000      0.000
REMARK  8 active torsions:
REMARK  status: ('A' for Active; 'I' for Inactive)
REMARK    1  A    between atoms: C_1  and  C_10 
REMARK    2  A    between atoms: N_2  and  C_6 
REMARK    3  A    between atoms: C_5  and  C_26 
REMARK    4  A    between atoms: C_6  and  O_7 
REMARK    5  A    between atoms: O_7  and  C_8 
REMARK    6  A    between atoms: C_15  and  O_18 
REMARK    7  A    between atoms: O_18  and  C_19 
REMARK    8  A    between atoms: C_24  and  O_25 
ROOT
HETATM    1  C   UNK N   1      24.964  18.651   3.877  0.00  0.00     0.104 A 
HETATM    2  N   UNK N   1      25.513  19.810   3.444  0.00  0.00    -0.222 N 
HETATM    3  O   UNK N   1      24.559  20.644   3.139  0.00  0.00    -0.190 OA
HETATM    4  C   UNK N   1      23.390  20.092   3.362  0.00  0.00     0.318 A 
HETATM    5  C   UNK N   1      23.565  18.804   3.838  0.00  0.00     0.082 A 
HETATM    6  O   UNK N   1      22.323  20.653   3.175  0.00  0.00    -0.257 OA
ENDROOT
BRANCH   1   7
HETATM    7  C   UNK N   1      25.761  17.504   4.411  0.00  0.00     0.066 A 
HETATM    8  C   UNK N   1      25.966  16.368   3.634  0.00  0.00     0.049 A 
HETATM    9  C   UNK N   1      26.698  15.310   4.129  0.00  0.00     0.094 A 
HETATM   10  N   UNK N   1      27.179  15.374   5.386  0.00  0.00    -0.332 N 
HETATM   11  C   UNK N   1      26.951  16.460   6.176  0.00  0.00     0.229 A 
ATOM     12  HN  UNK N   1      27.724  14.594   5.753  1.00  0.00     0.168 HD
HETATM   13  N   UNK N   1      26.257  17.523   5.682  0.00  0.00    -0.320 N 
ATOM     14  HN  UNK N   1      26.105  18.343   6.270  1.00  0.00     0.169 HD
BRANCH  11  15
HETATM   15  O   UNK N   1      27.396  16.473   7.458  0.00  0.00    -0.277 OA
BRANCH  15  16
HETATM   16  C   UNK N   1      28.543  17.095   7.855  0.00  0.00     0.112 A 
HETATM   17  C   UNK N   1      29.789  16.776   7.274  0.00  0.00     0.040 A 
HETATM   18  C   UNK N   1      30.958  17.406   7.691  0.00  0.00     0.003 A 
HETATM   19  C   UNK N   1      30.903  18.362   8.703  0.00  0.00     0.003 A 
HETATM   20  C   UNK N   1      29.678  18.684   9.297  0.00  0.00     0.039 A 
HETATM   21  C   UNK N   1      28.501  18.052   8.878  0.00  0.00     0.099 A 
BRANCH  21  22
HETATM   22  O   UNK N   1      27.333  18.374   9.459  0.00  0.00    -0.358 OA
HETATM   23  H   UNK N   1      26.906  19.192   9.627  0.00  0.00     0.217 HD
ENDBRANCH  21  22
ENDBRANCH  15  16
ENDBRANCH  11  15
ENDBRANCH   1   7
BRANCH   2  24
HETATM   24  C   UNK N   1      26.926  20.169   3.469  0.00  0.00     0.324 C 
BRANCH  24  25
HETATM   25  O   UNK N   1      27.470  19.994   4.739  0.00  0.00    -0.370 OA
BRANCH  25  26
HETATM   26  C   UNK N   1      27.152  21.180   5.405  0.00  0.00     0.165 C 
HETATM   27  C   UNK N   1      26.718  20.877   6.827  0.00  0.00     0.033 C 
ENDBRANCH  25  26
ENDBRANCH  24  25
ENDBRANCH   2  24
BRANCH   5  28
HETATM   28  C   UNK N   1      22.495  17.872   4.294  0.00  0.00    -0.017 A 
HETATM   29  C   UNK N   1      22.191  17.791   5.660  0.00  0.00     0.015 A 
HETATM   30  C   UNK N   1      21.360  16.769   6.138  0.00  0.00     0.043 A 
HETATM   31  C   UNK N   1      20.817  15.834   5.251  0.00  0.00     0.116 A 
HETATM   32  C   UNK N   1      21.053  15.953   3.885  0.00  0.00     0.043 A 
HETATM   33  F   UNK N   1      20.071  14.804   5.717  0.00  0.00    -0.206 F 
HETATM   34  C   UNK N   1      21.885  16.969   3.414  0.00  0.00     0.015 A 
ENDBRANCH   5  28
TORSDOF 8
ENDMDL
MODEL 2
REMARK VINA RESULT:      -7.3      3.386      6.836
REMARK  8 active torsions:
REMARK  status: ('A' for Active; 'I' for Inactive)
REMARK    1  A    between atoms: C_1  and  C_10 
REMARK    2  A    between atoms: N_2  and  C_6 
REMARK    3  A    between atoms: C_5  and  C_26 
REMARK    4  A    between atoms: C_6  and  O_7 
REMARK    5  A    between atoms: O_7  and  C_8 
REMARK    6  A    between atoms: C_15  and  O_18 
REMARK    7  A    between atoms: O_18  and  C_19 
REMARK    8  A    between atoms: C_24  and  O_25 
ROOT
HETATM    1  C   UNK N   1      23.167  18.923   3.872  0.00  0.00     0.104 A 
HETATM    2  N   UNK N   1      22.307  19.861   3.407  0.00  0.00    -0.222 N 
HETATM    3  O   UNK N   1      22.985  20.796   2.804  0.00  0.00    -0.190 OA
HETATM    4  C   UNK N   1      24.266  20.516   2.836  0.00  0.00     0.318 A 
HETATM    5  C   UNK N   1      24.467  19.323   3.509  0.00  0.00     0.082 A 
HETATM    6  O   UNK N   1      25.131  21.215   2.335  0.00  0.00    -0.257 OA
ENDROOT
BRANCH   1   7
HETATM    7  C   UNK N   1      22.731  17.651   4.526  0.00  0.00     0.066 A 
HETATM    8  C   UNK N   1      22.456  16.524   3.758  0.00  0.00     0.049 A 
HETATM    9  C   UNK N   1      22.051  15.353   4.362  0.00  0.00     0.094 A 
HETATM   10  N   UNK N   1      21.890  15.324   5.699  0.00  0.00    -0.332 N 
HETATM   11  C   UNK N   1      22.113  16.430   6.462  0.00  0.00     0.229 A 
ATOM     12  HN  UNK N   1      21.594  14.458   6.148  1.00  0.00     0.168 HD
HETATM   13  N   UNK N   1      22.545  17.582   5.876  0.00  0.00    -0.320 N 
ATOM     14  HN  UNK N   1      22.731  18.402   6.453  1.00  0.00     0.169 HD
BRANCH  11  15
HETATM   15  O   UNK N   1      21.885  16.390   7.799  0.00  0.00    -0.277 OA
BRANCH  15  16
HETATM   16  C   UNK N   1      20.644  16.468   8.360  0.00  0.00     0.112 A 
HETATM   17  C   UNK N   1      20.007  15.327   8.891  0.00  0.00     0.040 A 
HETATM   18  C   UNK N   1      18.735  15.410   9.451  0.00  0.00     0.003 A 
HETATM   19  C   UNK N   1      18.075  16.637   9.484  0.00  0.00     0.003 A 
HETATM   20  C   UNK N   1      18.689  17.776   8.954  0.00  0.00     0.039 A 
HETATM   21  C   UNK N   1      19.968  17.695   8.391  0.00  0.00     0.099 A 
BRANCH  21  22
HETATM   22  O   UNK N   1      20.542  18.800   7.887  0.00  0.00    -0.358 OA
HETATM   23  H   UNK N   1      20.253  19.447   7.272  0.00  0.00     0.217 HD
ENDBRANCH  21  22
ENDBRANCH  15  16
ENDBRANCH  11  15
ENDBRANCH   1   7
BRANCH   2  24
HETATM   24  C   UNK N   1      20.851  19.785   3.404  0.00  0.00     0.324 C 
BRANCH  24  25
HETATM   25  O   UNK N   1      20.362  19.487   2.135  0.00  0.00    -0.370 OA
BRANCH  25  26
HETATM   26  C   UNK N   1      19.611  18.325   2.331  0.00  0.00     0.165 C 
HETATM   27  C   UNK N   1      19.963  17.296   1.273  0.00  0.00     0.033 C 
ENDBRANCH  25  26
ENDBRANCH  24  25
ENDBRANCH   2  24
BRANCH   5  28
HETATM   28  C   UNK N   1      25.763  18.611   3.689  0.00  0.00    -0.017 A 
HETATM   29  C   UNK N   1      25.921  17.325   3.152  0.00  0.00     0.015 A 
HETATM   30  C   UNK N   1      27.035  16.548   3.498  0.00  0.00     0.043 A 
HETATM   31  C   UNK N   1      28.002  17.058   4.370  0.00  0.00     0.116 A 
HETATM   32  C   UNK N   1      27.890  18.361   4.847  0.00  0.00     0.043 A 
HETATM   33  F   UNK N   1      29.043  16.285   4.763  0.00  0.00    -0.206 F 
HETATM   34  C   UNK N   1      26.778  19.129   4.504  0.00  0.00     0.015 A 
ENDBRANCH   5  28
TORSDOF 8
ENDMDL
MODEL 3
REMARK VINA RESULT:      -7.2      3.528      6.987
REMARK  8 active torsions:
REMARK  status: ('A' for Active; 'I' for Inactive)
REMARK    1  A    between atoms: C_1  and  C_10 
REMARK    2  A    between atoms: N_2  and  C_6 
REMARK    3  A    between atoms: C_5  and  C_26 
REMARK    4  A    between atoms: C_6  and  O_7 
REMARK    5  A    between atoms: O_7  and  C_8 
REMARK    6  A    between atoms: C_15  and  O_18 
REMARK    7  A    between atoms: O_18  and  C_19 
REMARK    8  A    between atoms: C_24  and  O_25 
ROOT
HETATM    1  C   UNK N   1      23.069  19.068   3.829  0.00  0.00     0.104 A 
HETATM    2  N   UNK N   1      22.242  19.856   3.102  0.00  0.00    -0.222 N 
HETATM    3  O   UNK N   1      22.951  20.758   2.484  0.00  0.00    -0.190 OA
HETATM    4  C   UNK N   1      24.223  20.598   2.760  0.00  0.00     0.318 A 
HETATM    5  C   UNK N   1      24.383  19.528   3.624  0.00  0.00     0.082 A 
HETATM    6  O   UNK N   1      25.114  21.297   2.306  0.00  0.00    -0.257 OA
ENDROOT
BRANCH   1   7
HETATM    7  C   UNK N   1      22.612  17.861   4.585  0.00  0.00     0.066 A 
HETATM    8  C   UNK N   1      22.068  17.992   5.858  0.00  0.00     0.049 A 
HETATM    9  C   UNK N   1      21.651  16.879   6.555  0.00  0.00     0.094 A 
HETATM   10  N   UNK N   1      21.811  15.660   6.004  0.00  0.00    -0.332 N 
HETATM   11  C   UNK N   1      22.382  15.508   4.776  0.00  0.00     0.229 A 
ATOM     12  HN  UNK N   1      21.500  14.835   6.516  1.00  0.00     0.168 HD
HETATM   13  N   UNK N   1      22.766  16.607   4.068  0.00  0.00    -0.320 N 
ATOM     14  HN  UNK N   1      23.174  16.492   3.140  1.00  0.00     0.169 HD
BRANCH  11  15
HETATM   15  O   UNK N   1      22.585  14.266   4.270  0.00  0.00    -0.277 OA
BRANCH  15  16
HETATM   16  C   UNK N   1      22.746  14.006   2.941  0.00  0.00     0.112 A 
HETATM   17  C   UNK N   1      21.649  13.659   2.124  0.00  0.00     0.040 A 
HETATM   18  C   UNK N   1      21.820  13.383   0.770  0.00  0.00     0.003 A 
HETATM   19  C   UNK N   1      23.095  13.443   0.211  0.00  0.00     0.003 A 
HETATM   20  C   UNK N   1      24.195  13.777   1.008  0.00  0.00     0.039 A 
HETATM   21  C   UNK N   1      24.024  14.055   2.369  0.00  0.00     0.099 A 
BRANCH  21  22
HETATM   22  O   UNK N   1      25.093  14.374   3.119  0.00  0.00    -0.358 OA
HETATM   23  H   UNK N   1      25.228  14.436   4.045  0.00  0.00     0.217 HD
ENDBRANCH  21  22
ENDBRANCH  15  16
ENDBRANCH  11  15
ENDBRANCH   1   7
BRANCH   2  24
HETATM   24  C   UNK N   1      20.816  19.653   2.879  0.00  0.00     0.324 C 
BRANCH  24  25
HETATM   25  O   UNK N   1      20.573  19.101   1.624  0.00  0.00    -0.370 OA
BRANCH  25  26
HETATM   26  C   UNK N   1      19.972  17.873   1.910  0.00  0.00     0.165 C 
HETATM   27  C   UNK N   1      20.117  16.935   0.725  0.00  0.00     0.033 C 
ENDBRANCH  25  26
ENDBRANCH  24  25
ENDBRANCH   2  24
BRANCH   5  28
HETATM   28  C   UNK N   1      25.673  18.963   4.110  0.00  0.00    -0.017 A 
HETATM   29  C   UNK N   1      26.435  19.688   5.038  0.00  0.00     0.015 A 
HETATM   30  C   UNK N   1      27.746  19.294   5.335  0.00  0.00     0.043 A 
HETATM   31  C   UNK N   1      28.297  18.166   4.719  0.00  0.00     0.116 A 
HETATM   32  C   UNK N   1      27.521  17.398   3.854  0.00  0.00     0.043 A 
HETATM   33  F   UNK N   1      29.586  17.822   4.950  0.00  0.00    -0.206 F 
HETATM   34  C   UNK N   1      26.218  17.797   3.557  0.00  0.00     0.015 A 
ENDBRANCH   5  28
TORSDOF 8
ENDMDL
MODEL 4
REMARK VINA RESULT:      -7.0      3.441      7.489
REMARK  8 active torsions:
REMARK  status: ('A' for Active; 'I' for Inactive)
REMARK    1  A    between atoms: C_1  and  C_10 
REMARK    2  A    between atoms: N_2  and  C_6 
REMARK    3  A    between atoms: C_5  and  C_26 
REMARK    4  A    between atoms: C_6  and  O_7 
REMARK    5  A    between atoms: O_7  and  C_8 
REMARK    6  A    between atoms: C_15  and  O_18 
REMARK    7  A    between atoms: O_18  and  C_19 
REMARK    8  A    between atoms: C_24  and  O_25 
ROOT
HETATM    1  C   UNK N   1      23.045  19.108   3.806  0.00  0.00     0.104 A 
HETATM    2  N   UNK N   1      22.295  19.977   3.087  0.00  0.00    -0.222 N 
HETATM    3  O   UNK N   1      23.085  20.806   2.465  0.00  0.00    -0.190 OA
HETATM    4  C   UNK N   1      24.337  20.519   2.730  0.00  0.00     0.318 A 
HETATM    5  C   UNK N   1      24.397  19.436   3.590  0.00  0.00     0.082 A 
HETATM    6  O   UNK N   1      25.289  21.127   2.269  0.00  0.00    -0.257 OA
ENDROOT
BRANCH   1   7
HETATM    7  C   UNK N   1      22.476  17.951   4.563  0.00  0.00     0.066 A 
HETATM    8  C   UNK N   1      22.042  18.113   5.874  0.00  0.00     0.049 A 
HETATM    9  C   UNK N   1      21.522  17.045   6.573  0.00  0.00     0.094 A 
HETATM   10  N   UNK N   1      21.474  15.835   5.983  0.00  0.00    -0.332 N 
HETATM   11  C   UNK N   1      21.935  15.647   4.715  0.00  0.00     0.229 A 
ATOM     12  HN  UNK N   1      21.086  15.044   6.496  1.00  0.00     0.168 HD
HETATM   13  N   UNK N   1      22.420  16.706   4.007  0.00  0.00    -0.320 N 
ATOM     14  HN  UNK N   1      22.746  16.566   3.050  1.00  0.00     0.169 HD
BRANCH  11  15
HETATM   15  O   UNK N   1      21.930  14.406   4.167  0.00  0.00    -0.277 OA
BRANCH  15  16
HETATM   16  C   UNK N   1      21.231  14.077   3.042  0.00  0.00     0.112 A 
HETATM   17  C   UNK N   1      21.889  13.795   1.827  0.00  0.00     0.040 A 
HETATM   18  C   UNK N   1      21.171  13.471   0.679  0.00  0.00     0.003 A 
HETATM   19  C   UNK N   1      19.779  13.430   0.726  0.00  0.00     0.003 A 
HETATM   20  C   UNK N   1      19.110  13.716   1.920  0.00  0.00     0.039 A 
HETATM   21  C   UNK N   1      19.831  14.041   3.075  0.00  0.00     0.099 A 
BRANCH  21  22
HETATM   22  O   UNK N   1      19.171  14.313   4.214  0.00  0.00    -0.358 OA
HETATM   23  H   UNK N   1      19.220  13.961   5.082  0.00  0.00     0.217 HD
ENDBRANCH  21  22
ENDBRANCH  15  16
ENDBRANCH  11  15
ENDBRANCH   1   7
BRANCH   2  24
HETATM   24  C   UNK N   1      20.853  19.918   2.876  0.00  0.00     0.324 C 
BRANCH  24  25
HETATM   25  O   UNK N   1      20.546  19.374   1.631  0.00  0.00    -0.370 OA
BRANCH  25  26
HETATM   26  C   UNK N   1      19.905  18.172   1.941  0.00  0.00     0.165 C 
HETATM   27  C   UNK N   1      20.148  17.155   0.842  0.00  0.00     0.033 C 
ENDBRANCH  25  26
ENDBRANCH  24  25
ENDBRANCH   2  24
BRANCH   5  28
HETATM   28  C   UNK N   1      25.628  18.744   4.064  0.00  0.00    -0.017 A 
HETATM   29  C   UNK N   1      26.009  17.533   3.467  0.00  0.00     0.015 A 
HETATM   30  C   UNK N   1      27.022  16.752   4.040  0.00  0.00     0.043 A 
HETATM   31  C   UNK N   1      27.669  17.186   5.202  0.00  0.00     0.116 A 
HETATM   32  C   UNK N   1      27.349  18.422   5.756  0.00  0.00     0.043 A 
HETATM   33  F   UNK N   1      28.599  16.402   5.798  0.00  0.00    -0.206 F 
HETATM   34  C   UNK N   1      26.337  19.193   5.186  0.00  0.00     0.015 A 
ENDBRANCH   5  28
TORSDOF 8
ENDMDL
MODEL 5
REMARK VINA RESULT:      -7.0      3.681      6.400
REMARK  8 active torsions:
REMARK  status: ('A' for Active; 'I' for Inactive)
REMARK    1  A    between atoms: C_1  and  C_10 
REMARK    2  A    between atoms: N_2  and  C_6 
REMARK    3  A    between atoms: C_5  and  C_26 
REMARK    4  A    between atoms: C_6  and  O_7 
REMARK    5  A    between atoms: O_7  and  C_8 
REMARK    6  A    between atoms: C_15  and  O_18 
REMARK    7  A    between atoms: O_18  and  C_19 
REMARK    8  A    between atoms: C_24  and  O_25 
ROOT
HETATM    1  C   UNK N   1      22.729  19.097   4.030  0.00  0.00     0.104 A 
HETATM    2  N   UNK N   1      21.949  19.718   3.113  0.00  0.00    -0.222 N 
HETATM    3  O   UNK N   1      22.697  20.486   2.372  0.00  0.00    -0.190 OA
HETATM    4  C   UNK N   1      23.950  20.395   2.749  0.00  0.00     0.318 A 
HETATM    5  C   UNK N   1      24.054  19.519   3.816  0.00  0.00     0.082 A 
HETATM    6  O   UNK N   1      24.868  20.998   2.219  0.00  0.00    -0.257 OA
ENDROOT
BRANCH   1   7
HETATM    7  C   UNK N   1      22.223  18.059   4.981  0.00  0.00     0.066 A 
HETATM    8  C   UNK N   1      21.448  18.426   6.076  0.00  0.00     0.049 A 
HETATM    9  C   UNK N   1      20.986  17.470   6.954  0.00  0.00     0.094 A 
HETATM   10  N   UNK N   1      21.326  16.181   6.760  0.00  0.00    -0.332 N 
HETATM   11  C   UNK N   1      22.121  15.808   5.718  0.00  0.00     0.229 A 
ATOM     12  HN  UNK N   1      20.983  15.471   7.406  1.00  0.00     0.168 HD
HETATM   13  N   UNK N   1      22.553  16.744   4.828  0.00  0.00    -0.320 N 
ATOM     14  HN  UNK N   1      23.131  16.458   4.037  1.00  0.00     0.169 HD
BRANCH  11  15
HETATM   15  O   UNK N   1      22.496  14.511   5.580  0.00  0.00    -0.277 OA
BRANCH  15  16
HETATM   16  C   UNK N   1      22.928  13.733   6.614  0.00  0.00     0.112 A 
HETATM   17  C   UNK N   1      24.289  13.696   6.984  0.00  0.00     0.040 A 
HETATM   18  C   UNK N   1      24.727  12.892   8.033  0.00  0.00     0.003 A 
HETATM   19  C   UNK N   1      23.811  12.103   8.725  0.00  0.00     0.003 A 
HETATM   20  C   UNK N   1      22.459  12.120   8.366  0.00  0.00     0.039 A 
HETATM   21  C   UNK N   1      22.017  12.929   7.312  0.00  0.00     0.099 A 
BRANCH  21  22
HETATM   22  O   UNK N   1      20.715  12.933   6.981  0.00  0.00    -0.358 OA
HETATM   23  H   UNK N   1      20.180  12.344   6.485  0.00  0.00     0.217 HD
ENDBRANCH  21  22
ENDBRANCH  15  16
ENDBRANCH  11  15
ENDBRANCH   1   7
BRANCH   2  24
HETATM   24  C   UNK N   1      20.538  19.462   2.850  0.00  0.00     0.324 C 
BRANCH  24  25
HETATM   25  O   UNK N   1      20.345  18.962   1.565  0.00  0.00    -0.370 OA
BRANCH  25  26
HETATM   26  C   UNK N   1      20.126  17.597   1.768  0.00  0.00     0.165 C 
HETATM   27  C   UNK N   1      19.947  16.896   0.434  0.00  0.00     0.033 C 
ENDBRANCH  25  26
ENDBRANCH  24  25
ENDBRANCH   2  24
BRANCH   5  28
HETATM   28  C   UNK N   1      25.311  19.073   4.480  0.00  0.00    -0.017 A 
HETATM   29  C   UNK N   1      25.946  19.926   5.394  0.00  0.00     0.015 A 
HETATM   30  C   UNK N   1      27.236  19.632   5.855  0.00  0.00     0.043 A 
HETATM   31  C   UNK N   1      27.891  18.476   5.417  0.00  0.00     0.116 A 
HETATM   32  C   UNK N   1      27.237  17.586   4.570  0.00  0.00     0.043 A 
HETATM   33  F   UNK N   1      29.164  18.224   5.805  0.00  0.00    -0.206 F 
HETATM   34  C   UNK N   1      25.956  17.886   4.109  0.00  0.00     0.015 A 
ENDBRANCH   5  28
TORSDOF 8
ENDMDL
MODEL 6
REMARK VINA RESULT:      -7.0     11.369     13.843
REMARK  8 active torsions:
REMARK  status: ('A' for Active; 'I' for Inactive)
REMARK    1  A    between atoms: C_1  and  C_10 
REMARK    2  A    between atoms: N_2  and  C_6 
REMARK    3  A    between atoms: C_5  and  C_26 
REMARK    4  A    between atoms: C_6  and  O_7 
REMARK    5  A    between atoms: O_7  and  C_8 
REMARK    6  A    between atoms: C_15  and  O_18 
REMARK    7  A    between atoms: O_18  and  C_19 
REMARK    8  A    between atoms: C_24  and  O_25 
ROOT
HETATM    1  C   UNK N   1      27.214  24.560  -6.390  0.00  0.00     0.104 A 
HETATM    2  N   UNK N   1      27.175  23.691  -7.428  0.00  0.00    -0.222 N 
HETATM    3  O   UNK N   1      26.585  24.264  -8.439  0.00  0.00    -0.190 OA
HETATM    4  C   UNK N   1      26.235  25.488  -8.121  0.00  0.00     0.318 A 
HETATM    5  C   UNK N   1      26.605  25.756  -6.815  0.00  0.00     0.082 A 
HETATM    6  O   UNK N   1      25.675  26.258  -8.885  0.00  0.00    -0.257 OA
ENDROOT
BRANCH   1   7
HETATM    7  C   UNK N   1      27.912  24.278  -5.098  0.00  0.00     0.066 A 
HETATM    8  C   UNK N   1      27.181  24.059  -3.936  0.00  0.00     0.049 A 
HETATM    9  C   UNK N   1      27.826  23.803  -2.745  0.00  0.00     0.094 A 
HETATM   10  N   UNK N   1      29.172  23.805  -2.714  0.00  0.00    -0.332 N 
HETATM   11  C   UNK N   1      29.906  24.060  -3.833  0.00  0.00     0.229 A 
ATOM     12  HN  UNK N   1      29.652  23.612  -1.835  1.00  0.00     0.168 HD
HETATM   13  N   UNK N   1      29.275  24.281  -5.020  0.00  0.00    -0.320 N 
ATOM     14  HN  UNK N   1      29.827  24.452  -5.861  1.00  0.00     0.169 HD
BRANCH  11  15
HETATM   15  O   UNK N   1      31.260  24.114  -3.760  0.00  0.00    -0.277 OA
BRANCH  15  16
HETATM   16  C   UNK N   1      32.081  23.103  -4.164  0.00  0.00     0.112 A 
HETATM   17  C   UNK N   1      32.715  23.132  -5.424  0.00  0.00     0.040 A 
HETATM   18  C   UNK N   1      33.543  22.092  -5.836  0.00  0.00     0.003 A 
HETATM   19  C   UNK N   1      33.747  20.999  -4.996  0.00  0.00     0.003 A 
HETATM   20  C   UNK N   1      33.120  20.949  -3.747  0.00  0.00     0.039 A 
HETATM   21  C   UNK N   1      32.287  21.995  -3.331  0.00  0.00     0.099 A 
BRANCH  21  22
HETATM   22  O   UNK N   1      31.692  21.930  -2.127  0.00  0.00    -0.358 OA
HETATM   23  H   UNK N   1      30.984  22.405  -1.738  0.00  0.00     0.217 HD
ENDBRANCH  21  22
ENDBRANCH  15  16
ENDBRANCH  11  15
ENDBRANCH   1   7
BRANCH   2  24
HETATM   24  C   UNK N   1      27.831  22.391  -7.503  0.00  0.00     0.324 C 
BRANCH  24  25
HETATM   25  O   UNK N   1      29.211  22.526  -7.631  0.00  0.00    -0.370 OA
BRANCH  25  26
HETATM   26  C   UNK N   1      29.676  21.209  -7.638  0.00  0.00     0.165 C 
HETATM   27  C   UNK N   1      29.991  20.762  -6.222  0.00  0.00     0.033 C 
ENDBRANCH  25  26
ENDBRANCH  24  25
ENDBRANCH   2  24
BRANCH   5  28
HETATM   28  C   UNK N   1      26.468  27.056  -6.101  0.00  0.00    -0.017 A 
HETATM   29  C   UNK N   1      27.396  28.078  -6.351  0.00  0.00     0.015 A 
HETATM   30  C   UNK N   1      27.428  29.217  -5.534  0.00  0.00     0.043 A 
HETATM   31  C   UNK N   1      26.524  29.346  -4.475  0.00  0.00     0.116 A 
HETATM   32  C   UNK N   1      25.551  28.372  -4.269  0.00  0.00     0.043 A 
HETATM   33  F   UNK N   1      26.597  30.411  -3.641  0.00  0.00    -0.206 F 
HETATM   34  C   UNK N   1      25.526  27.238  -5.081  0.00  0.00     0.015 A 
ENDBRANCH   5  28
TORSDOF 8
ENDMDL
MODEL 7
REMARK VINA RESULT:      -7.0      7.671     10.624
REMARK  8 active torsions:
REMARK  status: ('A' for Active; 'I' for Inactive)
REMARK    1  A    between atoms: C_1  and  C_10 
REMARK    2  A    between atoms: N_2  and  C_6 
REMARK    3  A    between atoms: C_5  and  C_26 
REMARK    4  A    between atoms: C_6  and  O_7 
REMARK    5  A    between atoms: O_7  and  C_8 
REMARK    6  A    between atoms: C_15  and  O_18 
REMARK    7  A    between atoms: O_18  and  C_19 
REMARK    8  A    between atoms: C_24  and  O_25 
ROOT
HETATM    1  C   UNK N   1      34.608  15.902   8.315  0.00  0.00     0.104 A 
HETATM    2  N   UNK N   1      35.289  16.275   9.426  0.00  0.00    -0.222 N 
HETATM    3  O   UNK N   1      35.273  17.575   9.516  0.00  0.00    -0.190 OA
HETATM    4  C   UNK N   1      34.598  18.087   8.515  0.00  0.00     0.318 A 
HETATM    5  C   UNK N   1      34.138  17.073   7.693  0.00  0.00     0.082 A 
HETATM    6  O   UNK N   1      34.414  19.283   8.357  0.00  0.00    -0.257 OA
ENDROOT
BRANCH   1   7
HETATM    7  C   UNK N   1      34.333  14.478   7.951  0.00  0.00     0.066 A 
HETATM    8  C   UNK N   1      34.844  13.942   6.773  0.00  0.00     0.049 A 
HETATM    9  C   UNK N   1      34.586  12.631   6.437  0.00  0.00     0.094 A 
HETATM   10  N   UNK N   1      33.803  11.887   7.242  0.00  0.00    -0.332 N 
HETATM   11  C   UNK N   1      33.258  12.407   8.376  0.00  0.00     0.229 A 
ATOM     12  HN  UNK N   1      33.614  10.915   6.996  1.00  0.00     0.168 HD
HETATM   13  N   UNK N   1      33.536  13.693   8.733  0.00  0.00    -0.320 N 
ATOM     14  HN  UNK N   1      33.143  14.074   9.594  1.00  0.00     0.169 HD
BRANCH  11  15
HETATM   15  O   UNK N   1      32.425  11.654   9.138  0.00  0.00    -0.277 OA
BRANCH  15  16
HETATM   16  C   UNK N   1      32.783  10.466   9.704  0.00  0.00     0.112 A 
HETATM   17  C   UNK N   1      33.901  10.369  10.558  0.00  0.00     0.040 A 
HETATM   18  C   UNK N   1      34.269   9.151  11.125  0.00  0.00     0.003 A 
HETATM   19  C   UNK N   1      33.527   8.007  10.840  0.00  0.00     0.003 A 
HETATM   20  C   UNK N   1      32.421   8.083   9.987  0.00  0.00     0.039 A 
HETATM   21  C   UNK N   1      32.050   9.306   9.417  0.00  0.00     0.099 A 
BRANCH  21  22
HETATM   22  O   UNK N   1      30.984   9.361   8.601  0.00  0.00    -0.358 OA
HETATM   23  H   UNK N   1      30.857   9.135   7.700  0.00  0.00     0.217 HD
ENDBRANCH  21  22
ENDBRANCH  15  16
ENDBRANCH  11  15
ENDBRANCH   1   7
BRANCH   2  24
HETATM   24  C   UNK N   1      35.810  15.396  10.466  0.00  0.00     0.324 C 
BRANCH  24  25
HETATM   25  O   UNK N   1      34.808  15.010  11.353  0.00  0.00    -0.370 OA
BRANCH  25  26
HETATM   26  C   UNK N   1      35.309  13.843  11.934  0.00  0.00     0.165 C 
HETATM   27  C   UNK N   1      36.433  13.280  11.085  0.00  0.00     0.033 C 
ENDBRANCH  25  26
ENDBRANCH  24  25
ENDBRANCH   2  24
BRANCH   5  28
HETATM   28  C   UNK N   1      33.259  17.226   6.500  0.00  0.00    -0.017 A 
HETATM   29  C   UNK N   1      31.867  17.220   6.665  0.00  0.00     0.015 A 
HETATM   30  C   UNK N   1      31.023  17.132   5.550  0.00  0.00     0.043 A 
HETATM   31  C   UNK N   1      31.568  17.065   4.263  0.00  0.00     0.116 A 
HETATM   32  C   UNK N   1      32.946  17.147   4.086  0.00  0.00     0.043 A 
HETATM   33  F   UNK N   1      30.760  16.910   3.187  0.00  0.00    -0.206 F 
HETATM   34  C   UNK N   1      33.781  17.230   5.200  0.00  0.00     0.015 A 
ENDBRANCH   5  28
TORSDOF 8
ENDMDL
MODEL 8
REMARK VINA RESULT:      -7.0     11.915     13.309
REMARK  8 active torsions:
REMARK  status: ('A' for Active; 'I' for Inactive)
REMARK    1  A    between atoms: C_1  and  C_10 
REMARK    2  A    between atoms: N_2  and  C_6 
REMARK    3  A    between atoms: C_5  and  C_26 
REMARK    4  A    between atoms: C_6  and  O_7 
REMARK    5  A    between atoms: O_7  and  C_8 
REMARK    6  A    between atoms: C_15  and  O_18 
REMARK    7  A    between atoms: O_18  and  C_19 
REMARK    8  A    between atoms: C_24  and  O_25 
ROOT
HETATM    1  C   UNK N   1      27.344  27.056  -4.447  0.00  0.00     0.104 A 
HETATM    2  N   UNK N   1      26.806  28.129  -3.821  0.00  0.00    -0.222 N 
HETATM    3  O   UNK N   1      25.587  28.303  -4.247  0.00  0.00    -0.190 OA
HETATM    4  C   UNK N   1      25.283  27.379  -5.129  0.00  0.00     0.318 A 
HETATM    5  C   UNK N   1      26.365  26.536  -5.315  0.00  0.00     0.082 A 
HETATM    6  O   UNK N   1      24.200  27.295  -5.683  0.00  0.00    -0.257 OA
ENDROOT
BRANCH   1   7
HETATM    7  C   UNK N   1      28.695  26.499  -4.127  0.00  0.00     0.066 A 
HETATM    8  C   UNK N   1      29.838  27.263  -4.336  0.00  0.00     0.049 A 
HETATM    9  C   UNK N   1      31.082  26.748  -4.043  0.00  0.00     0.094 A 
HETATM   10  N   UNK N   1      31.180  25.483  -3.589  0.00  0.00    -0.332 N 
HETATM   11  C   UNK N   1      30.075  24.705  -3.420  0.00  0.00     0.229 A 
ATOM     12  HN  UNK N   1      32.099  25.101  -3.369  1.00  0.00     0.168 HD
HETATM   13  N   UNK N   1      28.839  25.219  -3.675  0.00  0.00    -0.320 N 
ATOM     14  HN  UNK N   1      28.012  24.640  -3.528  1.00  0.00     0.169 HD
BRANCH  11  15
HETATM   15  O   UNK N   1      30.207  23.416  -3.018  0.00  0.00    -0.277 OA
BRANCH  15  16
HETATM   16  C   UNK N   1      30.449  22.377  -3.869  0.00  0.00     0.112 A 
HETATM   17  C   UNK N   1      29.775  22.269  -5.104  0.00  0.00     0.040 A 
HETATM   18  C   UNK N   1      30.017  21.202  -5.964  0.00  0.00     0.003 A 
HETATM   19  C   UNK N   1      30.934  20.219  -5.600  0.00  0.00     0.003 A 
HETATM   20  C   UNK N   1      31.605  20.305  -4.376  0.00  0.00     0.039 A 
HETATM   21  C   UNK N   1      31.363  21.378  -3.510  0.00  0.00     0.099 A 
BRANCH  21  22
HETATM   22  O   UNK N   1      32.017  21.445  -2.338  0.00  0.00    -0.358 OA
HETATM   23  H   UNK N   1      32.423  22.150  -1.871  0.00  0.00     0.217 HD
ENDBRANCH  21  22
ENDBRANCH  15  16
ENDBRANCH  11  15
ENDBRANCH   1   7
BRANCH   2  24
HETATM   24  C   UNK N   1      27.394  28.881  -2.718  0.00  0.00     0.324 C 
BRANCH  24  25
HETATM   25  O   UNK N   1      26.861  30.165  -2.640  0.00  0.00    -0.370 OA
BRANCH  25  26
HETATM   26  C   UNK N   1      27.811  30.875  -1.902  0.00  0.00     0.165 C 
HETATM   27  C   UNK N   1      28.426  29.976  -0.845  0.00  0.00     0.033 C 
ENDBRANCH  25  26
ENDBRANCH  24  25
ENDBRANCH   2  24
BRANCH   5  28
HETATM   28  C   UNK N   1      26.402  25.312  -6.163  0.00  0.00    -0.017 A 
HETATM   29  C   UNK N   1      25.790  24.137  -5.702  0.00  0.00     0.015 A 
HETATM   30  C   UNK N   1      26.005  22.922  -6.367  0.00  0.00     0.043 A 
HETATM   31  C   UNK N   1      26.819  22.879  -7.504  0.00  0.00     0.116 A 
HETATM   32  C   UNK N   1      27.367  24.054  -8.011  0.00  0.00     0.043 A 
HETATM   33  F   UNK N   1      27.086  21.697  -8.108  0.00  0.00    -0.206 F 
HETATM   34  C   UNK N   1      27.155  25.260  -7.343  0.00  0.00     0.015 A 
ENDBRANCH   5  28
TORSDOF 8
ENDMDL
MODEL 9
REMARK VINA RESULT:      -6.9      4.764      8.153
REMARK  8 active torsions:
REMARK  status: ('A' for Active; 'I' for Inactive)
REMARK    1  A    between atoms: C_1  and  C_10 
REMARK    2  A    between atoms: N_2  and  C_6 
REMARK    3  A    between atoms: C_5  and  C_26 
REMARK    4  A    between atoms: C_6  and  O_7 
REMARK    5  A    between atoms: O_7  and  C_8 
REMARK    6  A    between atoms: C_15  and  O_18 
REMARK    7  A    between atoms: O_18  and  C_19 
REMARK    8  A    between atoms: C_24  and  O_25 
ROOT
HETATM    1  C   UNK N   1      29.504  17.567   7.023  0.00  0.00     0.104 A 
HETATM    2  N   UNK N   1      28.386  18.325   7.127  0.00  0.00    -0.222 N 
HETATM    3  O   UNK N   1      28.364  18.890   8.301  0.00  0.00    -0.190 OA
HETATM    4  C   UNK N   1      29.431  18.549   8.985  0.00  0.00     0.318 A 
HETATM    5  C   UNK N   1      30.217  17.696   8.230  0.00  0.00     0.082 A 
HETATM    6  O   UNK N   1      29.674  18.944  10.113  0.00  0.00    -0.257 OA
ENDROOT
BRANCH   1   7
HETATM    7  C   UNK N   1      29.911  16.857   5.771  0.00  0.00     0.066 A 
HETATM    8  C   UNK N   1      29.013  16.023   5.113  0.00  0.00     0.049 A 
HETATM    9  C   UNK N   1      29.390  15.365   3.962  0.00  0.00     0.094 A 
HETATM   10  N   UNK N   1      30.649  15.511   3.504  0.00  0.00    -0.332 N 
HETATM   11  C   UNK N   1      31.554  16.289   4.159  0.00  0.00     0.229 A 
ATOM     12  HN  UNK N   1      30.929  15.029   2.650  1.00  0.00     0.168 HD
HETATM   13  N   UNK N   1      31.179  16.968   5.279  0.00  0.00    -0.320 N 
ATOM     14  HN  UNK N   1      31.854  17.567   5.757  1.00  0.00     0.169 HD
BRANCH  11  15
HETATM   15  O   UNK N   1      32.832  16.371   3.709  0.00  0.00    -0.277 OA
BRANCH  15  16
HETATM   16  C   UNK N   1      33.817  15.497   4.062  0.00  0.00     0.112 A 
HETATM   17  C   UNK N   1      34.535  15.649   5.267  0.00  0.00     0.040 A 
HETATM   18  C   UNK N   1      35.548  14.760   5.617  0.00  0.00     0.003 A 
HETATM   19  C   UNK N   1      35.866  13.707   4.763  0.00  0.00     0.003 A 
HETATM   20  C   UNK N   1      35.171  13.547   3.560  0.00  0.00     0.039 A 
HETATM   21  C   UNK N   1      34.152  14.439   3.207  0.00  0.00     0.099 A 
BRANCH  21  22
HETATM   22  O   UNK N   1      33.495  14.269   2.047  0.00  0.00    -0.358 OA
HETATM   23  H   UNK N   1      33.117  14.868   1.432  0.00  0.00     0.217 HD
ENDBRANCH  21  22
ENDBRANCH  15  16
ENDBRANCH  11  15
ENDBRANCH   1   7
BRANCH   2  24
HETATM   24  C   UNK N   1      27.434  18.627   6.065  0.00  0.00     0.324 C 
BRANCH  24  25
HETATM   25  O   UNK N   1      27.888  19.668   5.260  0.00  0.00    -0.370 OA
BRANCH  25  26
HETATM   26  C   UNK N   1      26.827  20.578   5.262  0.00  0.00     0.165 C 
HETATM   27  C   UNK N   1      27.070  21.656   6.302  0.00  0.00     0.033 C 
ENDBRANCH  25  26
ENDBRANCH  24  25
ENDBRANCH   2  24
BRANCH   5  28
HETATM   28  C   UNK N   1      31.552  17.151   8.605  0.00  0.00    -0.017 A 
HETATM   29  C   UNK N   1      32.690  17.957   8.453  0.00  0.00     0.015 A 
HETATM   30  C   UNK N   1      33.970  17.400   8.579  0.00  0.00     0.043 A 
HETATM   31  C   UNK N   1      34.118  16.041   8.873  0.00  0.00     0.116 A 
HETATM   32  C   UNK N   1      32.994  15.252   9.100  0.00  0.00     0.043 A 
HETATM   33  F   UNK N   1      35.352  15.484   8.927  0.00  0.00    -0.206 F 
HETATM   34  C   UNK N   1      31.722  15.809   8.968  0.00  0.00     0.015 A 
ENDBRANCH   5  28
TORSDOF 8
ENDMDL
