REMARK  8 active torsions:
REMARK  status: ('A' for Active; 'I' for Inactive)
REMARK    1  A    between atoms: C_1  and  C_10 
REMARK    2  A    between atoms: N_2  and  C_6 
REMARK    3  A    between atoms: C_5  and  C_26 
REMARK    4  A    between atoms: C_6  and  O_7 
REMARK    5  A    between atoms: O_7  and  C_8 
REMARK    6  A    between atoms: C_15  and  O_18 
REMARK    7  A    between atoms: O_18  and  C_19 
REMARK    8  A    between atoms: C_24  and  O_25 
ROOT
HETATM    1  C   UNK N   1      -0.679  -1.978  -0.055  0.00  0.00     0.104 A 
HETATM    2  N   UNK N   1       0.426  -2.735  -0.256  0.00  0.00    -0.222 N 
HETATM    3  O   UNK N   1       0.069  -3.982  -0.382  0.00  0.00    -0.190 OA
HETATM    4  C   UNK N   1      -1.235  -4.089  -0.284  0.00  0.00     0.318 A 
HETATM    5  C   UNK N   1      -1.792  -2.840  -0.071  0.00  0.00     0.082 A 
HETATM    6  O   UNK N   1      -1.842  -5.143  -0.377  0.00  0.00    -0.257 OA
ENDROOT
BRANCH   1   7
HETATM    7  C   UNK N   1      -0.658  -0.485   0.027  0.00  0.00     0.066 A 
HETATM    8  C   UNK N   1      -1.836   0.243  -0.102  0.00  0.00     0.049 A 
HETATM    9  C   UNK N   1      -1.815   1.619  -0.030  0.00  0.00     0.094 A 
HETATM   10  N   UNK N   1      -0.636   2.251   0.129  0.00  0.00    -0.332 N 
HETATM   11  C   UNK N   1       0.533   1.557   0.213  0.00  0.00     0.229 A 
ATOM     12  HN  UNK N   1      -0.618   3.269   0.186  1.00  0.00     0.168 HD
HETATM   13  N   UNK N   1       0.516   0.195   0.176  0.00  0.00    -0.320 N 
ATOM     14  HN  UNK N   1       1.391  -0.323   0.260  1.00  0.00     0.169 HD
BRANCH  11  15
HETATM   15  O   UNK N   1       1.712   2.221   0.313  0.00  0.00    -0.277 OA
BRANCH  15  16
HETATM   16  C   UNK N   1       1.893   3.510  -0.095  0.00  0.00     0.112 A 
HETATM   17  C   UNK N   1       0.971   4.142  -0.956  0.00  0.00     0.040 A 
HETATM   18  C   UNK N   1       1.166   5.454  -1.379  0.00  0.00     0.003 A 
HETATM   19  C   UNK N   1       2.292   6.155  -0.953  0.00  0.00     0.003 A 
HETATM   20  C   UNK N   1       3.221   5.541  -0.107  0.00  0.00     0.039 A 
HETATM   21  C   UNK N   1       3.026   4.222   0.320  0.00  0.00     0.099 A 
BRANCH  21  22
HETATM   22  O   UNK N   1       3.929   3.648   1.133  0.00  0.00    -0.358 OA
HETATM   23  H   UNK N   1       3.896   2.902   1.700  0.00  0.00     0.217 HD
ENDBRANCH  21  22
ENDBRANCH  15  16
ENDBRANCH  11  15
ENDBRANCH   1   7
BRANCH   2  24
HETATM   24  C   UNK N   1       1.784  -2.254  -0.480  0.00  0.00     0.324 C 
BRANCH  24  25
HETATM   25  O   UNK N   1       2.662  -2.750   0.480  0.00  0.00    -0.370 OA
BRANCH  25  26
HETATM   26  C   UNK N   1       3.879  -2.140   0.166  0.00  0.00     0.165 C 
HETATM   27  C   UNK N   1       4.808  -3.143  -0.493  0.00  0.00     0.033 C 
ENDBRANCH  25  26
ENDBRANCH  24  25
ENDBRANCH   2  24
BRANCH   5  28
HETATM   28  C   UNK N   1      -3.244  -2.516   0.008  0.00  0.00    -0.017 A 
HETATM   29  C   UNK N   1      -4.146  -3.195  -0.824  0.00  0.00     0.015 A 
HETATM   30  C   UNK N   1      -5.472  -2.755  -0.935  0.00  0.00     0.043 A 
HETATM   31  C   UNK N   1      -5.906  -1.645  -0.203  0.00  0.00     0.116 A 
HETATM   32  C   UNK N   1      -5.037  -1.013   0.682  0.00  0.00     0.043 A 
HETATM   33  F   UNK N   1      -7.166  -1.174  -0.360  0.00  0.00    -0.206 F 
HETATM   34  C   UNK N   1      -3.717  -1.451   0.785  0.00  0.00     0.015 A 
ENDBRANCH   5  28
TORSDOF 8
