MODEL 1
REMARK VINA RESULT:      -6.7      0.000      0.000
REMARK  6 active torsions:
REMARK  status: ('A' for Active; 'I' for Inactive)
REMARK    1  A    between atoms: C_1  and  C_2 
REMARK    2  A    between atoms: C_1  and  P_17 
REMARK    3  A    between atoms: C_4  and  C_9 
REMARK    4  A    between atoms: C_9  and  O_13 
REMARK    5  A    between atoms: P_17  and  O_18 
REMARK    6  A    between atoms: P_17  and  O_19 
ROOT
HETATM    1  C   UNK N   1      27.281  18.598   4.852  0.00  0.00     0.026 A 
HETATM    2  C   UNK N   1      27.525  19.776   4.125  0.00  0.00     0.015 A 
HETATM    3  C   UNK N   1      22.805  20.087   3.034  0.00  0.00     0.038 A 
HETATM    4  C   UNK N   1      22.556  18.971   3.850  0.00  0.00     0.019 A 
HETATM    5  C   UNK N   1      23.604  18.340   4.524  0.00  0.00     0.013 A 
HETATM    6  C   UNK N   1      24.906  18.820   4.394  0.00  0.00    -0.025 A 
HETATM    7  C   UNK N   1      25.964  18.135   4.991  0.00  0.00     0.026 A 
HETATM    8  C   UNK N   1      26.469  20.457   3.504  0.00  0.00     0.013 A 
HETATM    9  C   UNK N   1      25.162  19.971   3.616  0.00  0.00    -0.025 A 
HETATM   10  C   UNK N   1      24.110  20.594   2.936  0.00  0.00     0.030 A 
ENDROOT
BRANCH   1  11
HETATM   11  C   UNK N   1      28.431  17.763   5.355  0.00  0.00     0.364 C 
HETATM   12  F   UNK N   1      29.604  18.231   4.791  0.00  0.00    -0.187 F 
HETATM   13  F   UNK N   1      28.267  16.442   4.973  0.00  0.00    -0.187 F 
BRANCH  11  14
HETATM   14  P   UNK N   1      28.586  17.790   7.209  0.00  0.00     0.315 P 
HETATM   15  O   UNK N   1      28.382  19.233   7.743  0.00  0.00    -0.649 OA
BRANCH  14  16
HETATM   16  O   UNK N   1      27.342  16.880   8.010  0.00  0.00    -0.325 OA
HETATM   17  H   UNK N   1      26.539  16.566   7.566  0.00  0.00     0.220 HD
ENDBRANCH  14  16
BRANCH  14  18
HETATM   18  O   UNK N   1      30.102  17.284   7.884  0.00  0.00    -0.325 OA
HETATM   19  H   UNK N   1      30.374  16.843   8.704  0.00  0.00     0.220 HD
ENDBRANCH  14  18
ENDBRANCH  11  14
ENDBRANCH   1  11
BRANCH   3  20
HETATM   20  C   UNK N   1      21.707  20.682   2.245  0.00  0.00     0.176 C 
HETATM   21  O   UNK N   1      21.663  20.532   1.037  0.00  0.00    -0.646 OA
BRANCH  20  22
HETATM   22  O   UNK N   1      20.770  21.436   2.855  0.00  0.00    -0.773 OA
HETATM   23  H   UNK N   1      19.870  21.393   2.597  0.00  0.00     0.167 HD
ENDBRANCH  20  22
ENDBRANCH   3  20
TORSDOF 6
ENDMDL
MODEL 2
REMARK VINA RESULT:      -6.6      6.657      9.175
REMARK  6 active torsions:
REMARK  status: ('A' for Active; 'I' for Inactive)
REMARK    1  A    between atoms: C_1  and  C_2 
REMARK    2  A    between atoms: C_1  and  P_17 
REMARK    3  A    between atoms: C_4  and  C_9 
REMARK    4  A    between atoms: C_9  and  O_13 
REMARK    5  A    between atoms: P_17  and  O_18 
REMARK    6  A    between atoms: P_17  and  O_19 
ROOT
HETATM    1  C   UNK N   1      21.526  15.296   6.515  0.00  0.00     0.026 A 
HETATM    2  C   UNK N   1      22.879  14.933   6.394  0.00  0.00     0.015 A 
HETATM    3  C   UNK N   1      22.649  12.633  10.662  0.00  0.00     0.038 A 
HETATM    4  C   UNK N   1      21.273  12.909  10.723  0.00  0.00     0.019 A 
HETATM    5  C   UNK N   1      20.649  13.618   9.694  0.00  0.00     0.013 A 
HETATM    6  C   UNK N   1      21.390  14.051   8.596  0.00  0.00    -0.025 A 
HETATM    7  C   UNK N   1      20.787  14.839   7.615  0.00  0.00     0.026 A 
HETATM    8  C   UNK N   1      23.497  14.160   7.387  0.00  0.00     0.013 A 
HETATM    9  C   UNK N   1      22.763  13.737   8.500  0.00  0.00    -0.025 A 
HETATM   10  C   UNK N   1      23.386  13.034   9.538  0.00  0.00     0.030 A 
ENDROOT
BRANCH   1  11
HETATM   11  C   UNK N   1      20.915  16.282   5.552  0.00  0.00     0.364 C 
HETATM   12  F   UNK N   1      19.542  16.280   5.721  0.00  0.00    -0.187 F 
HETATM   13  F   UNK N   1      21.188  15.910   4.247  0.00  0.00    -0.187 F 
BRANCH  11  14
HETATM   14  P   UNK N   1      21.560  18.011   5.783  0.00  0.00     0.315 P 
HETATM   15  O   UNK N   1      21.051  18.931   4.640  0.00  0.00    -0.649 OA
BRANCH  14  16
HETATM   16  O   UNK N   1      20.957  18.778   7.220  0.00  0.00    -0.325 OA
HETATM   17  H   UNK N   1      21.291  19.625   7.555  0.00  0.00     0.220 HD
ENDBRANCH  14  16
BRANCH  14  18
HETATM   18  O   UNK N   1      23.282  18.222   5.780  0.00  0.00    -0.325 OA
HETATM   19  H   UNK N   1      24.017  17.872   6.307  0.00  0.00     0.220 HD
ENDBRANCH  14  18
ENDBRANCH  11  14
ENDBRANCH   1  11
BRANCH   3  20
HETATM   20  C   UNK N   1      23.319  11.975  11.802  0.00  0.00     0.176 C 
HETATM   21  O   UNK N   1      24.535  11.915  11.853  0.00  0.00    -0.646 OA
BRANCH  20  22
HETATM   22  O   UNK N   1      22.584  11.394  12.773  0.00  0.00    -0.773 OA
HETATM   23  H   UNK N   1      22.992  10.933  13.479  0.00  0.00     0.167 HD
ENDBRANCH  20  22
ENDBRANCH   3  20
TORSDOF 6
ENDMDL
MODEL 3
REMARK VINA RESULT:      -6.6      4.460      8.486
REMARK  6 active torsions:
REMARK  status: ('A' for Active; 'I' for Inactive)
REMARK    1  A    between atoms: C_1  and  C_2 
REMARK    2  A    between atoms: C_1  and  P_17 
REMARK    3  A    between atoms: C_4  and  C_9 
REMARK    4  A    between atoms: C_9  and  O_13 
REMARK    5  A    between atoms: P_17  and  O_18 
REMARK    6  A    between atoms: P_17  and  O_19 
ROOT
HETATM    1  C   UNK N   1      29.609  16.807   4.703  0.00  0.00     0.026 A 
HETATM    2  C   UNK N   1      30.763  16.937   3.911  0.00  0.00     0.015 A 
HETATM    3  C   UNK N   1      33.419  17.733   7.895  0.00  0.00     0.038 A 
HETATM    4  C   UNK N   1      32.282  17.497   8.685  0.00  0.00     0.019 A 
HETATM    5  C   UNK N   1      31.059  17.183   8.088  0.00  0.00     0.013 A 
HETATM    6  C   UNK N   1      30.963  17.098   6.699  0.00  0.00    -0.025 A 
HETATM    7  C   UNK N   1      29.723  16.878   6.100  0.00  0.00     0.026 A 
HETATM    8  C   UNK N   1      32.008  17.180   4.506  0.00  0.00     0.013 A 
HETATM    9  C   UNK N   1      32.109  17.284   5.897  0.00  0.00    -0.025 A 
HETATM   10  C   UNK N   1      33.331  17.607   6.500  0.00  0.00     0.030 A 
ENDROOT
BRANCH   1  11
HETATM   11  C   UNK N   1      28.248  16.739   4.060  0.00  0.00     0.364 C 
HETATM   12  F   UNK N   1      27.542  15.687   4.617  0.00  0.00    -0.187 F 
HETATM   13  F   UNK N   1      28.372  16.502   2.701  0.00  0.00    -0.187 F 
BRANCH  11  14
HETATM   14  P   UNK N   1      27.273  18.310   4.263  0.00  0.00     0.315 P 
HETATM   15  O   UNK N   1      26.017  18.283   3.351  0.00  0.00    -0.649 OA
BRANCH  14  16
HETATM   16  O   UNK N   1      26.614  18.502   5.858  0.00  0.00    -0.325 OA
HETATM   17  H   UNK N   1      25.667  18.433   6.057  0.00  0.00     0.220 HD
ENDBRANCH  14  16
BRANCH  14  18
HETATM   18  O   UNK N   1      28.073  19.796   3.861  0.00  0.00    -0.325 OA
HETATM   19  H   UNK N   1      27.857  20.737   3.953  0.00  0.00     0.220 HD
ENDBRANCH  14  18
ENDBRANCH  11  14
ENDBRANCH   1  11
BRANCH   3  20
HETATM   20  C   UNK N   1      34.680  18.165   8.530  0.00  0.00     0.176 C 
HETATM   21  O   UNK N   1      35.316  19.098   8.070  0.00  0.00    -0.646 OA
BRANCH  20  22
HETATM   22  O   UNK N   1      35.160  17.497   9.600  0.00  0.00    -0.773 OA
HETATM   23  H   UNK N   1      35.972  17.032   9.555  0.00  0.00     0.167 HD
ENDBRANCH  20  22
ENDBRANCH   3  20
TORSDOF 6
ENDMDL
MODEL 4
REMARK VINA RESULT:      -6.5      4.505      6.099
REMARK  6 active torsions:
REMARK  status: ('A' for Active; 'I' for Inactive)
REMARK    1  A    between atoms: C_1  and  C_2 
REMARK    2  A    between atoms: C_1  and  P_17 
REMARK    3  A    between atoms: C_4  and  C_9 
REMARK    4  A    between atoms: C_9  and  O_13 
REMARK    5  A    between atoms: P_17  and  O_18 
REMARK    6  A    between atoms: P_17  and  O_19 
ROOT
HETATM    1  C   UNK N   1      31.397  16.306   7.085  0.00  0.00     0.026 A 
HETATM    2  C   UNK N   1      31.098  16.695   8.402  0.00  0.00     0.015 A 
HETATM    3  C   UNK N   1      27.660  19.692   6.743  0.00  0.00     0.038 A 
HETATM    4  C   UNK N   1      27.892  19.218   5.441  0.00  0.00     0.019 A 
HETATM    5  C   UNK N   1      28.862  18.241   5.208  0.00  0.00     0.013 A 
HETATM    6  C   UNK N   1      29.602  17.725   6.271  0.00  0.00    -0.025 A 
HETATM    7  C   UNK N   1      30.633  16.818   6.026  0.00  0.00     0.026 A 
HETATM    8  C   UNK N   1      30.078  17.623   8.653  0.00  0.00     0.013 A 
HETATM    9  C   UNK N   1      29.343  18.157   7.589  0.00  0.00    -0.025 A 
HETATM   10  C   UNK N   1      28.376  19.143   7.817  0.00  0.00     0.030 A 
ENDROOT
BRANCH   1  11
HETATM   11  C   UNK N   1      32.613  15.462   6.799  0.00  0.00     0.364 C 
HETATM   12  F   UNK N   1      32.556  15.024   5.487  0.00  0.00    -0.187 F 
HETATM   13  F   UNK N   1      32.629  14.349   7.623  0.00  0.00    -0.187 F 
BRANCH  11  14
HETATM   14  P   UNK N   1      34.209  16.379   7.071  0.00  0.00     0.315 P 
HETATM   15  O   UNK N   1      35.367  15.677   6.311  0.00  0.00    -0.649 OA
BRANCH  14  16
HETATM   16  O   UNK N   1      34.197  17.981   6.403  0.00  0.00    -0.325 OA
HETATM   17  H   UNK N   1      34.797  18.272   5.698  0.00  0.00     0.220 HD
ENDBRANCH  14  16
BRANCH  14  18
HETATM   18  O   UNK N   1      34.776  16.513   8.705  0.00  0.00    -0.325 OA
HETATM   19  H   UNK N   1      34.907  15.893   9.439  0.00  0.00     0.220 HD
ENDBRANCH  14  18
ENDBRANCH  11  14
ENDBRANCH   1  11
BRANCH   3  20
HETATM   20  C   UNK N   1      26.706  20.799   6.964  0.00  0.00     0.176 C 
HETATM   21  O   UNK N   1      26.632  21.718   6.168  0.00  0.00    -0.646 OA
BRANCH  20  22
HETATM   22  O   UNK N   1      25.943  20.819   8.076  0.00  0.00    -0.773 OA
HETATM   23  H   UNK N   1      26.206  20.365   8.852  0.00  0.00     0.167 HD
ENDBRANCH  20  22
ENDBRANCH   3  20
TORSDOF 6
ENDMDL
MODEL 5
REMARK VINA RESULT:      -6.4     12.055     13.161
REMARK  6 active torsions:
REMARK  status: ('A' for Active; 'I' for Inactive)
REMARK    1  A    between atoms: C_1  and  C_2 
REMARK    2  A    between atoms: C_1  and  P_17 
REMARK    3  A    between atoms: C_4  and  C_9 
REMARK    4  A    between atoms: C_9  and  O_13 
REMARK    5  A    between atoms: P_17  and  O_18 
REMARK    6  A    between atoms: P_17  and  O_19 
ROOT
HETATM    1  C   UNK N   1      26.942  23.573  -6.548  0.00  0.00     0.026 A 
HETATM    2  C   UNK N   1      28.023  23.634  -5.652  0.00  0.00     0.015 A 
HETATM    3  C   UNK N   1      26.403  27.891  -3.974  0.00  0.00     0.038 A 
HETATM    4  C   UNK N   1      25.271  27.770  -4.796  0.00  0.00     0.019 A 
HETATM    5  C   UNK N   1      25.112  26.654  -5.620  0.00  0.00     0.013 A 
HETATM    6  C   UNK N   1      26.079  25.649  -5.628  0.00  0.00    -0.025 A 
HETATM    7  C   UNK N   1      25.967  24.582  -6.519  0.00  0.00     0.026 A 
HETATM    8  C   UNK N   1      28.153  24.715  -4.769  0.00  0.00     0.013 A 
HETATM    9  C   UNK N   1      27.196  25.735  -4.769  0.00  0.00    -0.025 A 
HETATM   10  C   UNK N   1      27.355  26.860  -3.951  0.00  0.00     0.030 A 
ENDROOT
BRANCH   1  11
HETATM   11  C   UNK N   1      26.904  22.519  -7.623  0.00  0.00     0.364 C 
HETATM   12  F   UNK N   1      27.602  21.407  -7.186  0.00  0.00    -0.187 F 
HETATM   13  F   UNK N   1      27.516  22.985  -8.775  0.00  0.00    -0.187 F 
BRANCH  11  14
HETATM   14  P   UNK N   1      25.172  22.015  -8.081  0.00  0.00     0.315 P 
HETATM   15  O   UNK N   1      24.408  23.219  -8.696  0.00  0.00    -0.649 OA
BRANCH  14  16
HETATM   16  O   UNK N   1      25.120  20.816  -9.336  0.00  0.00    -0.325 OA
HETATM   17  H   UNK N   1      25.872  20.613  -9.913  0.00  0.00     0.220 HD
ENDBRANCH  14  16
BRANCH  14  18
HETATM   18  O   UNK N   1      24.145  21.455  -6.800  0.00  0.00    -0.325 OA
HETATM   19  H   UNK N   1      24.203  20.755  -6.130  0.00  0.00     0.220 HD
ENDBRANCH  14  18
ENDBRANCH  11  14
ENDBRANCH   1  11
BRANCH   3  20
HETATM   20  C   UNK N   1      26.612  29.122  -3.184  0.00  0.00     0.176 C 
HETATM   21  O   UNK N   1      27.286  29.097  -2.169  0.00  0.00    -0.646 OA
BRANCH  20  22
HETATM   22  O   UNK N   1      26.017  30.273  -3.559  0.00  0.00    -0.773 OA
HETATM   23  H   UNK N   1      25.096  30.310  -3.728  0.00  0.00     0.167 HD
ENDBRANCH  20  22
ENDBRANCH   3  20
TORSDOF 6
ENDMDL
MODEL 6
REMARK VINA RESULT:      -6.4     15.703     18.428
REMARK  6 active torsions:
REMARK  status: ('A' for Active; 'I' for Inactive)
REMARK    1  A    between atoms: C_1  and  C_2 
REMARK    2  A    between atoms: C_1  and  P_17 
REMARK    3  A    between atoms: C_4  and  C_9 
REMARK    4  A    between atoms: C_9  and  O_13 
REMARK    5  A    between atoms: P_17  and  O_18 
REMARK    6  A    between atoms: P_17  and  O_19 
ROOT
HETATM    1  C   UNK N   1      35.036  10.952  19.576  0.00  0.00     0.026 A 
HETATM    2  C   UNK N   1      35.201  12.335  19.760  0.00  0.00     0.015 A 
HETATM    3  C   UNK N   1      35.395  12.959  14.950  0.00  0.00     0.038 A 
HETATM    4  C   UNK N   1      35.123  11.592  14.775  0.00  0.00     0.019 A 
HETATM    5  C   UNK N   1      34.942  10.760  15.881  0.00  0.00     0.013 A 
HETATM    6  C   UNK N   1      35.025  11.285  17.170  0.00  0.00    -0.025 A 
HETATM    7  C   UNK N   1      34.937  10.438  18.274  0.00  0.00     0.026 A 
HETATM    8  C   UNK N   1      35.312  13.189  18.654  0.00  0.00     0.013 A 
HETATM    9  C   UNK N   1      35.247  12.667  17.359  0.00  0.00    -0.025 A 
HETATM   10  C   UNK N   1      35.437  13.495  16.246  0.00  0.00     0.030 A 
ENDROOT
BRANCH   1  11
HETATM   11  C   UNK N   1      35.110  10.014  20.753  0.00  0.00     0.364 C 
HETATM   12  F   UNK N   1      36.165  10.395  21.564  0.00  0.00    -0.187 F 
HETATM   13  F   UNK N   1      35.346   8.719  20.321  0.00  0.00    -0.187 F 
BRANCH  11  14
HETATM   14  P   UNK N   1      33.543   9.988  21.756  0.00  0.00     0.315 P 
HETATM   15  O   UNK N   1      33.760   9.191  23.070  0.00  0.00    -0.649 OA
BRANCH  14  16
HETATM   16  O   UNK N   1      33.063  11.562  22.310  0.00  0.00    -0.325 OA
HETATM   17  H   UNK N   1      33.587  12.094  22.929  0.00  0.00     0.220 HD
ENDBRANCH  14  16
BRANCH  14  18
HETATM   18  O   UNK N   1      32.148   9.258  21.027  0.00  0.00    -0.325 OA
HETATM   19  H   UNK N   1      31.539   8.545  21.275  0.00  0.00     0.220 HD
ENDBRANCH  14  18
ENDBRANCH  11  14
ENDBRANCH   1  11
BRANCH   3  20
HETATM   20  C   UNK N   1      35.687  13.808  13.778  0.00  0.00     0.176 C 
HETATM   21  O   UNK N   1      34.938  13.813  12.816  0.00  0.00    -0.646 OA
BRANCH  20  22
HETATM   22  O   UNK N   1      36.812  14.551  13.746  0.00  0.00    -0.773 OA
HETATM   23  H   UNK N   1      37.542  14.302  13.213  0.00  0.00     0.167 HD
ENDBRANCH  20  22
ENDBRANCH   3  20
TORSDOF 6
ENDMDL
MODEL 7
REMARK VINA RESULT:      -6.4     14.444     17.521
REMARK  6 active torsions:
REMARK  status: ('A' for Active; 'I' for Inactive)
REMARK    1  A    between atoms: C_1  and  C_2 
REMARK    2  A    between atoms: C_1  and  P_17 
REMARK    3  A    between atoms: C_4  and  C_9 
REMARK    4  A    between atoms: C_9  and  O_13 
REMARK    5  A    between atoms: P_17  and  O_18 
REMARK    6  A    between atoms: P_17  and  O_19 
ROOT
HETATM    1  C   UNK N   1      36.208  12.525  14.179  0.00  0.00     0.026 A 
HETATM    2  C   UNK N   1      36.576  11.177  14.326  0.00  0.00     0.015 A 
HETATM    3  C   UNK N   1      35.548  11.404  19.064  0.00  0.00     0.038 A 
HETATM    4  C   UNK N   1      35.082  12.717  18.887  0.00  0.00     0.019 A 
HETATM    5  C   UNK N   1      35.107  13.312  17.624  0.00  0.00     0.013 A 
HETATM    6  C   UNK N   1      35.593  12.600  16.527  0.00  0.00    -0.025 A 
HETATM    7  C   UNK N   1      35.705  13.225  15.286  0.00  0.00     0.026 A 
HETATM    8  C   UNK N   1      36.486  10.549  15.576  0.00  0.00     0.013 A 
HETATM    9  C   UNK N   1      36.017  11.263  16.683  0.00  0.00    -0.025 A 
HETATM   10  C   UNK N   1      35.997  10.674  17.953  0.00  0.00     0.030 A 
ENDROOT
BRANCH   1  11
HETATM   11  C   UNK N   1      36.485  13.253  12.889  0.00  0.00     0.364 C 
HETATM   12  F   UNK N   1      37.646  12.748  12.330  0.00  0.00    -0.187 F 
HETATM   13  F   UNK N   1      36.675  14.603  13.130  0.00  0.00    -0.187 F 
BRANCH  11  14
HETATM   14  P   UNK N   1      35.095  13.099  11.661  0.00  0.00     0.315 P 
HETATM   15  O   UNK N   1      35.662  12.982  10.221  0.00  0.00    -0.649 OA
BRANCH  14  16
HETATM   16  O   UNK N   1      34.173  11.640  11.854  0.00  0.00    -0.325 OA
HETATM   17  H   UNK N   1      34.406  10.939  12.483  0.00  0.00     0.220 HD
ENDBRANCH  14  16
BRANCH  14  18
HETATM   18  O   UNK N   1      33.961  14.410  11.579  0.00  0.00    -0.325 OA
HETATM   19  H   UNK N   1      34.007  15.340  11.307  0.00  0.00     0.220 HD
ENDBRANCH  14  18
ENDBRANCH  11  14
ENDBRANCH   1  11
BRANCH   3  20
HETATM   20  C   UNK N   1      35.612  10.822  20.420  0.00  0.00     0.176 C 
HETATM   21  O   UNK N   1      34.663  10.207  20.874  0.00  0.00    -0.646 OA
BRANCH  20  22
HETATM   22  O   UNK N   1      36.709  11.009  21.183  0.00  0.00    -0.773 OA
HETATM   23  H   UNK N   1      37.140  11.841  21.216  0.00  0.00     0.167 HD
ENDBRANCH  20  22
ENDBRANCH   3  20
TORSDOF 6
ENDMDL
MODEL 8
REMARK VINA RESULT:      -6.3      4.613      8.510
REMARK  6 active torsions:
REMARK  status: ('A' for Active; 'I' for Inactive)
REMARK    1  A    between atoms: C_1  and  C_2 
REMARK    2  A    between atoms: C_1  and  P_17 
REMARK    3  A    between atoms: C_4  and  C_9 
REMARK    4  A    between atoms: C_9  and  O_13 
REMARK    5  A    between atoms: P_17  and  O_18 
REMARK    6  A    between atoms: P_17  and  O_19 
ROOT
HETATM    1  C   UNK N   1      28.570  16.958   6.434  0.00  0.00     0.026 A 
HETATM    2  C   UNK N   1      28.486  17.477   7.738  0.00  0.00     0.015 A 
HETATM    3  C   UNK N   1      33.320  17.886   7.895  0.00  0.00     0.038 A 
HETATM    4  C   UNK N   1      33.386  17.468   6.555  0.00  0.00     0.019 A 
HETATM    5  C   UNK N   1      32.219  17.158   5.853  0.00  0.00     0.013 A 
HETATM    6  C   UNK N   1      30.978  17.268   6.480  0.00  0.00    -0.025 A 
HETATM    7  C   UNK N   1      29.822  16.869   5.809  0.00  0.00     0.026 A 
HETATM    8  C   UNK N   1      29.646  17.859   8.425  0.00  0.00     0.013 A 
HETATM    9  C   UNK N   1      30.895  17.735   7.809  0.00  0.00    -0.025 A 
HETATM   10  C   UNK N   1      32.068  18.036   8.511  0.00  0.00     0.030 A 
ENDROOT
BRANCH   1  11
HETATM   11  C   UNK N   1      27.352  16.370   5.770  0.00  0.00     0.364 C 
HETATM   12  F   UNK N   1      26.531  15.824   6.741  0.00  0.00    -0.187 F 
HETATM   13  F   UNK N   1      27.721  15.357   4.901  0.00  0.00    -0.187 F 
BRANCH  11  14
HETATM   14  P   UNK N   1      26.390  17.623   4.786  0.00  0.00     0.315 P 
HETATM   15  O   UNK N   1      27.337  18.390   3.824  0.00  0.00    -0.649 OA
BRANCH  14  16
HETATM   16  O   UNK N   1      25.224  16.903   3.720  0.00  0.00    -0.325 OA
HETATM   17  H   UNK N   1      24.570  16.246   4.007  0.00  0.00     0.220 HD
ENDBRANCH  14  16
BRANCH  14  18
HETATM   18  O   UNK N   1      25.568  18.866   5.674  0.00  0.00    -0.325 OA
HETATM   19  H   UNK N   1      24.639  19.109   5.813  0.00  0.00     0.220 HD
ENDBRANCH  14  18
ENDBRANCH  11  14
ENDBRANCH   1  11
BRANCH   3  20
HETATM   20  C   UNK N   1      34.564  18.112   8.658  0.00  0.00     0.176 C 
HETATM   21  O   UNK N   1      34.893  17.342   9.544  0.00  0.00    -0.646 OA
BRANCH  20  22
HETATM   22  O   UNK N   1      35.321  19.199   8.408  0.00  0.00    -0.773 OA
HETATM   23  H   UNK N   1      36.130  19.341   8.860  0.00  0.00     0.167 HD
ENDBRANCH  20  22
ENDBRANCH   3  20
TORSDOF 6
ENDMDL
MODEL 9
REMARK VINA RESULT:      -6.2     15.067     18.082
REMARK  6 active torsions:
REMARK  status: ('A' for Active; 'I' for Inactive)
REMARK    1  A    between atoms: C_1  and  C_2 
REMARK    2  A    between atoms: C_1  and  P_17 
REMARK    3  A    between atoms: C_4  and  C_9 
REMARK    4  A    between atoms: C_9  and  O_13 
REMARK    5  A    between atoms: P_17  and  O_18 
REMARK    6  A    between atoms: P_17  and  O_19 
ROOT
HETATM    1  C   UNK N   1      35.089  12.030  14.847  0.00  0.00     0.026 A 
HETATM    2  C   UNK N   1      34.863  10.645  14.928  0.00  0.00     0.015 A 
HETATM    3  C   UNK N   1      35.174  10.870  19.767  0.00  0.00     0.038 A 
HETATM    4  C   UNK N   1      35.293  12.267  19.681  0.00  0.00     0.019 A 
HETATM    5  C   UNK N   1      35.276  12.903  18.438  0.00  0.00     0.013 A 
HETATM    6  C   UNK N   1      35.135  12.152  17.272  0.00  0.00    -0.025 A 
HETATM    7  C   UNK N   1      35.212  12.777  16.028  0.00  0.00     0.026 A 
HETATM    8  C   UNK N   1      34.806  10.008  16.175  0.00  0.00     0.013 A 
HETATM    9  C   UNK N   1      34.964  10.753  17.348  0.00  0.00    -0.025 A 
HETATM   10  C   UNK N   1      34.991  10.119  18.596  0.00  0.00     0.030 A 
ENDROOT
BRANCH   1  11
HETATM   11  C   UNK N   1      35.341  12.682  13.512  0.00  0.00     0.364 C 
HETATM   12  F   UNK N   1      35.253  14.055  13.660  0.00  0.00    -0.187 F 
HETATM   13  F   UNK N   1      34.381  12.286  12.596  0.00  0.00    -0.187 F 
BRANCH  11  14
HETATM   14  P   UNK N   1      37.003  12.247  12.798  0.00  0.00     0.315 P 
HETATM   15  O   UNK N   1      36.878  11.016  11.859  0.00  0.00    -0.649 OA
BRANCH  14  16
HETATM   16  O   UNK N   1      37.645  13.484  11.762  0.00  0.00    -0.325 OA
HETATM   17  H   UNK N   1      37.306  14.393  11.740  0.00  0.00     0.220 HD
ENDBRANCH  14  16
BRANCH  14  18
HETATM   18  O   UNK N   1      38.258  11.817  13.916  0.00  0.00    -0.325 OA
HETATM   19  H   UNK N   1      38.557  12.155  14.775  0.00  0.00     0.220 HD
ENDBRANCH  14  18
ENDBRANCH  11  14
ENDBRANCH   1  11
BRANCH   3  20
HETATM   20  C   UNK N   1      35.298  10.199  21.077  0.00  0.00     0.176 C 
HETATM   21  O   UNK N   1      34.379   9.530  21.516  0.00  0.00    -0.646 OA
BRANCH  20  22
HETATM   22  O   UNK N   1      36.414  10.362  21.816  0.00  0.00    -0.773 OA
HETATM   23  H   UNK N   1      36.513   9.935  22.644  0.00  0.00     0.167 HD
ENDBRANCH  20  22
ENDBRANCH   3  20
TORSDOF 6
ENDMDL
