MODEL 1
REMARK VINA RESULT:      -6.4      0.000      0.000
REMARK  6 active torsions:
REMARK  status: ('A' for Active; 'I' for Inactive)
REMARK    1  A    between atoms: O_1  and  C_2 
REMARK    2  A    between atoms: C_5  and  C_4 
REMARK    3  A    between atoms: C_6  and  C_7 
REMARK    4  A    between atoms: C_9  and  O_10 
REMARK    5  A    between atoms: C_11  and  O_12 
REMARK    6  A    between atoms: C_16  and  O_17 
ROOT
HETATM    1  C   UNK N   1      36.000  13.125  14.960  0.00  0.00     0.012 C 
HETATM    2  C   UNK N   1      35.084  12.449  15.657  0.00  0.00     0.012 C 
ENDROOT
BRANCH   1   3
HETATM    3  C   UNK N   1      35.803  13.492  13.558  0.00  0.00    -0.031 A 
HETATM    4  C   UNK N   1      35.049  12.648  12.740  0.00  0.00     0.048 A 
HETATM    5  C   UNK N   1      34.844  12.973  11.399  0.00  0.00     0.069 A 
HETATM    6  C   UNK N   1      35.394  14.145  10.870  0.00  0.00     0.073 A 
HETATM    7  C   UNK N   1      36.150  14.992  11.687  0.00  0.00     0.069 A 
HETATM    8  C   UNK N   1      36.354  14.667  13.028  0.00  0.00     0.048 A 
BRANCH   5   9
HETATM    9  O   UNK N   1      34.118  12.158  10.617  0.00  0.00    -0.361 OA
HETATM   10  H   UNK N   1      33.281  12.436  10.299  0.00  0.00     0.217 HD
ENDBRANCH   5   9
BRANCH   7  11
HETATM   11  O   UNK N   1      36.679  16.118  11.183  0.00  0.00    -0.361 OA
HETATM   12  H   UNK N   1      36.823  16.195  10.260  0.00  0.00     0.217 HD
ENDBRANCH   7  11
ENDBRANCH   1   3
BRANCH   2  13
HETATM   13  C   UNK N   1      35.313  12.097  17.061  0.00  0.00    -0.033 A 
HETATM   14  C   UNK N   1      34.980  12.990  18.089  0.00  0.00     0.050 A 
HETATM   15  C   UNK N   1      35.202  12.646  19.419  0.00  0.00     0.099 A 
HETATM   16  C   UNK N   1      35.760  11.399  19.735  0.00  0.00     0.098 A 
HETATM   17  C   UNK N   1      36.092  10.505  18.710  0.00  0.00     0.040 A 
HETATM   18  C   UNK N   1      35.869  10.854  17.375  0.00  0.00     0.014 A 
BRANCH  15  19
HETATM   19  O   UNK N   1      34.878  13.513  20.394  0.00  0.00    -0.358 OA
HETATM   20  H   UNK N   1      34.076  13.994  20.347  0.00  0.00     0.217 HD
ENDBRANCH  15  19
BRANCH  16  21
HETATM   21  O   UNK N   1      35.977  11.057  21.014  0.00  0.00    -0.358 OA
HETATM   22  H   UNK N   1      35.757  11.655  21.702  0.00  0.00     0.217 HD
ENDBRANCH  16  21
ENDBRANCH   2  13
TORSDOF 6
ENDMDL
MODEL 2
REMARK VINA RESULT:      -6.4      0.092      1.953
REMARK  6 active torsions:
REMARK  status: ('A' for Active; 'I' for Inactive)
REMARK    1  A    between atoms: O_1  and  C_2 
REMARK    2  A    between atoms: C_5  and  C_4 
REMARK    3  A    between atoms: C_6  and  C_7 
REMARK    4  A    between atoms: C_9  and  O_10 
REMARK    5  A    between atoms: C_11  and  O_12 
REMARK    6  A    between atoms: C_16  and  O_17 
ROOT
HETATM    1  C   UNK N   1      35.962  13.091  14.874  0.00  0.00     0.012 C 
HETATM    2  C   UNK N   1      35.030  12.465  15.596  0.00  0.00     0.012 C 
ENDROOT
BRANCH   1   3
HETATM    3  C   UNK N   1      35.752  13.454  13.472  0.00  0.00    -0.031 A 
HETATM    4  C   UNK N   1      36.334  14.626  12.986  0.00  0.00     0.048 A 
HETATM    5  C   UNK N   1      36.152  14.997  11.653  0.00  0.00     0.069 A 
HETATM    6  C   UNK N   1      35.385  14.195  10.802  0.00  0.00     0.073 A 
HETATM    7  C   UNK N   1      34.801  13.020  11.286  0.00  0.00     0.069 A 
HETATM    8  C   UNK N   1      34.984  12.650  12.618  0.00  0.00     0.048 A 
BRANCH   5   9
HETATM    9  O   UNK N   1      36.713  16.125  11.190  0.00  0.00    -0.361 OA
HETATM   10  H   UNK N   1      37.557  16.096  10.783  0.00  0.00     0.217 HD
ENDBRANCH   5   9
BRANCH   7  11
HETATM   11  O   UNK N   1      34.065  12.248  10.472  0.00  0.00    -0.361 OA
HETATM   12  H   UNK N   1      33.216  12.534  10.196  0.00  0.00     0.217 HD
ENDBRANCH   7  11
ENDBRANCH   1   3
BRANCH   2  13
HETATM   13  C   UNK N   1      35.272  12.116  16.999  0.00  0.00    -0.033 A 
HETATM   14  C   UNK N   1      34.954  13.014  18.028  0.00  0.00     0.050 A 
HETATM   15  C   UNK N   1      35.187  12.673  19.356  0.00  0.00     0.099 A 
HETATM   16  C   UNK N   1      35.743  11.425  19.670  0.00  0.00     0.098 A 
HETATM   17  C   UNK N   1      36.061  10.526  18.645  0.00  0.00     0.040 A 
HETATM   18  C   UNK N   1      35.826  10.872  17.312  0.00  0.00     0.014 A 
BRANCH  15  19
HETATM   19  O   UNK N   1      34.877  13.545  20.332  0.00  0.00    -0.358 OA
HETATM   20  H   UNK N   1      34.231  14.206  20.182  0.00  0.00     0.217 HD
ENDBRANCH  15  19
BRANCH  16  21
HETATM   21  O   UNK N   1      35.972  11.086  20.948  0.00  0.00    -0.358 OA
HETATM   22  H   UNK N   1      36.177  10.198  21.167  0.00  0.00     0.217 HD
ENDBRANCH  16  21
ENDBRANCH   2  13
TORSDOF 6
ENDMDL
MODEL 3
REMARK VINA RESULT:      -6.3     14.860     18.543
REMARK  6 active torsions:
REMARK  status: ('A' for Active; 'I' for Inactive)
REMARK    1  A    between atoms: O_1  and  C_2 
REMARK    2  A    between atoms: C_5  and  C_4 
REMARK    3  A    between atoms: C_6  and  C_7 
REMARK    4  A    between atoms: C_9  and  O_10 
REMARK    5  A    between atoms: C_11  and  O_12 
REMARK    6  A    between atoms: C_16  and  O_17 
ROOT
HETATM    1  C   UNK N   1      24.263  19.560   3.650  0.00  0.00     0.012 C 
HETATM    2  C   UNK N   1      23.340  18.777   4.214  0.00  0.00     0.012 C 
ENDROOT
BRANCH   1   3
HETATM    3  C   UNK N   1      25.643  19.616   4.132  0.00  0.00    -0.031 A 
HETATM    4  C   UNK N   1      26.554  18.659   3.679  0.00  0.00     0.048 A 
HETATM    5  C   UNK N   1      27.877  18.688   4.122  0.00  0.00     0.069 A 
HETATM    6  C   UNK N   1      28.293  19.675   5.021  0.00  0.00     0.073 A 
HETATM    7  C   UNK N   1      27.382  20.634   5.476  0.00  0.00     0.069 A 
HETATM    8  C   UNK N   1      26.060  20.605   5.033  0.00  0.00     0.048 A 
BRANCH   5   9
HETATM    9  O   UNK N   1      28.748  17.766   3.683  0.00  0.00    -0.361 OA
HETATM   10  H   UNK N   1      29.670  17.924   3.748  0.00  0.00     0.217 HD
ENDBRANCH   5   9
BRANCH   7  11
HETATM   11  O   UNK N   1      27.779  21.583   6.338  0.00  0.00    -0.361 OA
HETATM   12  H   UNK N   1      28.158  21.341   7.161  0.00  0.00     0.217 HD
ENDBRANCH   7  11
ENDBRANCH   1   3
BRANCH   2  13
HETATM   13  C   UNK N   1      21.966  18.744   3.706  0.00  0.00    -0.033 A 
HETATM   14  C   UNK N   1      21.156  17.615   3.899  0.00  0.00     0.050 A 
HETATM   15  C   UNK N   1      19.852  17.595   3.413  0.00  0.00     0.099 A 
HETATM   16  C   UNK N   1      19.344  18.707   2.728  0.00  0.00     0.098 A 
HETATM   17  C   UNK N   1      20.150  19.835   2.535  0.00  0.00     0.040 A 
HETATM   18  C   UNK N   1      21.459  19.853   3.024  0.00  0.00     0.014 A 
BRANCH  15  19
HETATM   19  O   UNK N   1      19.088  16.505   3.604  0.00  0.00    -0.358 OA
HETATM   20  H   UNK N   1      18.922  15.918   2.894  0.00  0.00     0.217 HD
ENDBRANCH  15  19
BRANCH  16  21
HETATM   21  O   UNK N   1      18.088  18.696   2.255  0.00  0.00    -0.358 OA
HETATM   22  H   UNK N   1      17.713  17.897   1.941  0.00  0.00     0.217 HD
ENDBRANCH  16  21
ENDBRANCH   2  13
TORSDOF 6
ENDMDL
MODEL 4
REMARK VINA RESULT:      -6.2     16.293     19.965
REMARK  6 active torsions:
REMARK  status: ('A' for Active; 'I' for Inactive)
REMARK    1  A    between atoms: O_1  and  C_2 
REMARK    2  A    between atoms: C_5  and  C_4 
REMARK    3  A    between atoms: C_6  and  C_7 
REMARK    4  A    between atoms: C_9  and  O_10 
REMARK    5  A    between atoms: C_11  and  O_12 
REMARK    6  A    between atoms: C_16  and  O_17 
ROOT
HETATM    1  C   UNK N   1      21.085  17.500   5.562  0.00  0.00     0.012 C 
HETATM    2  C   UNK N   1      20.523  17.243   4.378  0.00  0.00     0.012 C 
ENDROOT
BRANCH   1   3
HETATM    3  C   UNK N   1      21.009  16.565   6.684  0.00  0.00    -0.031 A 
HETATM    4  C   UNK N   1      19.887  16.601   7.515  0.00  0.00     0.048 A 
HETATM    5  C   UNK N   1      19.787  15.721   8.593  0.00  0.00     0.069 A 
HETATM    6  C   UNK N   1      20.811  14.801   8.844  0.00  0.00     0.073 A 
HETATM    7  C   UNK N   1      21.935  14.764   8.013  0.00  0.00     0.069 A 
HETATM    8  C   UNK N   1      22.035  15.643   6.935  0.00  0.00     0.048 A 
BRANCH   5   9
HETATM    9  O   UNK N   1      18.707  15.758   9.389  0.00  0.00    -0.361 OA
HETATM   10  H   UNK N   1      17.923  16.182   9.096  0.00  0.00     0.217 HD
ENDBRANCH   5   9
BRANCH   7  11
HETATM   11  O   UNK N   1      22.919  13.882   8.251  0.00  0.00    -0.361 OA
HETATM   12  H   UNK N   1      23.061  13.168   7.662  0.00  0.00     0.217 HD
ENDBRANCH   7  11
ENDBRANCH   1   3
BRANCH   2  13
HETATM   13  C   UNK N   1      20.618  18.202   3.274  0.00  0.00    -0.033 A 
HETATM   14  C   UNK N   1      21.073  19.510   3.495  0.00  0.00     0.050 A 
HETATM   15  C   UNK N   1      21.159  20.412   2.439  0.00  0.00     0.099 A 
HETATM   16  C   UNK N   1      20.789  20.013   1.147  0.00  0.00     0.098 A 
HETATM   17  C   UNK N   1      20.335  18.708   0.924  0.00  0.00     0.040 A 
HETATM   18  C   UNK N   1      20.250  17.804   1.986  0.00  0.00     0.014 A 
BRANCH  15  19
HETATM   19  O   UNK N   1      21.596  21.663   2.667  0.00  0.00    -0.358 OA
HETATM   20  H   UNK N   1      21.739  21.958   3.544  0.00  0.00     0.217 HD
ENDBRANCH  15  19
BRANCH  16  21
HETATM   21  O   UNK N   1      20.869  20.876   0.122  0.00  0.00    -0.358 OA
HETATM   22  H   UNK N   1      20.090  21.139  -0.329  0.00  0.00     0.217 HD
ENDBRANCH  16  21
ENDBRANCH   2  13
TORSDOF 6
ENDMDL
MODEL 5
REMARK VINA RESULT:      -6.2     21.155     24.269
REMARK  6 active torsions:
REMARK  status: ('A' for Active; 'I' for Inactive)
REMARK    1  A    between atoms: O_1  and  C_2 
REMARK    2  A    between atoms: C_5  and  C_4 
REMARK    3  A    between atoms: C_6  and  C_7 
REMARK    4  A    between atoms: C_9  and  O_10 
REMARK    5  A    between atoms: C_11  and  O_12 
REMARK    6  A    between atoms: C_16  and  O_17 
ROOT
HETATM    1  C   UNK N   1      28.142  24.069  -4.298  0.00  0.00     0.012 C 
HETATM    2  C   UNK N   1      28.926  23.531  -5.235  0.00  0.00     0.012 C 
ENDROOT
BRANCH   1   3
HETATM    3  C   UNK N   1      27.206  25.155  -4.589  0.00  0.00    -0.031 A 
HETATM    4  C   UNK N   1      26.754  25.320  -5.900  0.00  0.00     0.048 A 
HETATM    5  C   UNK N   1      25.861  26.348  -6.207  0.00  0.00     0.069 A 
HETATM    6  C   UNK N   1      25.417  27.214  -5.202  0.00  0.00     0.073 A 
HETATM    7  C   UNK N   1      25.869  27.050  -3.889  0.00  0.00     0.069 A 
HETATM    8  C   UNK N   1      26.761  26.024  -3.582  0.00  0.00     0.048 A 
BRANCH   5   9
HETATM    9  O   UNK N   1      25.429  26.503  -7.468  0.00  0.00    -0.361 OA
HETATM   10  H   UNK N   1      24.832  27.195  -7.678  0.00  0.00     0.217 HD
ENDBRANCH   5   9
BRANCH   7  11
HETATM   11  O   UNK N   1      25.445  27.880  -2.923  0.00  0.00    -0.361 OA
HETATM   12  H   UNK N   1      26.033  28.509  -2.554  0.00  0.00     0.217 HD
ENDBRANCH   7  11
ENDBRANCH   1   3
BRANCH   2  13
HETATM   13  C   UNK N   1      29.853  22.443  -4.910  0.00  0.00    -0.033 A 
HETATM   14  C   UNK N   1      30.556  22.437  -3.696  0.00  0.00     0.050 A 
HETATM   15  C   UNK N   1      31.434  21.400  -3.398  0.00  0.00     0.099 A 
HETATM   16  C   UNK N   1      31.618  20.354  -4.313  0.00  0.00     0.098 A 
HETATM   17  C   UNK N   1      30.918  20.359  -5.525  0.00  0.00     0.040 A 
HETATM   18  C   UNK N   1      30.037  21.402  -5.823  0.00  0.00     0.014 A 
BRANCH  15  19
HETATM   19  O   UNK N   1      32.100  21.407  -2.230  0.00  0.00    -0.358 OA
HETATM   20  H   UNK N   1      33.024  21.559  -2.218  0.00  0.00     0.217 HD
ENDBRANCH  15  19
BRANCH  16  21
HETATM   21  O   UNK N   1      32.462  19.349  -4.035  0.00  0.00    -0.358 OA
HETATM   22  H   UNK N   1      33.386  19.509  -4.007  0.00  0.00     0.217 HD
ENDBRANCH  16  21
ENDBRANCH   2  13
TORSDOF 6
ENDMDL
MODEL 6
REMARK VINA RESULT:      -6.2      0.923      7.416
REMARK  6 active torsions:
REMARK  status: ('A' for Active; 'I' for Inactive)
REMARK    1  A    between atoms: O_1  and  C_2 
REMARK    2  A    between atoms: C_5  and  C_4 
REMARK    3  A    between atoms: C_6  and  C_7 
REMARK    4  A    between atoms: C_9  and  O_10 
REMARK    5  A    between atoms: C_11  and  O_12 
REMARK    6  A    between atoms: C_16  and  O_17 
ROOT
HETATM    1  C   UNK N   1      35.238  12.421  15.522  0.00  0.00     0.012 C 
HETATM    2  C   UNK N   1      35.873  13.444  14.945  0.00  0.00     0.012 C 
ENDROOT
BRANCH   1   3
HETATM    3  C   UNK N   1      35.364  12.127  16.949  0.00  0.00    -0.031 A 
HETATM    4  C   UNK N   1      35.844  10.875  17.338  0.00  0.00     0.048 A 
HETATM    5  C   UNK N   1      35.975  10.566  18.693  0.00  0.00     0.069 A 
HETATM    6  C   UNK N   1      35.625  11.510  19.663  0.00  0.00     0.073 A 
HETATM    7  C   UNK N   1      35.144  12.765  19.276  0.00  0.00     0.069 A 
HETATM    8  C   UNK N   1      35.014  13.074  17.922  0.00  0.00     0.048 A 
BRANCH   5   9
HETATM    9  O   UNK N   1      36.436   9.361  19.062  0.00  0.00    -0.361 OA
HETATM   10  H   UNK N   1      35.836   8.663  19.243  0.00  0.00     0.217 HD
ENDBRANCH   5   9
BRANCH   7  11
HETATM   11  O   UNK N   1      34.808  13.673  20.205  0.00  0.00    -0.361 OA
HETATM   12  H   UNK N   1      33.960  14.072  20.186  0.00  0.00     0.217 HD
ENDBRANCH   7  11
ENDBRANCH   1   3
BRANCH   2  13
HETATM   13  C   UNK N   1      35.726  13.712  13.511  0.00  0.00    -0.033 A 
HETATM   14  C   UNK N   1      36.289  14.859  12.933  0.00  0.00     0.050 A 
HETATM   15  C   UNK N   1      36.143  15.104  11.571  0.00  0.00     0.099 A 
HETATM   16  C   UNK N   1      35.430  14.201  10.771  0.00  0.00     0.098 A 
HETATM   17  C   UNK N   1      34.866  13.055  11.346  0.00  0.00     0.040 A 
HETATM   18  C   UNK N   1      35.014  12.811  12.714  0.00  0.00     0.014 A 
BRANCH  15  19
HETATM   19  O   UNK N   1      36.689  16.208  11.032  0.00  0.00    -0.358 OA
HETATM   20  H   UNK N   1      36.597  16.376  10.115  0.00  0.00     0.217 HD
ENDBRANCH  15  19
BRANCH  16  21
HETATM   21  O   UNK N   1      35.283  14.428   9.457  0.00  0.00    -0.358 OA
HETATM   22  H   UNK N   1      34.460  14.726   9.123  0.00  0.00     0.217 HD
ENDBRANCH  16  21
ENDBRANCH   2  13
TORSDOF 6
ENDMDL
MODEL 7
REMARK VINA RESULT:      -6.2     13.850     15.678
REMARK  6 active torsions:
REMARK  status: ('A' for Active; 'I' for Inactive)
REMARK    1  A    between atoms: O_1  and  C_2 
REMARK    2  A    between atoms: C_5  and  C_4 
REMARK    3  A    between atoms: C_6  and  C_7 
REMARK    4  A    between atoms: C_9  and  O_10 
REMARK    5  A    between atoms: C_11  and  O_12 
REMARK    6  A    between atoms: C_16  and  O_17 
ROOT
HETATM    1  C   UNK N   1      21.332  15.073   8.077  0.00  0.00     0.012 C 
HETATM    2  C   UNK N   1      22.226  14.091   8.217  0.00  0.00     0.012 C 
ENDROOT
BRANCH   1   3
HETATM    3  C   UNK N   1      21.189  15.831   6.834  0.00  0.00    -0.031 A 
HETATM    4  C   UNK N   1      19.971  15.784   6.153  0.00  0.00     0.048 A 
HETATM    5  C   UNK N   1      19.806  16.496   4.964  0.00  0.00     0.069 A 
HETATM    6  C   UNK N   1      20.861  17.259   4.453  0.00  0.00     0.073 A 
HETATM    7  C   UNK N   1      22.082  17.308   5.134  0.00  0.00     0.069 A 
HETATM    8  C   UNK N   1      22.247  16.596   6.321  0.00  0.00     0.048 A 
BRANCH   5   9
HETATM    9  O   UNK N   1      18.633  16.448   4.313  0.00  0.00    -0.361 OA
HETATM   10  H   UNK N   1      18.390  15.675   3.842  0.00  0.00     0.217 HD
ENDBRANCH   5   9
BRANCH   7  11
HETATM   11  O   UNK N   1      23.096  18.039   4.645  0.00  0.00    -0.361 OA
HETATM   12  H   UNK N   1      23.197  18.934   4.906  0.00  0.00     0.217 HD
ENDBRANCH   7  11
ENDBRANCH   1   3
BRANCH   2  13
HETATM   13  C   UNK N   1      22.343  13.351   9.476  0.00  0.00    -0.033 A 
HETATM   14  C   UNK N   1      23.601  13.058  10.022  0.00  0.00     0.050 A 
HETATM   15  C   UNK N   1      23.702  12.354  11.218  0.00  0.00     0.099 A 
HETATM   16  C   UNK N   1      22.541  11.937  11.883  0.00  0.00     0.098 A 
HETATM   17  C   UNK N   1      21.284  12.229  11.341  0.00  0.00     0.040 A 
HETATM   18  C   UNK N   1      21.185  12.935  10.139  0.00  0.00     0.014 A 
BRANCH  15  19
HETATM   19  O   UNK N   1      24.915  12.080  11.729  0.00  0.00    -0.358 OA
HETATM   20  H   UNK N   1      25.103  11.223  12.057  0.00  0.00     0.217 HD
ENDBRANCH  15  19
BRANCH  16  21
HETATM   21  O   UNK N   1      22.627  11.258  13.038  0.00  0.00    -0.358 OA
HETATM   22  H   UNK N   1      21.945  10.663  13.283  0.00  0.00     0.217 HD
ENDBRANCH  16  21
ENDBRANCH   2  13
TORSDOF 6
ENDMDL
MODEL 8
REMARK VINA RESULT:      -6.1      3.293      8.884
REMARK  6 active torsions:
REMARK  status: ('A' for Active; 'I' for Inactive)
REMARK    1  A    between atoms: O_1  and  C_2 
REMARK    2  A    between atoms: C_5  and  C_4 
REMARK    3  A    between atoms: C_6  and  C_7 
REMARK    4  A    between atoms: C_9  and  O_10 
REMARK    5  A    between atoms: C_11  and  O_12 
REMARK    6  A    between atoms: C_16  and  O_17 
ROOT
HETATM    1  C   UNK N   1      35.563  14.854  11.470  0.00  0.00     0.012 C 
HETATM    2  C   UNK N   1      34.388  15.112  10.890  0.00  0.00     0.012 C 
ENDROOT
BRANCH   1   3
HETATM    3  C   UNK N   1      35.669  14.119  12.731  0.00  0.00    -0.031 A 
HETATM    4  C   UNK N   1      36.470  14.640  13.748  0.00  0.00     0.048 A 
HETATM    5  C   UNK N   1      36.591  13.961  14.961  0.00  0.00     0.069 A 
HETATM    6  C   UNK N   1      35.908  12.757  15.160  0.00  0.00     0.073 A 
HETATM    7  C   UNK N   1      35.105  12.232  14.142  0.00  0.00     0.069 A 
HETATM    8  C   UNK N   1      34.985  12.911  12.930  0.00  0.00     0.048 A 
BRANCH   5   9
HETATM    9  O   UNK N   1      37.362  14.466  15.936  0.00  0.00    -0.361 OA
HETATM   10  H   UNK N   1      37.604  13.932  16.668  0.00  0.00     0.217 HD
ENDBRANCH   5   9
BRANCH   7  11
HETATM   11  O   UNK N   1      34.449  11.077  14.330  0.00  0.00    -0.361 OA
HETATM   12  H   UNK N   1      34.920  10.267  14.340  0.00  0.00     0.217 HD
ENDBRANCH   7  11
ENDBRANCH   1   3
BRANCH   2  13
HETATM   13  C   UNK N   1      34.316  15.851   9.627  0.00  0.00    -0.033 A 
HETATM   14  C   UNK N   1      34.718  17.193   9.556  0.00  0.00     0.050 A 
HETATM   15  C   UNK N   1      34.646  17.885   8.351  0.00  0.00     0.099 A 
HETATM   16  C   UNK N   1      34.169  17.240   7.201  0.00  0.00     0.098 A 
HETATM   17  C   UNK N   1      33.767  15.901   7.270  0.00  0.00     0.040 A 
HETATM   18  C   UNK N   1      33.841  15.208   8.481  0.00  0.00     0.014 A 
BRANCH  15  19
HETATM   19  O   UNK N   1      35.035  19.171   8.298  0.00  0.00    -0.358 OA
HETATM   20  H   UNK N   1      34.485  19.812   7.894  0.00  0.00     0.217 HD
ENDBRANCH  15  19
BRANCH  16  21
HETATM   21  O   UNK N   1      34.095  17.899   6.035  0.00  0.00    -0.358 OA
HETATM   22  H   UNK N   1      33.998  18.832   6.030  0.00  0.00     0.217 HD
ENDBRANCH  16  21
ENDBRANCH   2  13
TORSDOF 6
ENDMDL
MODEL 9
REMARK VINA RESULT:      -6.1     13.725     15.714
REMARK  6 active torsions:
REMARK  status: ('A' for Active; 'I' for Inactive)
REMARK    1  A    between atoms: O_1  and  C_2 
REMARK    2  A    between atoms: C_5  and  C_4 
REMARK    3  A    between atoms: C_6  and  C_7 
REMARK    4  A    between atoms: C_9  and  O_10 
REMARK    5  A    between atoms: C_11  and  O_12 
REMARK    6  A    between atoms: C_16  and  O_17 
ROOT
HETATM    1  C   UNK N   1      21.566  15.035   7.736  0.00  0.00     0.012 C 
HETATM    2  C   UNK N   1      22.334  13.955   7.899  0.00  0.00     0.012 C 
ENDROOT
BRANCH   1   3
HETATM    3  C   UNK N   1      21.438  15.717   6.448  0.00  0.00    -0.031 A 
HETATM    4  C   UNK N   1      22.589  16.212   5.831  0.00  0.00     0.048 A 
HETATM    5  C   UNK N   1      22.498  16.867   4.602  0.00  0.00     0.069 A 
HETATM    6  C   UNK N   1      21.253  17.029   3.986  0.00  0.00     0.073 A 
HETATM    7  C   UNK N   1      20.099  16.534   4.602  0.00  0.00     0.069 A 
HETATM    8  C   UNK N   1      20.190  15.879   5.830  0.00  0.00     0.048 A 
BRANCH   5   9
HETATM    9  O   UNK N   1      23.607  17.341   4.014  0.00  0.00    -0.361 OA
HETATM   10  H   UNK N   1      23.944  18.182   4.255  0.00  0.00     0.217 HD
ENDBRANCH   5   9
BRANCH   7  11
HETATM   11  O   UNK N   1      18.903  16.688   4.013  0.00  0.00    -0.361 OA
HETATM   12  H   UNK N   1      18.193  17.076   4.486  0.00  0.00     0.217 HD
ENDBRANCH   7  11
ENDBRANCH   1   3
BRANCH   2  13
HETATM   13  C   UNK N   1      22.440  13.295   9.204  0.00  0.00    -0.033 A 
HETATM   14  C   UNK N   1      23.692  13.054   9.787  0.00  0.00     0.050 A 
HETATM   15  C   UNK N   1      23.781  12.426  11.025  0.00  0.00     0.099 A 
HETATM   16  C   UNK N   1      22.615  12.033  11.696  0.00  0.00     0.098 A 
HETATM   17  C   UNK N   1      21.364  12.273  11.116  0.00  0.00     0.040 A 
HETATM   18  C   UNK N   1      21.277  12.903   9.871  0.00  0.00     0.014 A 
BRANCH  15  19
HETATM   19  O   UNK N   1      24.989  12.201  11.572  0.00  0.00    -0.358 OA
HETATM   20  H   UNK N   1      25.745  12.126  11.024  0.00  0.00     0.217 HD
ENDBRANCH  15  19
BRANCH  16  21
HETATM   21  O   UNK N   1      22.691  11.427  12.891  0.00  0.00    -0.358 OA
HETATM   22  H   UNK N   1      22.526  11.915  13.674  0.00  0.00     0.217 HD
ENDBRANCH  16  21
ENDBRANCH   2  13
TORSDOF 6
ENDMDL
