REMARK  6 active torsions:
REMARK  status: ('A' for Active; 'I' for Inactive)
REMARK    1  A    between atoms: O_1  and  C_2 
REMARK    2  A    between atoms: C_5  and  C_4 
REMARK    3  A    between atoms: C_6  and  C_7 
REMARK    4  A    between atoms: C_9  and  O_10 
REMARK    5  A    between atoms: C_11  and  O_12 
REMARK    6  A    between atoms: C_16  and  O_17 
ROOT
HETATM    1  C   UNK N   1       2.981  -3.388  -0.000  0.00  0.00     0.012 C 
HETATM    2  C   UNK N   1       3.404  -4.654   0.000  0.00  0.00     0.012 C 
ENDROOT
BRANCH   1   3
HETATM    3  C   UNK N   1       1.561  -3.037  -0.000  0.00  0.00    -0.031 A 
HETATM    4  C   UNK N   1       1.201  -1.688  -0.000  0.00  0.00     0.048 A 
HETATM    5  C   UNK N   1      -0.146  -1.323  -0.000  0.00  0.00     0.069 A 
HETATM    6  C   UNK N   1      -1.138  -2.309   0.000  0.00  0.00     0.073 A 
HETATM    7  C   UNK N   1      -0.780  -3.661   0.000  0.00  0.00     0.069 A 
HETATM    8  C   UNK N   1       0.566  -4.025  -0.000  0.00  0.00     0.048 A 
BRANCH   5   9
HETATM    9  O   UNK N   1      -0.487  -0.025   0.000  0.00  0.00    -0.361 OA
HETATM   10  H   UNK N   1       0.179   0.635   0.000  0.00  0.00     0.217 HD
ENDBRANCH   5   9
BRANCH   7  11
HETATM   11  O   UNK N   1      -1.730  -4.609   0.000  0.00  0.00    -0.361 OA
HETATM   12  H   UNK N   1      -2.635  -4.366   0.000  0.00  0.00     0.217 HD
ENDBRANCH   7  11
ENDBRANCH   1   3
BRANCH   2  13
HETATM   13  C   UNK N   1       4.835  -4.972   0.000  0.00  0.00    -0.033 A 
HETATM   14  C   UNK N   1       5.797  -3.952   0.000  0.00  0.00     0.050 A 
HETATM   15  C   UNK N   1       7.153  -4.265  -0.000  0.00  0.00     0.099 A 
HETATM   16  C   UNK N   1       7.561  -5.606   0.000  0.00  0.00     0.098 A 
HETATM   17  C   UNK N   1       6.602  -6.626   0.000  0.00  0.00     0.040 A 
HETATM   18  C   UNK N   1       5.241  -6.309   0.000  0.00  0.00     0.014 A 
BRANCH  15  19
HETATM   19  O   UNK N   1       8.064  -3.276  -0.000  0.00  0.00    -0.358 OA
HETATM   20  H   UNK N   1       8.978  -3.480  -0.000  0.00  0.00     0.217 HD
ENDBRANCH  15  19
BRANCH  16  21
HETATM   21  O   UNK N   1       8.866  -5.918  -0.000  0.00  0.00    -0.358 OA
HETATM   22  H   UNK N   1       9.132  -6.817  -0.000  0.00  0.00     0.217 HD
ENDBRANCH  16  21
ENDBRANCH   2  13
TORSDOF 6
