REMARK  6 active torsions:
REMARK  status: ('A' for Active; 'I' for Inactive)
REMARK       I    between atoms: C_2  and  N_3 
REMARK    1  A    between atoms: C_2  and  O_28 
REMARK    2  A    between atoms: C_8  and  C_9 
REMARK    3  A    between atoms: C_9  and  C_10 
REMARK    4  A    between atoms: C_15  and  O_16 
REMARK    5  A    between atoms: O_16  and  C_17 
REMARK    6  A    between atoms: C_23  and  C_24 
ROOT
HETATM    1  C   UNK N   1       0.257  -0.991  -0.620  0.00  0.00    -0.055 A 
HETATM    2  C   UNK N   1       1.386  -1.747  -0.275  0.00  0.00     0.007 A 
HETATM    3  C   UNK N   1       1.242  -3.074   0.153  0.00  0.00     0.003 A 
HETATM    4  C   UNK N   1      -0.029  -3.661   0.222  0.00  0.00     0.037 A 
HETATM    5  C   UNK N   1      -0.996  -1.575  -0.537  0.00  0.00     0.044 A 
HETATM    6  C   UNK N   1      -1.158  -2.911  -0.116  0.00  0.00     0.078 A 
ENDROOT
BRANCH   6   7
HETATM    7  O   UNK N   1      -2.402  -3.458  -0.057  0.00  0.00    -0.294 OA
BRANCH   7   8
HETATM    8  C   UNK N   1      -3.472  -2.643   0.072  0.00  0.00     0.147 A 
HETATM    9  C   UNK N   1      -4.538  -2.721  -0.828  0.00  0.00     0.057 A 
HETATM   10  C   UNK N   1      -5.518  -1.723  -0.799  0.00  0.00     0.022 A 
HETATM   11  C   UNK N   1      -5.425  -0.678   0.135  0.00  0.00     0.063 A 
HETATM   12  C   UNK N   1      -4.381  -0.684   1.056  0.00  0.00     0.106 A 
HETATM   13  N   UNK N   1      -3.436  -1.649   1.002  0.00  0.00    -0.346 N 
ATOM     14  HN  UNK N   1      -2.672  -1.631   1.677  1.00  0.00     0.167 HD
BRANCH  11  15
HETATM   15  C   UNK N   1      -6.378   0.474   0.136  0.00  0.00     0.418 C 
HETATM   16  F   UNK N   1      -7.310   0.355  -0.879  0.00  0.00    -0.166 F 
HETATM   17  F   UNK N   1      -5.661   1.644  -0.053  0.00  0.00    -0.166 F 
HETATM   18  F   UNK N   1      -7.031   0.537   1.353  0.00  0.00    -0.166 F 
ENDBRANCH  11  15
ENDBRANCH   7   8
ENDBRANCH   6   7
BRANCH   1  19
HETATM   19  C   UNK N   1       0.360   0.423  -1.111  0.00  0.00     0.043 C 
BRANCH  19  20
HETATM   20  C   UNK N   1       1.194   1.287  -0.183  0.00  0.00    -0.007 C 
HETATM   21  C   UNK N   1       2.669   1.017  -0.472  0.00  0.00     0.025 C 
HETATM   22  C   UNK N   1       3.525   1.828   0.482  0.00  0.00     0.129 C 
HETATM   23  N   UNK N   1       3.173   3.222   0.352  0.00  0.00    -0.329 N 
HETATM   24  C   UNK N   1       4.125   4.141   0.037  0.00  0.00     0.252 C 
HETATM   25  C   UNK N   1       1.786   3.607   0.539  0.00  0.00     0.129 C 
HETATM   26  O   UNK N   1       3.836   5.322  -0.069  0.00  0.00    -0.632 OA
HETATM   27  C   UNK N   1       0.896   2.775  -0.390  0.00  0.00     0.025 C 
BRANCH  24  28
HETATM   28  O   UNK N   1       5.403   3.753  -0.156  0.00  0.00    -0.760 OA
HETATM   29  H   UNK N   1       5.614   2.850  -0.291  0.00  0.00     0.169 HD
ENDBRANCH  24  28
ENDBRANCH  19  20
ENDBRANCH   1  19
TORSDOF 6
