MODEL 1
REMARK VINA RESULT:      -8.2      0.000      0.000
REMARK  6 active torsions:
REMARK  status: ('A' for Active; 'I' for Inactive)
REMARK       I    between atoms: C_2  and  N_3 
REMARK    1  A    between atoms: C_2  and  O_28 
REMARK    2  A    between atoms: C_8  and  C_9 
REMARK    3  A    between atoms: C_9  and  C_10 
REMARK    4  A    between atoms: C_15  and  O_16 
REMARK    5  A    between atoms: O_16  and  C_17 
REMARK    6  A    between atoms: C_23  and  C_24 
ROOT
HETATM    1  C   UNK N   1      33.051  17.326   7.341  0.00  0.00    -0.055 A 
HETATM    2  C   UNK N   1      33.909  17.419   6.237  0.00  0.00     0.007 A 
HETATM    3  C   UNK N   1      33.410  17.239   4.939  0.00  0.00     0.003 A 
HETATM    4  C   UNK N   1      32.047  16.984   4.734  0.00  0.00     0.037 A 
HETATM    5  C   UNK N   1      31.708  17.061   7.131  0.00  0.00     0.044 A 
HETATM    6  C   UNK N   1      31.188  16.885   5.832  0.00  0.00     0.078 A 
ENDROOT
BRANCH   6   7
HETATM    7  O   UNK N   1      29.861  16.638   5.659  0.00  0.00    -0.294 OA
BRANCH   7   8
HETATM    8  C   UNK N   1      28.981  17.654   5.795  0.00  0.00     0.147 A 
HETATM    9  C   UNK N   1      28.599  18.417   4.689  0.00  0.00     0.057 A 
HETATM   10  C   UNK N   1      27.865  19.589   4.900  0.00  0.00     0.022 A 
HETATM   11  C   UNK N   1      27.514  19.969   6.206  0.00  0.00     0.063 A 
HETATM   12  C   UNK N   1      27.858  19.138   7.268  0.00  0.00     0.106 A 
HETATM   13  N   UNK N   1      28.580  18.017   7.045  0.00  0.00    -0.346 N 
ATOM     14  HN  UNK N   1      28.834  17.426   7.836  1.00  0.00     0.167 HD
BRANCH  11  15
HETATM   15  C   UNK N   1      26.832  21.266   6.500  0.00  0.00     0.418 C 
HETATM   16  F   UNK N   1      26.220  21.242   7.741  0.00  0.00    -0.166 F 
HETATM   17  F   UNK N   1      25.866  21.490   5.533  0.00  0.00    -0.166 F 
HETATM   18  F   UNK N   1      27.754  22.296   6.464  0.00  0.00    -0.166 F 
ENDBRANCH  11  15
ENDBRANCH   7   8
ENDBRANCH   6   7
BRANCH   1  19
HETATM   19  C   UNK N   1      33.529  17.538   8.747  0.00  0.00     0.043 C 
BRANCH  19  20
HETATM   20  C   UNK N   1      34.353  16.367   9.249  0.00  0.00    -0.007 C 
HETATM   21  C   UNK N   1      35.339  16.886  10.294  0.00  0.00     0.025 C 
HETATM   22  C   UNK N   1      36.214  15.743  10.772  0.00  0.00     0.129 C 
HETATM   23  N   UNK N   1      35.366  14.688  11.275  0.00  0.00    -0.329 N 
HETATM   24  C   UNK N   1      35.519  14.236  12.548  0.00  0.00     0.252 C 
HETATM   25  C   UNK N   1      34.340  14.147  10.401  0.00  0.00     0.129 C 
HETATM   26  O   UNK N   1      34.811  13.340  12.978  0.00  0.00    -0.632 OA
HETATM   27  C   UNK N   1      33.464  15.289   9.876  0.00  0.00     0.025 C 
BRANCH  24  28
HETATM   28  O   UNK N   1      36.465  14.773  13.348  0.00  0.00    -0.760 OA
HETATM   29  H   UNK N   1      37.315  14.978  13.012  0.00  0.00     0.169 HD
ENDBRANCH  24  28
ENDBRANCH  19  20
ENDBRANCH   1  19
TORSDOF 6
ENDMDL
MODEL 2
REMARK VINA RESULT:      -8.2     12.642     15.443
REMARK  6 active torsions:
REMARK  status: ('A' for Active; 'I' for Inactive)
REMARK       I    between atoms: C_2  and  N_3 
REMARK    1  A    between atoms: C_2  and  O_28 
REMARK    2  A    between atoms: C_8  and  C_9 
REMARK    3  A    between atoms: C_9  and  C_10 
REMARK    4  A    between atoms: C_15  and  O_16 
REMARK    5  A    between atoms: O_16  and  C_17 
REMARK    6  A    between atoms: C_23  and  C_24 
ROOT
HETATM    1  C   UNK N   1      26.274  25.169  -4.047  0.00  0.00    -0.055 A 
HETATM    2  C   UNK N   1      25.578  25.190  -5.264  0.00  0.00     0.007 A 
HETATM    3  C   UNK N   1      25.049  26.393  -5.753  0.00  0.00     0.003 A 
HETATM    4  C   UNK N   1      25.228  27.586  -5.039  0.00  0.00     0.037 A 
HETATM    5  C   UNK N   1      26.436  26.351  -3.343  0.00  0.00     0.044 A 
HETATM    6  C   UNK N   1      25.917  27.570  -3.824  0.00  0.00     0.078 A 
ENDROOT
BRANCH   6   7
HETATM    7  O   UNK N   1      26.103  28.715  -3.114  0.00  0.00    -0.294 OA
BRANCH   7   8
HETATM    8  C   UNK N   1      27.361  29.161  -2.906  0.00  0.00     0.147 A 
HETATM    9  C   UNK N   1      28.295  29.166  -3.946  0.00  0.00     0.057 A 
HETATM   10  C   UNK N   1      29.637  29.423  -3.644  0.00  0.00     0.022 A 
HETATM   11  C   UNK N   1      30.018  29.686  -2.318  0.00  0.00     0.063 A 
HETATM   12  C   UNK N   1      29.039  29.738  -1.330  0.00  0.00     0.106 A 
HETATM   13  N   UNK N   1      27.750  29.472  -1.639  0.00  0.00    -0.346 N 
ATOM     14  HN  UNK N   1      27.049  29.504  -0.900  1.00  0.00     0.167 HD
BRANCH  11  15
HETATM   15  C   UNK N   1      31.450  29.853  -1.922  0.00  0.00     0.418 C 
HETATM   16  F   UNK N   1      31.643  31.030  -1.222  0.00  0.00    -0.166 F 
HETATM   17  F   UNK N   1      32.228  29.884  -3.068  0.00  0.00    -0.166 F 
HETATM   18  F   UNK N   1      31.844  28.784  -1.138  0.00  0.00    -0.166 F 
ENDBRANCH  11  15
ENDBRANCH   7   8
ENDBRANCH   6   7
BRANCH   1  19
HETATM   19  C   UNK N   1      26.884  23.914  -3.495  0.00  0.00     0.043 C 
BRANCH  19  20
HETATM   20  C   UNK N   1      28.393  24.020  -3.379  0.00  0.00    -0.007 C 
HETATM   21  C   UNK N   1      28.848  23.145  -2.213  0.00  0.00     0.025 C 
HETATM   22  C   UNK N   1      30.349  23.277  -2.040  0.00  0.00     0.129 C 
HETATM   23  N   UNK N   1      30.992  22.932  -3.285  0.00  0.00    -0.329 N 
HETATM   24  C   UNK N   1      31.923  21.940  -3.322  0.00  0.00     0.252 C 
HETATM   25  C   UNK N   1      30.604  23.647  -4.487  0.00  0.00     0.129 C 
HETATM   26  O   UNK N   1      32.475  21.647  -4.370  0.00  0.00    -0.632 OA
HETATM   27  C   UNK N   1      29.085  23.558  -4.665  0.00  0.00     0.025 C 
BRANCH  24  28
HETATM   28  O   UNK N   1      32.248  21.274  -2.194  0.00  0.00    -0.760 OA
HETATM   29  H   UNK N   1      32.110  21.662  -1.353  0.00  0.00     0.169 HD
ENDBRANCH  24  28
ENDBRANCH  19  20
ENDBRANCH   1  19
TORSDOF 6
ENDMDL
MODEL 3
REMARK VINA RESULT:      -7.9      5.226     10.861
REMARK  6 active torsions:
REMARK  status: ('A' for Active; 'I' for Inactive)
REMARK       I    between atoms: C_2  and  N_3 
REMARK    1  A    between atoms: C_2  and  O_28 
REMARK    2  A    between atoms: C_8  and  C_9 
REMARK    3  A    between atoms: C_9  and  C_10 
REMARK    4  A    between atoms: C_15  and  O_16 
REMARK    5  A    between atoms: O_16  and  C_17 
REMARK    6  A    between atoms: C_23  and  C_24 
ROOT
HETATM    1  C   UNK N   1      26.511  19.580   4.886  0.00  0.00    -0.055 A 
HETATM    2  C   UNK N   1      26.740  20.863   5.402  0.00  0.00     0.007 A 
HETATM    3  C   UNK N   1      27.485  21.027   6.578  0.00  0.00     0.003 A 
HETATM    4  C   UNK N   1      28.023  19.912   7.236  0.00  0.00     0.037 A 
HETATM    5  C   UNK N   1      27.036  18.483   5.550  0.00  0.00     0.044 A 
HETATM    6  C   UNK N   1      27.794  18.631   6.729  0.00  0.00     0.078 A 
ENDROOT
BRANCH   6   7
HETATM    7  O   UNK N   1      28.305  17.534   7.350  0.00  0.00    -0.294 OA
BRANCH   7   8
HETATM    8  C   UNK N   1      29.645  17.360   7.379  0.00  0.00     0.147 A 
HETATM    9  C   UNK N   1      30.371  17.628   8.542  0.00  0.00     0.057 A 
HETATM   10  C   UNK N   1      31.769  17.651   8.473  0.00  0.00     0.022 A 
HETATM   11  C   UNK N   1      32.413  17.392   7.252  0.00  0.00     0.063 A 
HETATM   12  C   UNK N   1      31.646  17.062   6.138  0.00  0.00     0.106 A 
HETATM   13  N   UNK N   1      30.296  17.059   6.222  0.00  0.00    -0.346 N 
ATOM     14  HN  UNK N   1      29.750  16.827   5.393  1.00  0.00     0.167 HD
BRANCH  11  15
HETATM   15  C   UNK N   1      33.894  17.515   7.093  0.00  0.00     0.418 C 
HETATM   16  F   UNK N   1      34.373  18.651   7.720  0.00  0.00    -0.166 F 
HETATM   17  F   UNK N   1      34.192  17.593   5.743  0.00  0.00    -0.166 F 
HETATM   18  F   UNK N   1      34.514  16.401   7.628  0.00  0.00    -0.166 F 
ENDBRANCH  11  15
ENDBRANCH   7   8
ENDBRANCH   6   7
BRANCH   1  19
HETATM   19  C   UNK N   1      25.745  19.352   3.616  0.00  0.00     0.043 C 
BRANCH  19  20
HETATM   20  C   UNK N   1      24.261  19.617   3.793  0.00  0.00    -0.007 C 
HETATM   21  C   UNK N   1      23.775  20.437   2.600  0.00  0.00     0.025 C 
HETATM   22  C   UNK N   1      22.304  20.763   2.780  0.00  0.00     0.129 C 
HETATM   23  N   UNK N   1      21.572  19.531   2.952  0.00  0.00    -0.329 N 
HETATM   24  C   UNK N   1      20.545  19.224   2.115  0.00  0.00     0.252 C 
HETATM   25  C   UNK N   1      21.976  18.627   4.013  0.00  0.00     0.129 C 
HETATM   26  O   UNK N   1      19.917  18.187   2.257  0.00  0.00    -0.632 OA
HETATM   27  C   UNK N   1      23.468  18.310   3.873  0.00  0.00     0.025 C 
BRANCH  24  28
HETATM   28  O   UNK N   1      20.206  20.071   1.120  0.00  0.00    -0.760 OA
HETATM   29  H   UNK N   1      19.528  20.707   1.243  0.00  0.00     0.169 HD
ENDBRANCH  24  28
ENDBRANCH  19  20
ENDBRANCH   1  19
TORSDOF 6
ENDMDL
MODEL 4
REMARK VINA RESULT:      -7.6      7.304     11.426
REMARK  6 active torsions:
REMARK  status: ('A' for Active; 'I' for Inactive)
REMARK       I    between atoms: C_2  and  N_3 
REMARK    1  A    between atoms: C_2  and  O_28 
REMARK    2  A    between atoms: C_8  and  C_9 
REMARK    3  A    between atoms: C_9  and  C_10 
REMARK    4  A    between atoms: C_15  and  O_16 
REMARK    5  A    between atoms: O_16  and  C_17 
REMARK    6  A    between atoms: C_23  and  C_24 
ROOT
HETATM    1  C   UNK N   1      35.939  12.708  10.945  0.00  0.00    -0.055 A 
HETATM    2  C   UNK N   1      37.272  12.374  11.226  0.00  0.00     0.007 A 
HETATM    3  C   UNK N   1      37.644  11.995  12.523  0.00  0.00     0.003 A 
HETATM    4  C   UNK N   1      36.686  11.930  13.544  0.00  0.00     0.037 A 
HETATM    5  C   UNK N   1      35.002  12.653  11.962  0.00  0.00     0.044 A 
HETATM    6  C   UNK N   1      35.358  12.266  13.271  0.00  0.00     0.078 A 
ENDROOT
BRANCH   6   7
HETATM    7  O   UNK N   1      34.410  12.211  14.244  0.00  0.00    -0.294 OA
BRANCH   7   8
HETATM    8  C   UNK N   1      34.796  12.038  15.527  0.00  0.00     0.147 A 
HETATM    9  C   UNK N   1      34.945  10.755  16.059  0.00  0.00     0.057 A 
HETATM   10  C   UNK N   1      35.128  10.615  17.439  0.00  0.00     0.022 A 
HETATM   11  C   UNK N   1      35.175  11.755  18.258  0.00  0.00     0.063 A 
HETATM   12  C   UNK N   1      35.092  13.014  17.670  0.00  0.00     0.106 A 
HETATM   13  N   UNK N   1      34.900  13.128  16.337  0.00  0.00    -0.346 N 
ATOM     14  HN  UNK N   1      34.830  14.058  15.926  1.00  0.00     0.167 HD
BRANCH  11  15
HETATM   15  C   UNK N   1      35.254  11.660  19.748  0.00  0.00     0.418 C 
HETATM   16  F   UNK N   1      34.409  10.679  20.234  0.00  0.00    -0.166 F 
HETATM   17  F   UNK N   1      34.879  12.878  20.291  0.00  0.00    -0.166 F 
HETATM   18  F   UNK N   1      36.552  11.378  20.129  0.00  0.00    -0.166 F 
ENDBRANCH  11  15
ENDBRANCH   7   8
ENDBRANCH   6   7
BRANCH   1  19
HETATM   19  C   UNK N   1      35.484  13.092   9.568  0.00  0.00     0.043 C 
BRANCH  19  20
HETATM   20  C   UNK N   1      34.712  14.399   9.568  0.00  0.00    -0.007 C 
HETATM   21  C   UNK N   1      35.672  15.524   9.947  0.00  0.00     0.025 C 
HETATM   22  C   UNK N   1      34.911  16.835  10.009  0.00  0.00     0.129 C 
HETATM   23  N   UNK N   1      34.260  17.055   8.740  0.00  0.00    -0.329 N 
HETATM   24  C   UNK N   1      34.504  18.192   8.034  0.00  0.00     0.252 C 
HETATM   25  C   UNK N   1      33.367  16.029   8.232  0.00  0.00     0.129 C 
HETATM   26  O   UNK N   1      33.953  18.388   6.964  0.00  0.00    -0.632 OA
HETATM   27  C   UNK N   1      34.103  14.686   8.193  0.00  0.00     0.025 C 
BRANCH  24  28
HETATM   28  O   UNK N   1      35.358  19.118   8.518  0.00  0.00    -0.760 OA
HETATM   29  H   UNK N   1      36.052  18.873   9.098  0.00  0.00     0.169 HD
ENDBRANCH  24  28
ENDBRANCH  19  20
ENDBRANCH   1  19
TORSDOF 6
ENDMDL
MODEL 5
REMARK VINA RESULT:      -7.6      5.834     10.800
REMARK  6 active torsions:
REMARK  status: ('A' for Active; 'I' for Inactive)
REMARK       I    between atoms: C_2  and  N_3 
REMARK    1  A    between atoms: C_2  and  O_28 
REMARK    2  A    between atoms: C_8  and  C_9 
REMARK    3  A    between atoms: C_9  and  C_10 
REMARK    4  A    between atoms: C_15  and  O_16 
REMARK    5  A    between atoms: O_16  and  C_17 
REMARK    6  A    between atoms: C_23  and  C_24 
ROOT
HETATM    1  C   UNK N   1      23.905  19.428   3.644  0.00  0.00    -0.055 A 
HETATM    2  C   UNK N   1      24.578  20.498   3.038  0.00  0.00     0.007 A 
HETATM    3  C   UNK N   1      25.979  20.535   3.028  0.00  0.00     0.003 A 
HETATM    4  C   UNK N   1      26.718  19.494   3.607  0.00  0.00     0.037 A 
HETATM    5  C   UNK N   1      24.643  18.411   4.226  0.00  0.00     0.044 A 
HETATM    6  C   UNK N   1      26.053  18.428   4.218  0.00  0.00     0.078 A 
ENDROOT
BRANCH   6   7
HETATM    7  O   UNK N   1      26.748  17.407   4.787  0.00  0.00    -0.294 OA
BRANCH   7   8
HETATM    8  C   UNK N   1      27.689  17.690   5.714  0.00  0.00     0.147 A 
HETATM    9  C   UNK N   1      29.008  17.260   5.543  0.00  0.00     0.057 A 
HETATM   10  C   UNK N   1      29.899  17.377   6.615  0.00  0.00     0.022 A 
HETATM   11  C   UNK N   1      29.464  17.933   7.829  0.00  0.00     0.063 A 
HETATM   12  C   UNK N   1      28.159  18.411   7.926  0.00  0.00     0.106 A 
HETATM   13  N   UNK N   1      27.310  18.275   6.883  0.00  0.00    -0.346 N 
ATOM     14  HN  UNK N   1      26.355  18.620   6.976  1.00  0.00     0.167 HD
BRANCH  11  15
HETATM   15  C   UNK N   1      30.337  17.977   9.041  0.00  0.00     0.418 C 
HETATM   16  F   UNK N   1      30.257  16.799   9.761  0.00  0.00    -0.166 F 
HETATM   17  F   UNK N   1      29.922  19.022   9.850  0.00  0.00    -0.166 F 
HETATM   18  F   UNK N   1      31.649  18.195   8.662  0.00  0.00    -0.166 F 
ENDBRANCH  11  15
ENDBRANCH   7   8
ENDBRANCH   6   7
BRANCH   1  19
HETATM   19  C   UNK N   1      22.408  19.327   3.656  0.00  0.00     0.043 C 
BRANCH  19  20
HETATM   20  C   UNK N   1      21.932  18.004   4.226  0.00  0.00    -0.007 C 
HETATM   21  C   UNK N   1      21.483  18.235   5.667  0.00  0.00     0.025 C 
HETATM   22  C   UNK N   1      21.055  16.914   6.278  0.00  0.00     0.129 C 
HETATM   23  N   UNK N   1      20.021  16.334   5.454  0.00  0.00    -0.329 N 
HETATM   24  C   UNK N   1      18.812  16.021   5.992  0.00  0.00     0.252 C 
HETATM   25  C   UNK N   1      20.298  16.120   4.045  0.00  0.00     0.129 C 
HETATM   26  O   UNK N   1      17.936  15.525   5.303  0.00  0.00    -0.632 OA
HETATM   27  C   UNK N   1      20.767  17.434   3.412  0.00  0.00     0.025 C 
BRANCH  24  28
HETATM   28  O   UNK N   1      18.573  16.253   7.300  0.00  0.00    -0.760 OA
HETATM   29  H   UNK N   1      17.706  16.444   7.601  0.00  0.00     0.169 HD
ENDBRANCH  24  28
ENDBRANCH  19  20
ENDBRANCH   1  19
TORSDOF 6
ENDMDL
MODEL 6
REMARK VINA RESULT:      -7.5     12.704     15.535
REMARK  6 active torsions:
REMARK  status: ('A' for Active; 'I' for Inactive)
REMARK       I    between atoms: C_2  and  N_3 
REMARK    1  A    between atoms: C_2  and  O_28 
REMARK    2  A    between atoms: C_8  and  C_9 
REMARK    3  A    between atoms: C_9  and  C_10 
REMARK    4  A    between atoms: C_15  and  O_16 
REMARK    5  A    between atoms: O_16  and  C_17 
REMARK    6  A    between atoms: C_23  and  C_24 
ROOT
HETATM    1  C   UNK N   1      28.176  22.227  -7.108  0.00  0.00    -0.055 A 
HETATM    2  C   UNK N   1      27.554  21.300  -7.957  0.00  0.00     0.007 A 
HETATM    3  C   UNK N   1      26.156  21.246  -8.038  0.00  0.00     0.003 A 
HETATM    4  C   UNK N   1      25.369  22.128  -7.284  0.00  0.00     0.037 A 
HETATM    5  C   UNK N   1      27.391  23.086  -6.358  0.00  0.00     0.044 A 
HETATM    6  C   UNK N   1      25.983  23.050  -6.433  0.00  0.00     0.078 A 
ENDROOT
BRANCH   6   7
HETATM    7  O   UNK N   1      25.242  23.917  -5.692  0.00  0.00    -0.294 OA
BRANCH   7   8
HETATM    8  C   UNK N   1      25.597  25.220  -5.655  0.00  0.00     0.147 A 
HETATM    9  C   UNK N   1      25.676  25.969  -6.832  0.00  0.00     0.057 A 
HETATM   10  C   UNK N   1      26.256  27.241  -6.782  0.00  0.00     0.022 A 
HETATM   11  C   UNK N   1      26.731  27.747  -5.561  0.00  0.00     0.063 A 
HETATM   12  C   UNK N   1      26.566  26.989  -4.405  0.00  0.00     0.106 A 
HETATM   13  N   UNK N   1      26.016  25.756  -4.476  0.00  0.00    -0.346 N 
ATOM     14  HN  UNK N   1      25.914  25.211  -3.620  1.00  0.00     0.167 HD
BRANCH  11  15
HETATM   15  C   UNK N   1      27.461  29.048  -5.470  0.00  0.00     0.418 C 
HETATM   16  F   UNK N   1      26.672  30.027  -4.895  0.00  0.00    -0.166 F 
HETATM   17  F   UNK N   1      27.811  29.452  -6.748  0.00  0.00    -0.166 F 
HETATM   18  F   UNK N   1      28.610  28.885  -4.718  0.00  0.00    -0.166 F 
ENDBRANCH  11  15
ENDBRANCH   7   8
ENDBRANCH   6   7
BRANCH   1  19
HETATM   19  C   UNK N   1      29.668  22.344  -7.008  0.00  0.00     0.043 C 
BRANCH  19  20
HETATM   20  C   UNK N   1      30.243  21.404  -5.965  0.00  0.00    -0.007 C 
HETATM   21  C   UNK N   1      31.710  21.149  -6.305  0.00  0.00     0.025 C 
HETATM   22  C   UNK N   1      32.294  20.166  -5.308  0.00  0.00     0.129 C 
HETATM   23  N   UNK N   1      32.109  20.690  -3.975  0.00  0.00    -0.329 N 
HETATM   24  C   UNK N   1      33.180  20.874  -3.158  0.00  0.00     0.252 C 
HETATM   25  C   UNK N   1      30.766  21.036  -3.547  0.00  0.00     0.129 C 
HETATM   26  O   UNK N   1      33.031  21.311  -2.028  0.00  0.00    -0.632 OA
HETATM   27  C   UNK N   1      30.140  22.002  -4.559  0.00  0.00     0.025 C 
BRANCH  24  28
HETATM   28  O   UNK N   1      34.421  20.567  -3.590  0.00  0.00    -0.760 OA
HETATM   29  H   UNK N   1      34.831  19.764  -3.337  0.00  0.00     0.169 HD
ENDBRANCH  24  28
ENDBRANCH  19  20
ENDBRANCH   1  19
TORSDOF 6
ENDMDL
MODEL 7
REMARK VINA RESULT:      -7.5      7.422     11.475
REMARK  6 active torsions:
REMARK  status: ('A' for Active; 'I' for Inactive)
REMARK       I    between atoms: C_2  and  N_3 
REMARK    1  A    between atoms: C_2  and  O_28 
REMARK    2  A    between atoms: C_8  and  C_9 
REMARK    3  A    between atoms: C_9  and  C_10 
REMARK    4  A    between atoms: C_15  and  O_16 
REMARK    5  A    between atoms: O_16  and  C_17 
REMARK    6  A    between atoms: C_23  and  C_24 
ROOT
HETATM    1  C   UNK N   1      36.251  14.093  11.864  0.00  0.00    -0.055 A 
HETATM    2  C   UNK N   1      37.326  13.232  11.608  0.00  0.00     0.007 A 
HETATM    3  C   UNK N   1      37.352  11.949  12.173  0.00  0.00     0.003 A 
HETATM    4  C   UNK N   1      36.295  11.512  12.983  0.00  0.00     0.037 A 
HETATM    5  C   UNK N   1      35.217  13.658  12.676  0.00  0.00     0.044 A 
HETATM    6  C   UNK N   1      35.223  12.368  13.246  0.00  0.00     0.078 A 
ENDROOT
BRANCH   6   7
HETATM    7  O   UNK N   1      34.186  11.967  14.029  0.00  0.00    -0.294 OA
BRANCH   7   8
HETATM    8  C   UNK N   1      34.381  11.834  15.360  0.00  0.00     0.147 A 
HETATM    9  C   UNK N   1      34.613  12.955  16.160  0.00  0.00     0.057 A 
HETATM   10  C   UNK N   1      35.028  12.764  17.483  0.00  0.00     0.022 A 
HETATM   11  C   UNK N   1      35.187  11.462  17.985  0.00  0.00     0.063 A 
HETATM   12  C   UNK N   1      34.876  10.379  17.168  0.00  0.00     0.106 A 
HETATM   13  N   UNK N   1      34.491  10.584  15.888  0.00  0.00    -0.346 N 
ATOM     14  HN  UNK N   1      34.279   9.778  15.301  1.00  0.00     0.167 HD
BRANCH  11  15
HETATM   15  C   UNK N   1      35.737  11.199  19.350  0.00  0.00     0.418 C 
HETATM   16  F   UNK N   1      36.108  12.375  19.977  0.00  0.00    -0.166 F 
HETATM   17  F   UNK N   1      36.852  10.386  19.231  0.00  0.00    -0.166 F 
HETATM   18  F   UNK N   1      34.786  10.551  20.117  0.00  0.00    -0.166 F 
ENDBRANCH  11  15
ENDBRANCH   7   8
ENDBRANCH   6   7
BRANCH   1  19
HETATM   19  C   UNK N   1      36.162  15.464  11.261  0.00  0.00     0.043 C 
BRANCH  19  20
HETATM   20  C   UNK N   1      35.089  15.545  10.191  0.00  0.00    -0.007 C 
HETATM   21  C   UNK N   1      34.981  16.996   9.728  0.00  0.00     0.025 C 
HETATM   22  C   UNK N   1      33.874  17.115   8.697  0.00  0.00     0.129 C 
HETATM   23  N   UNK N   1      34.147  16.199   7.616  0.00  0.00    -0.329 N 
HETATM   24  C   UNK N   1      34.246  16.658   6.339  0.00  0.00     0.252 C 
HETATM   25  C   UNK N   1      34.336  14.794   7.928  0.00  0.00     0.129 C 
HETATM   26  O   UNK N   1      34.471  15.889   5.419  0.00  0.00    -0.632 OA
HETATM   27  C   UNK N   1      35.426  14.650   8.995  0.00  0.00     0.025 C 
BRANCH  24  28
HETATM   28  O   UNK N   1      34.091  17.973   6.079  0.00  0.00    -0.760 OA
HETATM   29  H   UNK N   1      34.718  18.599   6.384  0.00  0.00     0.169 HD
ENDBRANCH  24  28
ENDBRANCH  19  20
ENDBRANCH   1  19
TORSDOF 6
ENDMDL
MODEL 8
REMARK VINA RESULT:      -7.4      4.976      8.179
REMARK  6 active torsions:
REMARK  status: ('A' for Active; 'I' for Inactive)
REMARK       I    between atoms: C_2  and  N_3 
REMARK    1  A    between atoms: C_2  and  O_28 
REMARK    2  A    between atoms: C_8  and  C_9 
REMARK    3  A    between atoms: C_9  and  C_10 
REMARK    4  A    between atoms: C_15  and  O_16 
REMARK    5  A    between atoms: O_16  and  C_17 
REMARK    6  A    between atoms: C_23  and  C_24 
ROOT
HETATM    1  C   UNK N   1      36.649  11.883  13.023  0.00  0.00    -0.055 A 
HETATM    2  C   UNK N   1      35.790  10.853  12.614  0.00  0.00     0.007 A 
HETATM    3  C   UNK N   1      35.319  10.812  11.294  0.00  0.00     0.003 A 
HETATM    4  C   UNK N   1      35.716  11.788  10.370  0.00  0.00     0.037 A 
HETATM    5  C   UNK N   1      37.027  12.850  12.107  0.00  0.00     0.044 A 
HETATM    6  C   UNK N   1      36.568  12.819  10.774  0.00  0.00     0.078 A 
ENDROOT
BRANCH   6   7
HETATM    7  O   UNK N   1      36.968  13.778   9.896  0.00  0.00    -0.294 OA
BRANCH   7   8
HETATM    8  C   UNK N   1      36.067  14.687   9.462  0.00  0.00     0.147 A 
HETATM    9  C   UNK N   1      35.576  14.634   8.155  0.00  0.00     0.057 A 
HETATM   10  C   UNK N   1      34.822  15.710   7.675  0.00  0.00     0.022 A 
HETATM   11  C   UNK N   1      34.560  16.809   8.510  0.00  0.00     0.063 A 
HETATM   12  C   UNK N   1      35.013  16.782   9.827  0.00  0.00     0.106 A 
HETATM   13  N   UNK N   1      35.752  15.740  10.267  0.00  0.00    -0.346 N 
ATOM     14  HN  UNK N   1      36.085  15.742  11.231  1.00  0.00     0.167 HD
BRANCH  11  15
HETATM   15  C   UNK N   1      33.860  18.034   8.016  0.00  0.00     0.418 C 
HETATM   16  F   UNK N   1      33.663  17.981   6.648  0.00  0.00    -0.166 F 
HETATM   17  F   UNK N   1      34.639  19.141   8.312  0.00  0.00    -0.166 F 
HETATM   18  F   UNK N   1      32.638  18.160   8.650  0.00  0.00    -0.166 F 
ENDBRANCH  11  15
ENDBRANCH   7   8
ENDBRANCH   6   7
BRANCH   1  19
HETATM   19  C   UNK N   1      37.204  11.955  14.416  0.00  0.00     0.043 C 
BRANCH  19  20
HETATM   20  C   UNK N   1      36.107  11.962  15.464  0.00  0.00    -0.007 C 
HETATM   21  C   UNK N   1      36.481  10.961  16.556  0.00  0.00     0.025 C 
HETATM   22  C   UNK N   1      35.372  10.907  17.590  0.00  0.00     0.129 C 
HETATM   23  N   UNK N   1      35.148  12.239  18.101  0.00  0.00    -0.329 N 
HETATM   24  C   UNK N   1      35.244  12.484  19.435  0.00  0.00     0.252 C 
HETATM   25  C   UNK N   1      34.847  13.301  17.159  0.00  0.00     0.129 C 
HETATM   26  O   UNK N   1      35.051  13.606  19.875  0.00  0.00    -0.632 OA
HETATM   27  C   UNK N   1      35.935  13.353  16.082  0.00  0.00     0.025 C 
BRANCH  24  28
HETATM   28  O   UNK N   1      35.550  11.483  20.287  0.00  0.00    -0.760 OA
HETATM   29  H   UNK N   1      36.054  10.747  20.000  0.00  0.00     0.169 HD
ENDBRANCH  24  28
ENDBRANCH  19  20
ENDBRANCH   1  19
TORSDOF 6
ENDMDL
MODEL 9
REMARK VINA RESULT:      -7.3      4.995      9.448
REMARK  6 active torsions:
REMARK  status: ('A' for Active; 'I' for Inactive)
REMARK       I    between atoms: C_2  and  N_3 
REMARK    1  A    between atoms: C_2  and  O_28 
REMARK    2  A    between atoms: C_8  and  C_9 
REMARK    3  A    between atoms: C_9  and  C_10 
REMARK    4  A    between atoms: C_15  and  O_16 
REMARK    5  A    between atoms: O_16  and  C_17 
REMARK    6  A    between atoms: C_23  and  C_24 
ROOT
HETATM    1  C   UNK N   1      31.161  16.642   5.602  0.00  0.00    -0.055 A 
HETATM    2  C   UNK N   1      32.179  16.831   4.656  0.00  0.00     0.007 A 
HETATM    3  C   UNK N   1      33.439  17.294   5.059  0.00  0.00     0.003 A 
HETATM    4  C   UNK N   1      33.697  17.554   6.412  0.00  0.00     0.037 A 
HETATM    5  C   UNK N   1      31.422  16.914   6.934  0.00  0.00     0.044 A 
HETATM    6  C   UNK N   1      32.686  17.372   7.358  0.00  0.00     0.078 A 
ENDROOT
BRANCH   6   7
HETATM    7  O   UNK N   1      32.912  17.618   8.676  0.00  0.00    -0.294 OA
BRANCH   7   8
HETATM    8  C   UNK N   1      33.706  16.776   9.374  0.00  0.00     0.147 A 
HETATM    9  C   UNK N   1      33.358  15.431   9.525  0.00  0.00     0.057 A 
HETATM   10  C   UNK N   1      34.080  14.647  10.431  0.00  0.00     0.022 A 
HETATM   11  C   UNK N   1      35.142  15.212  11.155  0.00  0.00     0.063 A 
HETATM   12  C   UNK N   1      35.494  16.538  10.917  0.00  0.00     0.106 A 
HETATM   13  N   UNK N   1      34.775  17.284  10.048  0.00  0.00    -0.346 N 
ATOM     14  HN  UNK N   1      35.039  18.256   9.895  1.00  0.00     0.167 HD
BRANCH  11  15
HETATM   15  C   UNK N   1      35.873  14.454  12.217  0.00  0.00     0.418 C 
HETATM   16  F   UNK N   1      35.066  13.485  12.786  0.00  0.00    -0.166 F 
HETATM   17  F   UNK N   1      36.267  15.342  13.204  0.00  0.00    -0.166 F 
HETATM   18  F   UNK N   1      36.994  13.856  11.674  0.00  0.00    -0.166 F 
ENDBRANCH  11  15
ENDBRANCH   7   8
ENDBRANCH   6   7
BRANCH   1  19
HETATM   19  C   UNK N   1      29.805  16.122   5.225  0.00  0.00     0.043 C 
BRANCH  19  20
HETATM   20  C   UNK N   1      28.717  17.154   5.455  0.00  0.00    -0.007 C 
HETATM   21  C   UNK N   1      29.039  18.387   4.612  0.00  0.00     0.025 C 
HETATM   22  C   UNK N   1      27.994  19.457   4.867  0.00  0.00     0.129 C 
HETATM   23  N   UNK N   1      26.689  18.909   4.586  0.00  0.00    -0.329 N 
HETATM   24  C   UNK N   1      25.877  19.510   3.675  0.00  0.00     0.252 C 
HETATM   25  C   UNK N   1      26.282  17.697   5.274  0.00  0.00     0.129 C 
HETATM   26  O   UNK N   1      24.769  19.056   3.436  0.00  0.00    -0.632 OA
HETATM   27  C   UNK N   1      27.341  16.610   5.061  0.00  0.00     0.025 C 
BRANCH  24  28
HETATM   28  O   UNK N   1      26.289  20.622   3.030  0.00  0.00    -0.760 OA
HETATM   29  H   UNK N   1      26.136  21.471   3.395  0.00  0.00     0.169 HD
ENDBRANCH  24  28
ENDBRANCH  19  20
ENDBRANCH   1  19
TORSDOF 6
ENDMDL
