REMARK  15 active torsions:
REMARK  status: ('A' for Active; 'I' for Inactive)
REMARK    1  A    between atoms: O_1  and  C_2 
REMARK    2  A    between atoms: C_2  and  C_4 
REMARK    3  A    between atoms: C_4  and  C_5 
REMARK    4  A    between atoms: C_5  and  C_6 
REMARK    5  A    between atoms: C_6  and  C_7 
REMARK    6  A    between atoms: C_7  and  O_9 
REMARK    7  A    between atoms: N_10  and  O_12 
REMARK    8  A    between atoms: O_12  and  C_13 
REMARK    9  A    between atoms: C_13  and  C_14 
REMARK   10  A    between atoms: C_14  and  C_15 
REMARK   11  A    between atoms: C_14  and  N_17 
REMARK   12  A    between atoms: C_15  and  O_28 
REMARK       I    between atoms: N_17  and  C_18 
REMARK   13  A    between atoms: C_18  and  C_20 
REMARK   14  A    between atoms: C_20  and  O_21 
REMARK   15  A    between atoms: O_21  and  C_22 
ROOT
HETATM    1  C   UNK N   1       1.493  -0.251  -0.397  0.00  0.00     0.208 C 
ENDROOT
BRANCH   1   2
HETATM    2  C   UNK N   1       0.209  -1.065  -0.169  0.00  0.00     0.237 C 
BRANCH   2   3
HETATM    3  O   UNK N   1      -0.640  -0.537   0.779  0.00  0.00    -0.278 OA
BRANCH   3   4
HETATM    4  N   UNK N   1      -1.326   0.554   0.499  0.00  0.00    -0.264 N 
HETATM    5  C   UNK N   1      -2.498   0.537  -0.040  0.00  0.00     0.105 C 
ATOM      6  HN  UNK N   1      -0.909   1.458   0.720  1.00  0.00     0.194 HD
BRANCH   5   7
HETATM    7  C   UNK N   1      -3.108   1.845  -0.447  0.00  0.00     0.076 C 
BRANCH   7   8
HETATM    8  C   UNK N   1      -2.991   2.896   0.646  0.00  0.00     0.116 C 
BRANCH   8   9
HETATM    9  C   UNK N   1      -2.436   4.158   0.067  0.00  0.00     0.139 C 
HETATM   10  O   UNK N   1      -1.315   4.174  -0.418  0.00  0.00    -0.650 OA
BRANCH   9  11
HETATM   11  O   UNK N   1      -3.173   5.283   0.083  0.00  0.00    -0.776 OA
HETATM   12  H   UNK N   1      -2.751   6.120   0.095  0.00  0.00     0.167 HD
ENDBRANCH   9  11
ENDBRANCH   8   9
ENDBRANCH   7   8
ENDBRANCH   5   7
BRANCH   5  13
HETATM   13  C   UNK N   1      -3.224  -0.722  -0.364  0.00  0.00     0.191 C 
HETATM   14  O   UNK N   1      -2.764  -1.812  -0.058  0.00  0.00    -0.645 OA
BRANCH  13  15
HETATM   15  O   UNK N   1      -4.403  -0.664  -1.009  0.00  0.00    -0.772 OA
HETATM   16  H   UNK N   1      -4.779   0.067  -1.459  0.00  0.00     0.167 HD
ENDBRANCH  13  15
ENDBRANCH   5  13
ENDBRANCH   3   4
ENDBRANCH   2   3
ENDBRANCH   1   2
BRANCH   1  17
HETATM   17  C   UNK N   1       1.246   1.209  -0.717  0.00  0.00     0.165 C 
HETATM   18  O   UNK N   1       1.506   1.644  -1.826  0.00  0.00    -0.648 OA
BRANCH  17  19
HETATM   19  O   UNK N   1       0.815   2.055   0.241  0.00  0.00    -0.775 OA
HETATM   20  H   UNK N   1       1.175   2.608   0.906  0.00  0.00     0.167 HD
ENDBRANCH  17  19
ENDBRANCH   1  17
BRANCH   1  21
HETATM   21  N   UNK N   1       2.354  -0.369   0.759  0.00  0.00    -0.343 N 
HETATM   22  C   UNK N   1       3.635   0.079   0.792  0.00  0.00     0.242 C 
HETATM   23  O   UNK N   1       4.280  -0.046   1.821  0.00  0.00    -0.271 OA
HETATM   24  H   UNK N   1       1.991  -0.799   1.568  0.00  0.00     0.163 HD
BRANCH  22  25
HETATM   25  C   UNK N   1       4.275   0.707  -0.427  0.00  0.00     0.278 C 
BRANCH  25  26
HETATM   26  O   UNK N   1       5.611   0.985  -0.217  0.00  0.00    -0.342 OA
BRANCH  26  27
HETATM   27  C   UNK N   1       6.566   0.026  -0.139  0.00  0.00     0.069 A 
HETATM   28  C   UNK N   1       7.864   0.387   0.233  0.00  0.00     0.037 A 
HETATM   29  C   UNK N   1       8.859  -0.588   0.351  0.00  0.00     0.003 A 
HETATM   30  C   UNK N   1       8.561  -1.929   0.094  0.00  0.00     0.000 A 
HETATM   31  C   UNK N   1       7.269  -2.297  -0.289  0.00  0.00     0.003 A 
HETATM   32  C   UNK N   1       6.273  -1.325  -0.404  0.00  0.00     0.037 A 
ENDBRANCH  26  27
ENDBRANCH  25  26
ENDBRANCH  22  25
ENDBRANCH   1  21
TORSDOF 15
