MODEL 1
REMARK VINA RESULT:      -7.2      0.000      0.000
REMARK  15 active torsions:
REMARK  status: ('A' for Active; 'I' for Inactive)
REMARK    1  A    between atoms: O_1  and  C_2 
REMARK    2  A    between atoms: C_2  and  C_4 
REMARK    3  A    between atoms: C_4  and  C_5 
REMARK    4  A    between atoms: C_5  and  C_6 
REMARK    5  A    between atoms: C_6  and  C_7 
REMARK    6  A    between atoms: C_7  and  O_9 
REMARK    7  A    between atoms: N_10  and  O_12 
REMARK    8  A    between atoms: O_12  and  C_13 
REMARK    9  A    between atoms: C_13  and  C_14 
REMARK   10  A    between atoms: C_14  and  C_15 
REMARK   11  A    between atoms: C_14  and  N_17 
REMARK   12  A    between atoms: C_15  and  O_28 
REMARK       I    between atoms: N_17  and  C_18 
REMARK   13  A    between atoms: C_18  and  C_20 
REMARK   14  A    between atoms: C_20  and  O_21 
REMARK   15  A    between atoms: O_21  and  C_22 
ROOT
HETATM    1  C   UNK N   1      35.844  15.011  11.725  0.00  0.00     0.208 C 
ENDROOT
BRANCH   1   2
HETATM    2  C   UNK N   1      35.265  16.354  11.252  0.00  0.00     0.237 C 
BRANCH   2   3
HETATM    3  O   UNK N   1      34.924  16.390   9.918  0.00  0.00    -0.278 OA
BRANCH   3   4
HETATM    4  N   UNK N   1      33.678  16.651   9.574  0.00  0.00    -0.264 N 
HETATM    5  C   UNK N   1      33.358  17.488   8.646  0.00  0.00     0.105 C 
ATOM      6  HN  UNK N   1      32.928  16.166  10.067  1.00  0.00     0.194 HD
BRANCH   5   7
HETATM    7  C   UNK N   1      31.906  17.810   8.454  0.00  0.00     0.076 C 
BRANCH   7   8
HETATM    8  C   UNK N   1      31.162  16.692   7.739  0.00  0.00     0.116 C 
BRANCH   8   9
HETATM    9  C   UNK N   1      31.011  17.039   6.292  0.00  0.00     0.139 C 
HETATM   10  O   UNK N   1      29.977  17.544   5.883  0.00  0.00    -0.650 OA
BRANCH   9  11
HETATM   11  O   UNK N   1      32.018  16.791   5.435  0.00  0.00    -0.776 OA
HETATM   12  H   UNK N   1      32.795  17.314   5.461  0.00  0.00     0.167 HD
ENDBRANCH   9  11
ENDBRANCH   8   9
ENDBRANCH   7   8
ENDBRANCH   5   7
BRANCH   5  13
HETATM   13  C   UNK N   1      34.366  18.219   7.829  0.00  0.00     0.191 C 
HETATM   14  O   UNK N   1      34.441  18.051   6.621  0.00  0.00    -0.645 OA
BRANCH  13  15
HETATM   15  O   UNK N   1      35.215  19.074   8.428  0.00  0.00    -0.772 OA
HETATM   16  H   UNK N   1      35.847  19.636   8.025  0.00  0.00     0.167 HD
ENDBRANCH  13  15
ENDBRANCH   5  13
ENDBRANCH   3   4
ENDBRANCH   2   3
ENDBRANCH   1   2
BRANCH   1  17
HETATM   17  C   UNK N   1      36.743  14.337  10.708  0.00  0.00     0.165 C 
HETATM   18  O   UNK N   1      36.622  13.146  10.480  0.00  0.00    -0.648 OA
BRANCH  17  19
HETATM   19  O   UNK N   1      37.734  15.028  10.109  0.00  0.00    -0.775 OA
HETATM   20  H   UNK N   1      38.210  15.826  10.231  0.00  0.00     0.167 HD
ENDBRANCH  17  19
ENDBRANCH   1  17
BRANCH   1  21
HETATM   21  N   UNK N   1      36.554  15.200  12.970  0.00  0.00    -0.343 N 
HETATM   22  C   UNK N   1      36.393  14.403  14.058  0.00  0.00     0.242 C 
HETATM   23  O   UNK N   1      37.052  14.628  15.060  0.00  0.00    -0.271 OA
HETATM   24  H   UNK N   1      37.191  15.949  13.034  0.00  0.00     0.163 HD
BRANCH  22  25
HETATM   25  C   UNK N   1      35.398  13.263  14.050  0.00  0.00     0.278 C 
BRANCH  25  26
HETATM   26  O   UNK N   1      34.584  13.287  15.164  0.00  0.00    -0.342 OA
BRANCH  26  27
HETATM   27  C   UNK N   1      34.862  12.604  16.302  0.00  0.00     0.069 A 
HETATM   28  C   UNK N   1      35.152  11.239  16.224  0.00  0.00     0.037 A 
HETATM   29  C   UNK N   1      35.473  10.521  17.379  0.00  0.00     0.003 A 
HETATM   30  C   UNK N   1      35.501  11.163  18.620  0.00  0.00     0.000 A 
HETATM   31  C   UNK N   1      35.201  12.525  18.709  0.00  0.00     0.003 A 
HETATM   32  C   UNK N   1      34.884  13.245  17.555  0.00  0.00     0.037 A 
ENDBRANCH  26  27
ENDBRANCH  25  26
ENDBRANCH  22  25
ENDBRANCH   1  21
TORSDOF 15
ENDMDL
MODEL 2
REMARK VINA RESULT:      -6.7      2.359      9.757
REMARK  15 active torsions:
REMARK  status: ('A' for Active; 'I' for Inactive)
REMARK    1  A    between atoms: O_1  and  C_2 
REMARK    2  A    between atoms: C_2  and  C_4 
REMARK    3  A    between atoms: C_4  and  C_5 
REMARK    4  A    between atoms: C_5  and  C_6 
REMARK    5  A    between atoms: C_6  and  C_7 
REMARK    6  A    between atoms: C_7  and  O_9 
REMARK    7  A    between atoms: N_10  and  O_12 
REMARK    8  A    between atoms: O_12  and  C_13 
REMARK    9  A    between atoms: C_13  and  C_14 
REMARK   10  A    between atoms: C_14  and  C_15 
REMARK   11  A    between atoms: C_14  and  N_17 
REMARK   12  A    between atoms: C_15  and  O_28 
REMARK       I    between atoms: N_17  and  C_18 
REMARK   13  A    between atoms: C_18  and  C_20 
REMARK   14  A    between atoms: C_20  and  O_21 
REMARK   15  A    between atoms: O_21  and  C_22 
ROOT
HETATM    1  C   UNK N   1      35.108  15.709   9.911  0.00  0.00     0.208 C 
ENDROOT
BRANCH   1   2
HETATM    2  C   UNK N   1      36.149  15.659  11.041  0.00  0.00     0.237 C 
BRANCH   2   3
HETATM    3  O   UNK N   1      35.623  15.405  12.289  0.00  0.00    -0.278 OA
BRANCH   3   4
HETATM    4  N   UNK N   1      36.431  15.075  13.278  0.00  0.00    -0.264 N 
HETATM    5  C   UNK N   1      36.173  14.134  14.122  0.00  0.00     0.105 C 
ATOM      6  HN  UNK N   1      37.306  15.589  13.380  1.00  0.00     0.194 HD
BRANCH   5   7
HETATM    7  C   UNK N   1      37.098  13.957  15.289  0.00  0.00     0.076 C 
BRANCH   7   8
HETATM    8  C   UNK N   1      37.201  15.218  16.133  0.00  0.00     0.116 C 
BRANCH   8   9
HETATM    9  C   UNK N   1      36.346  15.073  17.352  0.00  0.00     0.139 C 
HETATM   10  O   UNK N   1      36.361  15.929  18.222  0.00  0.00    -0.650 OA
BRANCH   9  11
HETATM   11  O   UNK N   1      35.558  13.992  17.492  0.00  0.00    -0.776 OA
HETATM   12  H   UNK N   1      35.851  13.261  18.001  0.00  0.00     0.167 HD
ENDBRANCH   9  11
ENDBRANCH   8   9
ENDBRANCH   7   8
ENDBRANCH   5   7
BRANCH   5  13
HETATM   13  C   UNK N   1      34.951  13.286  14.044  0.00  0.00     0.191 C 
HETATM   14  O   UNK N   1      34.365  12.931  15.055  0.00  0.00    -0.645 OA
BRANCH  13  15
HETATM   15  O   UNK N   1      34.486  12.898  12.843  0.00  0.00    -0.772 OA
HETATM   16  H   UNK N   1      34.480  13.385  12.042  0.00  0.00     0.167 HD
ENDBRANCH  13  15
ENDBRANCH   5  13
ENDBRANCH   3   4
ENDBRANCH   2   3
ENDBRANCH   1   2
BRANCH   1  17
HETATM   17  C   UNK N   1      33.924  14.789  10.125  0.00  0.00     0.165 C 
HETATM   18  O   UNK N   1      33.689  13.899   9.325  0.00  0.00    -0.648 OA
BRANCH  17  19
HETATM   19  O   UNK N   1      33.076  14.995  11.153  0.00  0.00    -0.775 OA
HETATM   20  H   UNK N   1      32.417  14.527  11.627  0.00  0.00     0.167 HD
ENDBRANCH  17  19
ENDBRANCH   1  17
BRANCH   1  21
HETATM   21  N   UNK N   1      34.655  17.070   9.728  0.00  0.00    -0.343 N 
HETATM   22  C   UNK N   1      34.352  17.607   8.519  0.00  0.00     0.242 C 
HETATM   23  O   UNK N   1      33.957  18.761   8.465  0.00  0.00    -0.271 OA
HETATM   24  H   UNK N   1      34.561  17.641  10.527  0.00  0.00     0.163 HD
BRANCH  22  25
HETATM   25  C   UNK N   1      34.517  16.807   7.245  0.00  0.00     0.278 C 
BRANCH  25  26
HETATM   26  O   UNK N   1      33.329  16.226   6.849  0.00  0.00    -0.342 OA
BRANCH  26  27
HETATM   27  C   UNK N   1      32.841  16.319   5.587  0.00  0.00     0.069 A 
HETATM   28  C   UNK N   1      32.188  15.217   5.028  0.00  0.00     0.037 A 
HETATM   29  C   UNK N   1      31.649  15.298   3.740  0.00  0.00     0.003 A 
HETATM   30  C   UNK N   1      31.764  16.481   3.005  0.00  0.00     0.000 A 
HETATM   31  C   UNK N   1      32.425  17.583   3.552  0.00  0.00     0.003 A 
HETATM   32  C   UNK N   1      32.961  17.505   4.839  0.00  0.00     0.037 A 
ENDBRANCH  26  27
ENDBRANCH  25  26
ENDBRANCH  22  25
ENDBRANCH   1  21
TORSDOF 15
ENDMDL
MODEL 3
REMARK VINA RESULT:      -6.6      1.259      2.182
REMARK  15 active torsions:
REMARK  status: ('A' for Active; 'I' for Inactive)
REMARK    1  A    between atoms: O_1  and  C_2 
REMARK    2  A    between atoms: C_2  and  C_4 
REMARK    3  A    between atoms: C_4  and  C_5 
REMARK    4  A    between atoms: C_5  and  C_6 
REMARK    5  A    between atoms: C_6  and  C_7 
REMARK    6  A    between atoms: C_7  and  O_9 
REMARK    7  A    between atoms: N_10  and  O_12 
REMARK    8  A    between atoms: O_12  and  C_13 
REMARK    9  A    between atoms: C_13  and  C_14 
REMARK   10  A    between atoms: C_14  and  C_15 
REMARK   11  A    between atoms: C_14  and  N_17 
REMARK   12  A    between atoms: C_15  and  O_28 
REMARK       I    between atoms: N_17  and  C_18 
REMARK   13  A    between atoms: C_18  and  C_20 
REMARK   14  A    between atoms: C_20  and  O_21 
REMARK   15  A    between atoms: O_21  and  C_22 
ROOT
HETATM    1  C   UNK N   1      35.722  14.761  12.048  0.00  0.00     0.208 C 
ENDROOT
BRANCH   1   2
HETATM    2  C   UNK N   1      35.395  16.169  11.524  0.00  0.00     0.237 C 
BRANCH   2   3
HETATM    3  O   UNK N   1      35.381  16.278  10.151  0.00  0.00    -0.278 OA
BRANCH   3   4
HETATM    4  N   UNK N   1      34.515  17.087   9.573  0.00  0.00    -0.264 N 
HETATM    5  C   UNK N   1      33.354  16.706   9.160  0.00  0.00     0.105 C 
ATOM      6  HN  UNK N   1      34.776  18.065   9.446  1.00  0.00     0.194 HD
BRANCH   5   7
HETATM    7  C   UNK N   1      32.523  17.685   8.384  0.00  0.00     0.076 C 
BRANCH   7   8
HETATM    8  C   UNK N   1      32.223  17.192   6.977  0.00  0.00     0.116 C 
BRANCH   8   9
HETATM    9  C   UNK N   1      33.330  17.601   6.059  0.00  0.00     0.139 C 
HETATM   10  O   UNK N   1      33.150  17.630   4.851  0.00  0.00    -0.650 OA
BRANCH   9  11
HETATM   11  O   UNK N   1      34.531  17.934   6.564  0.00  0.00    -0.776 OA
HETATM   12  H   UNK N   1      35.121  18.461   6.061  0.00  0.00     0.167 HD
ENDBRANCH   9  11
ENDBRANCH   8   9
ENDBRANCH   7   8
ENDBRANCH   5   7
BRANCH   5  13
HETATM   13  C   UNK N   1      32.847  15.317   9.332  0.00  0.00     0.191 C 
HETATM   14  O   UNK N   1      33.227  14.412   8.604  0.00  0.00    -0.645 OA
BRANCH  13  15
HETATM   15  O   UNK N   1      31.951  15.049  10.299  0.00  0.00    -0.772 OA
HETATM   16  H   UNK N   1      31.053  15.314  10.342  0.00  0.00     0.167 HD
ENDBRANCH  13  15
ENDBRANCH   5  13
ENDBRANCH   3   4
ENDBRANCH   2   3
ENDBRANCH   1   2
BRANCH   1  17
HETATM   17  C   UNK N   1      36.324  13.842  11.005  0.00  0.00     0.165 C 
HETATM   18  O   UNK N   1      37.528  13.651  10.980  0.00  0.00    -0.648 OA
BRANCH  17  19
HETATM   19  O   UNK N   1      35.548  13.295  10.047  0.00  0.00    -0.775 OA
HETATM   20  H   UNK N   1      34.649  13.062   9.916  0.00  0.00     0.167 HD
ENDBRANCH  17  19
ENDBRANCH   1  17
BRANCH   1  21
HETATM   21  N   UNK N   1      36.602  14.861  13.191  0.00  0.00    -0.343 N 
HETATM   22  C   UNK N   1      36.470  14.106  14.311  0.00  0.00     0.242 C 
HETATM   23  O   UNK N   1      37.274  14.246  15.219  0.00  0.00    -0.271 OA
HETATM   24  H   UNK N   1      37.340  15.514  13.155  0.00  0.00     0.163 HD
BRANCH  22  25
HETATM   25  C   UNK N   1      35.334  13.116  14.456  0.00  0.00     0.278 C 
BRANCH  25  26
HETATM   26  O   UNK N   1      34.621  13.324  15.620  0.00  0.00    -0.342 OA
BRANCH  26  27
HETATM   27  C   UNK N   1      34.918  12.711  16.793  0.00  0.00     0.069 A 
HETATM   28  C   UNK N   1      35.003  13.477  17.959  0.00  0.00     0.037 A 
HETATM   29  C   UNK N   1      35.276  12.864  19.185  0.00  0.00     0.003 A 
HETATM   30  C   UNK N   1      35.470  11.481  19.250  0.00  0.00     0.000 A 
HETATM   31  C   UNK N   1      35.398  10.710  18.088  0.00  0.00     0.003 A 
HETATM   32  C   UNK N   1      35.122  11.320  16.863  0.00  0.00     0.037 A 
ENDBRANCH  26  27
ENDBRANCH  25  26
ENDBRANCH  22  25
ENDBRANCH   1  21
TORSDOF 15
ENDMDL
MODEL 4
REMARK VINA RESULT:      -6.6      1.842      2.792
REMARK  15 active torsions:
REMARK  status: ('A' for Active; 'I' for Inactive)
REMARK    1  A    between atoms: O_1  and  C_2 
REMARK    2  A    between atoms: C_2  and  C_4 
REMARK    3  A    between atoms: C_4  and  C_5 
REMARK    4  A    between atoms: C_5  and  C_6 
REMARK    5  A    between atoms: C_6  and  C_7 
REMARK    6  A    between atoms: C_7  and  O_9 
REMARK    7  A    between atoms: N_10  and  O_12 
REMARK    8  A    between atoms: O_12  and  C_13 
REMARK    9  A    between atoms: C_13  and  C_14 
REMARK   10  A    between atoms: C_14  and  C_15 
REMARK   11  A    between atoms: C_14  and  N_17 
REMARK   12  A    between atoms: C_15  and  O_28 
REMARK       I    between atoms: N_17  and  C_18 
REMARK   13  A    between atoms: C_18  and  C_20 
REMARK   14  A    between atoms: C_20  and  O_21 
REMARK   15  A    between atoms: O_21  and  C_22 
ROOT
HETATM    1  C   UNK N   1      36.027  14.159  12.894  0.00  0.00     0.208 C 
ENDROOT
BRANCH   1   2
HETATM    2  C   UNK N   1      35.315  15.145  11.953  0.00  0.00     0.237 C 
BRANCH   2   3
HETATM    3  O   UNK N   1      34.131  14.678  11.428  0.00  0.00    -0.278 OA
BRANCH   3   4
HETATM    4  N   UNK N   1      33.460  15.427  10.575  0.00  0.00    -0.264 N 
HETATM    5  C   UNK N   1      33.626  15.371   9.297  0.00  0.00     0.105 C 
ATOM      6  HN  UNK N   1      32.773  16.084  10.944  1.00  0.00     0.194 HD
BRANCH   5   7
HETATM    7  C   UNK N   1      32.914  16.379   8.446  0.00  0.00     0.076 C 
BRANCH   7   8
HETATM    8  C   UNK N   1      33.286  17.807   8.817  0.00  0.00     0.116 C 
BRANCH   8   9
HETATM    9  C   UNK N   1      34.449  18.250   7.989  0.00  0.00     0.139 C 
HETATM   10  O   UNK N   1      35.212  19.108   8.406  0.00  0.00    -0.650 OA
BRANCH   9  11
HETATM   11  O   UNK N   1      34.655  17.705   6.777  0.00  0.00    -0.776 OA
HETATM   12  H   UNK N   1      35.524  17.647   6.430  0.00  0.00     0.167 HD
ENDBRANCH   9  11
ENDBRANCH   8   9
ENDBRANCH   7   8
ENDBRANCH   5   7
BRANCH   5  13
HETATM   13  C   UNK N   1      34.566  14.419   8.642  0.00  0.00     0.191 C 
HETATM   14  O   UNK N   1      35.300  14.781   7.735  0.00  0.00    -0.645 OA
BRANCH  13  15
HETATM   15  O   UNK N   1      34.606  13.137   9.048  0.00  0.00    -0.772 OA
HETATM   16  H   UNK N   1      34.066  12.718   9.689  0.00  0.00     0.167 HD
ENDBRANCH  13  15
ENDBRANCH   5  13
ENDBRANCH   3   4
ENDBRANCH   2   3
ENDBRANCH   1   2
BRANCH   1  17
HETATM   17  C   UNK N   1      36.865  13.121  12.176  0.00  0.00     0.165 C 
HETATM   18  O   UNK N   1      36.677  12.897  10.992  0.00  0.00    -0.648 OA
BRANCH  17  19
HETATM   19  O   UNK N   1      37.766  12.382  12.854  0.00  0.00    -0.775 OA
HETATM   20  H   UNK N   1      38.578  11.942  12.696  0.00  0.00     0.167 HD
ENDBRANCH  17  19
ENDBRANCH   1  17
BRANCH   1  21
HETATM   21  N   UNK N   1      36.842  14.892  13.838  0.00  0.00    -0.343 N 
HETATM   22  C   UNK N   1      36.864  14.636  15.171  0.00  0.00     0.242 C 
HETATM   23  O   UNK N   1      37.601  15.294  15.888  0.00  0.00    -0.271 OA
HETATM   24  H   UNK N   1      37.414  15.618  13.494  0.00  0.00     0.163 HD
BRANCH  22  25
HETATM   25  C   UNK N   1      35.979  13.568  15.776  0.00  0.00     0.278 C 
BRANCH  25  26
HETATM   26  O   UNK N   1      36.560  12.318  15.699  0.00  0.00    -0.342 OA
BRANCH  26  27
HETATM   27  C   UNK N   1      36.055  11.225  16.321  0.00  0.00     0.069 A 
HETATM   28  C   UNK N   1      36.167   9.977  15.701  0.00  0.00     0.037 A 
HETATM   29  C   UNK N   1      35.682   8.830  16.336  0.00  0.00     0.003 A 
HETATM   30  C   UNK N   1      35.079   8.926  17.594  0.00  0.00     0.000 A 
HETATM   31  C   UNK N   1      34.953  10.170  18.215  0.00  0.00     0.003 A 
HETATM   32  C   UNK N   1      35.440  11.317  17.584  0.00  0.00     0.037 A 
ENDBRANCH  26  27
ENDBRANCH  25  26
ENDBRANCH  22  25
ENDBRANCH   1  21
TORSDOF 15
ENDMDL
MODEL 5
REMARK VINA RESULT:      -6.5      1.611      2.009
REMARK  15 active torsions:
REMARK  status: ('A' for Active; 'I' for Inactive)
REMARK    1  A    between atoms: O_1  and  C_2 
REMARK    2  A    between atoms: C_2  and  C_4 
REMARK    3  A    between atoms: C_4  and  C_5 
REMARK    4  A    between atoms: C_5  and  C_6 
REMARK    5  A    between atoms: C_6  and  C_7 
REMARK    6  A    between atoms: C_7  and  O_9 
REMARK    7  A    between atoms: N_10  and  O_12 
REMARK    8  A    between atoms: O_12  and  C_13 
REMARK    9  A    between atoms: C_13  and  C_14 
REMARK   10  A    between atoms: C_14  and  C_15 
REMARK   11  A    between atoms: C_14  and  N_17 
REMARK   12  A    between atoms: C_15  and  O_28 
REMARK       I    between atoms: N_17  and  C_18 
REMARK   13  A    between atoms: C_18  and  C_20 
REMARK   14  A    between atoms: C_20  and  O_21 
REMARK   15  A    between atoms: O_21  and  C_22 
ROOT
HETATM    1  C   UNK N   1      36.146  14.367  10.228  0.00  0.00     0.208 C 
ENDROOT
BRANCH   1   2
HETATM    2  C   UNK N   1      35.290  15.246   9.302  0.00  0.00     0.237 C 
BRANCH   2   3
HETATM    3  O   UNK N   1      34.665  16.299   9.933  0.00  0.00    -0.278 OA
BRANCH   3   4
HETATM    4  N   UNK N   1      33.460  16.666   9.542  0.00  0.00    -0.264 N 
HETATM    5  C   UNK N   1      33.249  17.546   8.623  0.00  0.00     0.105 C 
ATOM      6  HN  UNK N   1      32.653  16.232   9.990  1.00  0.00     0.194 HD
BRANCH   5   7
HETATM    7  C   UNK N   1      31.836  17.985   8.376  0.00  0.00     0.076 C 
BRANCH   7   8
HETATM    8  C   UNK N   1      30.828  17.101   9.093  0.00  0.00     0.116 C 
BRANCH   8   9
HETATM    9  C   UNK N   1      29.601  17.896   9.406  0.00  0.00     0.139 C 
HETATM   10  O   UNK N   1      29.646  18.805  10.221  0.00  0.00    -0.650 OA
BRANCH   9  11
HETATM   11  O   UNK N   1      28.441  17.608   8.790  0.00  0.00    -0.776 OA
HETATM   12  H   UNK N   1      28.312  16.764   8.403  0.00  0.00     0.167 HD
ENDBRANCH   9  11
ENDBRANCH   8   9
ENDBRANCH   7   8
ENDBRANCH   5   7
BRANCH   5  13
HETATM   13  C   UNK N   1      34.347  18.211   7.869  0.00  0.00     0.191 C 
HETATM   14  O   UNK N   1      35.020  19.092   8.382  0.00  0.00    -0.645 OA
BRANCH  13  15
HETATM   15  O   UNK N   1      34.601  17.845   6.600  0.00  0.00    -0.772 OA
HETATM   16  H   UNK N   1      35.328  18.093   6.062  0.00  0.00     0.167 HD
ENDBRANCH  13  15
ENDBRANCH   5  13
ENDBRANCH   3   4
ENDBRANCH   2   3
ENDBRANCH   1   2
BRANCH   1  17
HETATM   17  C   UNK N   1      37.468  13.941   9.623  0.00  0.00     0.165 C 
HETATM   18  O   UNK N   1      37.486  13.189   8.663  0.00  0.00    -0.648 OA
BRANCH  17  19
HETATM   19  O   UNK N   1      38.632  14.323  10.186  0.00  0.00    -0.775 OA
HETATM   20  H   UNK N   1      39.498  14.562   9.921  0.00  0.00     0.167 HD
ENDBRANCH  17  19
ENDBRANCH   1  17
BRANCH   1  21
HETATM   21  N   UNK N   1      36.370  15.056  11.480  0.00  0.00    -0.343 N 
HETATM   22  C   UNK N   1      36.123  14.506  12.696  0.00  0.00     0.242 C 
HETATM   23  O   UNK N   1      36.363  15.157  13.701  0.00  0.00    -0.271 OA
HETATM   24  H   UNK N   1      36.722  15.976  11.449  0.00  0.00     0.163 HD
BRANCH  22  25
HETATM   25  C   UNK N   1      35.538  13.115  12.821  0.00  0.00     0.278 C 
BRANCH  25  26
HETATM   26  O   UNK N   1      34.591  13.047  13.823  0.00  0.00    -0.342 OA
BRANCH  26  27
HETATM   27  C   UNK N   1      34.739  12.286  14.935  0.00  0.00     0.069 A 
HETATM   28  C   UNK N   1      34.499  10.911  14.855  0.00  0.00     0.037 A 
HETATM   29  C   UNK N   1      34.675  10.100  15.980  0.00  0.00     0.003 A 
HETATM   30  C   UNK N   1      35.089  10.660  17.191  0.00  0.00     0.000 A 
HETATM   31  C   UNK N   1      35.321  12.034  17.283  0.00  0.00     0.003 A 
HETATM   32  C   UNK N   1      35.149  12.846  16.159  0.00  0.00     0.037 A 
ENDBRANCH  26  27
ENDBRANCH  25  26
ENDBRANCH  22  25
ENDBRANCH   1  21
TORSDOF 15
ENDMDL
MODEL 6
REMARK VINA RESULT:      -6.5      2.317      8.636
REMARK  15 active torsions:
REMARK  status: ('A' for Active; 'I' for Inactive)
REMARK    1  A    between atoms: O_1  and  C_2 
REMARK    2  A    between atoms: C_2  and  C_4 
REMARK    3  A    between atoms: C_4  and  C_5 
REMARK    4  A    between atoms: C_5  and  C_6 
REMARK    5  A    between atoms: C_6  and  C_7 
REMARK    6  A    between atoms: C_7  and  O_9 
REMARK    7  A    between atoms: N_10  and  O_12 
REMARK    8  A    between atoms: O_12  and  C_13 
REMARK    9  A    between atoms: C_13  and  C_14 
REMARK   10  A    between atoms: C_14  and  C_15 
REMARK   11  A    between atoms: C_14  and  N_17 
REMARK   12  A    between atoms: C_15  and  O_28 
REMARK       I    between atoms: N_17  and  C_18 
REMARK   13  A    between atoms: C_18  and  C_20 
REMARK   14  A    between atoms: C_20  and  O_21 
REMARK   15  A    between atoms: O_21  and  C_22 
ROOT
HETATM    1  C   UNK N   1      34.095  16.163   9.404  0.00  0.00     0.208 C 
ENDROOT
BRANCH   1   2
HETATM    2  C   UNK N   1      33.477  14.863   9.943  0.00  0.00     0.237 C 
BRANCH   2   3
HETATM    3  O   UNK N   1      34.379  13.839  10.131  0.00  0.00    -0.278 OA
BRANCH   3   4
HETATM    4  N   UNK N   1      34.511  13.302  11.328  0.00  0.00    -0.264 N 
HETATM    5  C   UNK N   1      35.622  12.819  11.772  0.00  0.00     0.105 C 
ATOM      6  HN  UNK N   1      33.692  13.267  11.935  1.00  0.00     0.194 HD
BRANCH   5   7
HETATM    7  C   UNK N   1      35.605  12.102  13.088  0.00  0.00     0.076 C 
BRANCH   7   8
HETATM    8  C   UNK N   1      35.274  13.033  14.244  0.00  0.00     0.116 C 
BRANCH   8   9
HETATM    9  C   UNK N   1      36.469  13.870  14.569  0.00  0.00     0.139 C 
HETATM   10  O   UNK N   1      37.202  13.567  15.498  0.00  0.00    -0.650 OA
BRANCH   9  11
HETATM   11  O   UNK N   1      36.738  14.966  13.836  0.00  0.00    -0.776 OA
HETATM   12  H   UNK N   1      37.052  15.744  14.254  0.00  0.00     0.167 HD
ENDBRANCH   9  11
ENDBRANCH   8   9
ENDBRANCH   7   8
ENDBRANCH   5   7
BRANCH   5  13
HETATM   13  C   UNK N   1      36.891  12.857  10.994  0.00  0.00     0.191 C 
HETATM   14  O   UNK N   1      37.124  12.028  10.127  0.00  0.00    -0.645 OA
BRANCH  13  15
HETATM   15  O   UNK N   1      37.802  13.813  11.251  0.00  0.00    -0.772 OA
HETATM   16  H   UNK N   1      38.696  13.704  11.510  0.00  0.00     0.167 HD
ENDBRANCH  13  15
ENDBRANCH   5  13
ENDBRANCH   3   4
ENDBRANCH   2   3
ENDBRANCH   1   2
BRANCH   1  17
HETATM   17  C   UNK N   1      35.143  16.770  10.314  0.00  0.00     0.165 C 
HETATM   18  O   UNK N   1      35.620  17.861  10.055  0.00  0.00    -0.648 OA
BRANCH  17  19
HETATM   19  O   UNK N   1      35.614  16.076  11.370  0.00  0.00    -0.775 OA
HETATM   20  H   UNK N   1      35.323  15.796  12.216  0.00  0.00     0.167 HD
ENDBRANCH  17  19
ENDBRANCH   1  17
BRANCH   1  21
HETATM   21  N   UNK N   1      34.652  15.928   8.090  0.00  0.00    -0.343 N 
HETATM   22  C   UNK N   1      34.249  16.585   6.973  0.00  0.00     0.242 C 
HETATM   23  O   UNK N   1      34.793  16.333   5.909  0.00  0.00    -0.271 OA
HETATM   24  H   UNK N   1      35.364  15.252   8.001  0.00  0.00     0.163 HD
BRANCH  22  25
HETATM   25  C   UNK N   1      33.130  17.601   7.025  0.00  0.00     0.278 C 
BRANCH  25  26
HETATM   26  O   UNK N   1      31.889  17.000   6.951  0.00  0.00    -0.342 OA
BRANCH  26  27
HETATM   27  C   UNK N   1      30.808  17.440   7.640  0.00  0.00     0.069 A 
HETATM   28  C   UNK N   1      29.529  17.130   7.170  0.00  0.00     0.037 A 
HETATM   29  C   UNK N   1      28.398  17.546   7.880  0.00  0.00     0.003 A 
HETATM   30  C   UNK N   1      28.542  18.277   9.062  0.00  0.00     0.000 A 
HETATM   31  C   UNK N   1      29.817  18.601   9.533  0.00  0.00     0.003 A 
HETATM   32  C   UNK N   1      30.947  18.183   8.828  0.00  0.00     0.037 A 
ENDBRANCH  26  27
ENDBRANCH  25  26
ENDBRANCH  22  25
ENDBRANCH   1  21
TORSDOF 15
ENDMDL
MODEL 7
REMARK VINA RESULT:      -6.5      2.017      3.157
REMARK  15 active torsions:
REMARK  status: ('A' for Active; 'I' for Inactive)
REMARK    1  A    between atoms: O_1  and  C_2 
REMARK    2  A    between atoms: C_2  and  C_4 
REMARK    3  A    between atoms: C_4  and  C_5 
REMARK    4  A    between atoms: C_5  and  C_6 
REMARK    5  A    between atoms: C_6  and  C_7 
REMARK    6  A    between atoms: C_7  and  O_9 
REMARK    7  A    between atoms: N_10  and  O_12 
REMARK    8  A    between atoms: O_12  and  C_13 
REMARK    9  A    between atoms: C_13  and  C_14 
REMARK   10  A    between atoms: C_14  and  C_15 
REMARK   11  A    between atoms: C_14  and  N_17 
REMARK   12  A    between atoms: C_15  and  O_28 
REMARK       I    between atoms: N_17  and  C_18 
REMARK   13  A    between atoms: C_18  and  C_20 
REMARK   14  A    between atoms: C_20  and  O_21 
REMARK   15  A    between atoms: O_21  and  C_22 
ROOT
HETATM    1  C   UNK N   1      36.294  14.125  11.038  0.00  0.00     0.208 C 
ENDROOT
BRANCH   1   2
HETATM    2  C   UNK N   1      36.659  13.614   9.635  0.00  0.00     0.237 C 
BRANCH   2   3
HETATM    3  O   UNK N   1      35.582  13.447   8.791  0.00  0.00    -0.278 OA
BRANCH   3   4
HETATM    4  N   UNK N   1      35.120  14.483   8.118  0.00  0.00    -0.264 N 
HETATM    5  C   UNK N   1      33.902  14.899   8.202  0.00  0.00     0.105 C 
ATOM      6  HN  UNK N   1      35.759  14.982   7.499  1.00  0.00     0.194 HD
BRANCH   5   7
HETATM    7  C   UNK N   1      33.461  15.990   7.273  0.00  0.00     0.076 C 
BRANCH   7   8
HETATM    8  C   UNK N   1      34.502  17.093   7.151  0.00  0.00     0.116 C 
BRANCH   8   9
HETATM    9  C   UNK N   1      34.394  18.013   8.325  0.00  0.00     0.139 C 
HETATM   10  O   UNK N   1      35.007  19.069   8.340  0.00  0.00    -0.650 OA
BRANCH   9  11
HETATM   11  O   UNK N   1      33.620  17.675   9.372  0.00  0.00    -0.776 OA
HETATM   12  H   UNK N   1      33.883  17.902  10.243  0.00  0.00     0.167 HD
ENDBRANCH   9  11
ENDBRANCH   8   9
ENDBRANCH   7   8
ENDBRANCH   5   7
BRANCH   5  13
HETATM   13  C   UNK N   1      32.894  14.278   9.106  0.00  0.00     0.191 C 
HETATM   14  O   UNK N   1      32.300  13.260   8.784  0.00  0.00    -0.645 OA
BRANCH  13  15
HETATM   15  O   UNK N   1      32.625  14.848  10.294  0.00  0.00    -0.772 OA
HETATM   16  H   UNK N   1      33.206  14.971  11.020  0.00  0.00     0.167 HD
ENDBRANCH  13  15
ENDBRANCH   5  13
ENDBRANCH   3   4
ENDBRANCH   2   3
ENDBRANCH   1   2
BRANCH   1  17
HETATM   17  C   UNK N   1      35.930  15.595  11.081  0.00  0.00     0.165 C 
HETATM   18  O   UNK N   1      36.733  16.434  10.710  0.00  0.00    -0.648 OA
BRANCH  17  19
HETATM   19  O   UNK N   1      34.751  15.992  11.602  0.00  0.00    -0.775 OA
HETATM   20  H   UNK N   1      33.904  15.635  11.780  0.00  0.00     0.167 HD
ENDBRANCH  17  19
ENDBRANCH   1  17
BRANCH   1  21
HETATM   21  N   UNK N   1      35.214  13.328  11.579  0.00  0.00    -0.343 N 
HETATM   22  C   UNK N   1      35.201  12.840  12.846  0.00  0.00     0.242 C 
HETATM   23  O   UNK N   1      34.236  12.194  13.221  0.00  0.00    -0.271 OA
HETATM   24  H   UNK N   1      34.446  13.129  10.996  0.00  0.00     0.163 HD
BRANCH  22  25
HETATM   25  C   UNK N   1      36.368  13.067  13.783  0.00  0.00     0.278 C 
BRANCH  25  26
HETATM   26  O   UNK N   1      35.973  13.693  14.948  0.00  0.00    -0.342 OA
BRANCH  26  27
HETATM   27  C   UNK N   1      35.771  13.033  16.115  0.00  0.00     0.069 A 
HETATM   28  C   UNK N   1      36.041  11.663  16.177  0.00  0.00     0.037 A 
HETATM   29  C   UNK N   1      35.870  10.966  17.377  0.00  0.00     0.003 A 
HETATM   30  C   UNK N   1      35.426  11.637  18.520  0.00  0.00     0.000 A 
HETATM   31  C   UNK N   1      35.144  13.004  18.464  0.00  0.00     0.003 A 
HETATM   32  C   UNK N   1      35.317  13.702  17.267  0.00  0.00     0.037 A 
ENDBRANCH  26  27
ENDBRANCH  25  26
ENDBRANCH  22  25
ENDBRANCH   1  21
TORSDOF 15
ENDMDL
MODEL 8
REMARK VINA RESULT:      -6.5      2.095      3.339
REMARK  15 active torsions:
REMARK  status: ('A' for Active; 'I' for Inactive)
REMARK    1  A    between atoms: O_1  and  C_2 
REMARK    2  A    between atoms: C_2  and  C_4 
REMARK    3  A    between atoms: C_4  and  C_5 
REMARK    4  A    between atoms: C_5  and  C_6 
REMARK    5  A    between atoms: C_6  and  C_7 
REMARK    6  A    between atoms: C_7  and  O_9 
REMARK    7  A    between atoms: N_10  and  O_12 
REMARK    8  A    between atoms: O_12  and  C_13 
REMARK    9  A    between atoms: C_13  and  C_14 
REMARK   10  A    between atoms: C_14  and  C_15 
REMARK   11  A    between atoms: C_14  and  N_17 
REMARK   12  A    between atoms: C_15  and  O_28 
REMARK       I    between atoms: N_17  and  C_18 
REMARK   13  A    between atoms: C_18  and  C_20 
REMARK   14  A    between atoms: C_20  and  O_21 
REMARK   15  A    between atoms: O_21  and  C_22 
ROOT
HETATM    1  C   UNK N   1      35.416  12.085  12.137  0.00  0.00     0.208 C 
ENDROOT
BRANCH   1   2
HETATM    2  C   UNK N   1      35.136  12.061  10.626  0.00  0.00     0.237 C 
BRANCH   2   3
HETATM    3  O   UNK N   1      35.710  13.098   9.923  0.00  0.00    -0.278 OA
BRANCH   3   4
HETATM    4  N   UNK N   1      35.084  13.595   8.874  0.00  0.00    -0.264 N 
HETATM    5  C   UNK N   1      34.373  14.671   8.915  0.00  0.00     0.105 C 
ATOM      6  HN  UNK N   1      35.165  13.104   7.984  1.00  0.00     0.194 HD
BRANCH   5   7
HETATM    7  C   UNK N   1      33.590  15.048   7.694  0.00  0.00     0.076 C 
BRANCH   7   8
HETATM    8  C   UNK N   1      34.430  15.827   6.693  0.00  0.00     0.116 C 
BRANCH   8   9
HETATM    9  C   UNK N   1      33.953  17.243   6.636  0.00  0.00     0.139 C 
HETATM   10  O   UNK N   1      34.599  18.133   7.168  0.00  0.00    -0.650 OA
BRANCH   9  11
HETATM   11  O   UNK N   1      32.806  17.539   6.000  0.00  0.00    -0.776 OA
HETATM   12  H   UNK N   1      32.776  18.254   5.395  0.00  0.00     0.167 HD
ENDBRANCH   9  11
ENDBRANCH   8   9
ENDBRANCH   7   8
ENDBRANCH   5   7
BRANCH   5  13
HETATM   13  C   UNK N   1      34.220  15.495  10.146  0.00  0.00     0.191 C 
HETATM   14  O   UNK N   1      34.827  16.547  10.280  0.00  0.00    -0.645 OA
BRANCH  13  15
HETATM   15  O   UNK N   1      33.405  15.077  11.131  0.00  0.00    -0.772 OA
HETATM   16  H   UNK N   1      32.553  15.398  11.350  0.00  0.00     0.167 HD
ENDBRANCH  13  15
ENDBRANCH   5  13
ENDBRANCH   3   4
ENDBRANCH   2   3
ENDBRANCH   1   2
BRANCH   1  17
HETATM   17  C   UNK N   1      35.976  13.401  12.637  0.00  0.00     0.165 C 
HETATM   18  O   UNK N   1      35.267  14.164  13.271  0.00  0.00    -0.648 OA
BRANCH  17  19
HETATM   19  O   UNK N   1      37.232  13.775  12.318  0.00  0.00    -0.775 OA
HETATM   20  H   UNK N   1      37.714  14.563  12.163  0.00  0.00     0.167 HD
ENDBRANCH  17  19
ENDBRANCH   1  17
BRANCH   1  21
HETATM   21  N   UNK N   1      34.210  11.749  12.860  0.00  0.00    -0.343 N 
HETATM   22  C   UNK N   1      34.190  10.970  13.971  0.00  0.00     0.242 C 
HETATM   23  O   UNK N   1      33.125  10.757  14.527  0.00  0.00    -0.271 OA
HETATM   24  H   UNK N   1      33.353  12.106  12.528  0.00  0.00     0.163 HD
BRANCH  22  25
HETATM   25  C   UNK N   1      35.460  10.348  14.512  0.00  0.00     0.278 C 
BRANCH  25  26
HETATM   26  O   UNK N   1      36.221  11.265  15.209  0.00  0.00    -0.342 OA
BRANCH  26  27
HETATM   27  C   UNK N   1      35.879  11.737  16.434  0.00  0.00     0.069 A 
HETATM   28  C   UNK N   1      35.581  13.094  16.582  0.00  0.00     0.037 A 
HETATM   29  C   UNK N   1      35.195  13.598  17.827  0.00  0.00     0.003 A 
HETATM   30  C   UNK N   1      35.110  12.747  18.932  0.00  0.00     0.000 A 
HETATM   31  C   UNK N   1      35.417  11.391  18.796  0.00  0.00     0.003 A 
HETATM   32  C   UNK N   1      35.798  10.885  17.552  0.00  0.00     0.037 A 
ENDBRANCH  26  27
ENDBRANCH  25  26
ENDBRANCH  22  25
ENDBRANCH   1  21
TORSDOF 15
ENDMDL
MODEL 9
REMARK VINA RESULT:      -6.5     16.872     21.530
REMARK  15 active torsions:
REMARK  status: ('A' for Active; 'I' for Inactive)
REMARK    1  A    between atoms: O_1  and  C_2 
REMARK    2  A    between atoms: C_2  and  C_4 
REMARK    3  A    between atoms: C_4  and  C_5 
REMARK    4  A    between atoms: C_5  and  C_6 
REMARK    5  A    between atoms: C_6  and  C_7 
REMARK    6  A    between atoms: C_7  and  O_9 
REMARK    7  A    between atoms: N_10  and  O_12 
REMARK    8  A    between atoms: O_12  and  C_13 
REMARK    9  A    between atoms: C_13  and  C_14 
REMARK   10  A    between atoms: C_14  and  C_15 
REMARK   11  A    between atoms: C_14  and  N_17 
REMARK   12  A    between atoms: C_15  and  O_28 
REMARK       I    between atoms: N_17  and  C_18 
REMARK   13  A    between atoms: C_18  and  C_20 
REMARK   14  A    between atoms: C_20  and  O_21 
REMARK   15  A    between atoms: O_21  and  C_22 
ROOT
HETATM    1  C   UNK N   1      27.193  25.482  -5.164  0.00  0.00     0.208 C 
ENDROOT
BRANCH   1   2
HETATM    2  C   UNK N   1      28.705  25.405  -5.432  0.00  0.00     0.237 C 
BRANCH   2   3
HETATM    3  O   UNK N   1      29.434  24.820  -4.420  0.00  0.00    -0.278 OA
BRANCH   3   4
HETATM    4  N   UNK N   1      29.884  23.589  -4.573  0.00  0.00    -0.264 N 
HETATM    5  C   UNK N   1      29.931  22.727  -3.615  0.00  0.00     0.105 C 
ATOM      6  HN  UNK N   1      30.210  23.305  -5.496  1.00  0.00     0.194 HD
BRANCH   5   7
HETATM    7  C   UNK N   1      30.603  21.413  -3.880  0.00  0.00     0.076 C 
BRANCH   7   8
HETATM    8  C   UNK N   1      32.044  21.588  -4.334  0.00  0.00     0.116 C 
BRANCH   8   9
HETATM    9  C   UNK N   1      32.967  21.083  -3.271  0.00  0.00     0.139 C 
HETATM   10  O   UNK N   1      34.006  20.516  -3.573  0.00  0.00    -0.650 OA
BRANCH   9  11
HETATM   11  O   UNK N   1      32.650  21.250  -1.974  0.00  0.00    -0.776 OA
HETATM   12  H   UNK N   1      32.010  21.888  -1.727  0.00  0.00     0.167 HD
ENDBRANCH   9  11
ENDBRANCH   8   9
ENDBRANCH   7   8
ENDBRANCH   5   7
BRANCH   5  13
HETATM   13  C   UNK N   1      29.441  23.014  -2.239  0.00  0.00     0.191 C 
HETATM   14  O   UNK N   1      30.200  22.997  -1.282  0.00  0.00    -0.645 OA
BRANCH  13  15
HETATM   15  O   UNK N   1      28.140  23.292  -2.040  0.00  0.00    -0.772 OA
HETATM   16  H   UNK N   1      27.754  23.779  -1.338  0.00  0.00     0.167 HD
ENDBRANCH  13  15
ENDBRANCH   5  13
ENDBRANCH   3   4
ENDBRANCH   2   3
ENDBRANCH   1   2
BRANCH   1  17
HETATM   17  C   UNK N   1      26.441  24.216  -5.521  0.00  0.00     0.165 C 
HETATM   18  O   UNK N   1      25.222  24.201  -5.494  0.00  0.00    -0.648 OA
BRANCH  17  19
HETATM   19  O   UNK N   1      27.111  23.077  -5.793  0.00  0.00    -0.775 OA
HETATM   20  H   UNK N   1      26.966  22.152  -5.766  0.00  0.00     0.167 HD
ENDBRANCH  17  19
ENDBRANCH   1  17
BRANCH   1  21
HETATM   21  N   UNK N   1      26.962  25.824  -3.778  0.00  0.00    -0.343 N 
HETATM   22  C   UNK N   1      26.155  26.839  -3.378  0.00  0.00     0.242 C 
HETATM   23  O   UNK N   1      26.005  27.041  -2.183  0.00  0.00    -0.271 OA
HETATM   24  H   UNK N   1      27.417  25.291  -3.085  0.00  0.00     0.163 HD
BRANCH  22  25
HETATM   25  C   UNK N   1      25.462  27.730  -4.386  0.00  0.00     0.278 C 
BRANCH  25  26
HETATM   26  O   UNK N   1      25.981  29.009  -4.380  0.00  0.00    -0.342 OA
BRANCH  26  27
HETATM   27  C   UNK N   1      27.120  29.351  -5.030  0.00  0.00     0.069 A 
HETATM   28  C   UNK N   1      28.021  30.224  -4.412  0.00  0.00     0.037 A 
HETATM   29  C   UNK N   1      29.217  30.567  -5.048  0.00  0.00     0.003 A 
HETATM   30  C   UNK N   1      29.518  30.041  -6.308  0.00  0.00     0.000 A 
HETATM   31  C   UNK N   1      28.619  29.177  -6.937  0.00  0.00     0.003 A 
HETATM   32  C   UNK N   1      27.424  28.830  -6.302  0.00  0.00     0.037 A 
ENDBRANCH  26  27
ENDBRANCH  25  26
ENDBRANCH  22  25
ENDBRANCH   1  21
TORSDOF 15
ENDMDL
