MODEL 1
REMARK VINA RESULT:      -7.9      0.000      0.000
REMARK  6 active torsions:
REMARK  status: ('A' for Active; 'I' for Inactive)
REMARK    1  A    between atoms: C_8  and  C_9 
REMARK       I    between atoms: C_9  and  N_11 
REMARK    2  A    between atoms: N_11  and  C_12 
REMARK    3  A    between atoms: C_15  and  O_21 
REMARK    4  A    between atoms: C_17  and  C_18 
REMARK    5  A    between atoms: C_18  and  O_20 
REMARK    6  A    between atoms: O_21  and  C_22 
ROOT
HETATM    1  C   UNK N   1      32.914  16.226   8.789  0.00  0.00     0.052 A 
HETATM    2  C   UNK N   1      32.763  15.052   9.551  0.00  0.00     0.033 A 
HETATM    3  C   UNK N   1      33.885  14.435  10.129  0.00  0.00     0.039 A 
HETATM    4  C   UNK N   1      35.164  14.982   9.952  0.00  0.00     0.080 A 
HETATM    5  C   UNK N   1      35.296  16.147   9.194  0.00  0.00     0.058 A 
HETATM    6  C   UNK N   1      34.202  16.776   8.612  0.00  0.00     0.067 A 
ENDROOT
BRANCH   1   7
HETATM    7  N   UNK N   1      31.813  16.887   8.186  0.00  0.00    -0.322 N 
HETATM    8  C   UNK N   1      30.984  16.487   7.190  0.00  0.00     0.257 C 
HETATM    9  O   UNK N   1      31.122  15.397   6.657  0.00  0.00    -0.267 OA
HETATM   10  H   UNK N   1      31.619  17.780   8.549  0.00  0.00     0.169 HD
BRANCH   8  11
HETATM   11  C   UNK N   1      29.906  17.433   6.779  0.00  0.00     0.054 A 
HETATM   12  C   UNK N   1      29.545  17.710   5.436  0.00  0.00     0.051 A 
HETATM   13  C   UNK N   1      28.512  18.620   5.172  0.00  0.00     0.048 A 
HETATM   14 Cl   UNK N   1      30.341  16.958   4.062  0.00  0.00    -0.083 Cl
HETATM   15  C   UNK N   1      27.835  19.255   6.217  0.00  0.00     0.035 A 
HETATM   16 Cl   UNK N   1      26.546  20.390   5.879  0.00  0.00    -0.084 Cl
HETATM   17  C   UNK N   1      28.184  18.988   7.535  0.00  0.00     0.025 A 
HETATM   18  C   UNK N   1      29.207  18.087   7.810  0.00  0.00     0.020 A 
ENDBRANCH   8  11
ENDBRANCH   1   7
BRANCH   6  19
HETATM   19  C   UNK N   1      34.449  18.015   7.821  0.00  0.00     0.178 C 
HETATM   20  O   UNK N   1      34.211  18.028   6.623  0.00  0.00    -0.646 OA
BRANCH  19  21
HETATM   21  O   UNK N   1      34.931  19.131   8.400  0.00  0.00    -0.773 OA
HETATM   22  H   UNK N   1      35.691  19.085   8.947  0.00  0.00     0.167 HD
ENDBRANCH  19  21
ENDBRANCH   6  19
BRANCH   4  23
HETATM   23  O   UNK N   1      36.246  14.375  10.517  0.00  0.00    -0.279 OA
BRANCH  23  24
HETATM   24  C   UNK N   1      36.379  13.987  11.824  0.00  0.00     0.228 A 
HETATM   25  N   UNK N   1      36.342  14.930  12.803  0.00  0.00    -0.332 N 
HETATM   26  C   UNK N   1      36.470  14.583  14.112  0.00  0.00     0.093 A 
ATOM     27  HN  UNK N   1      36.216  15.911  12.551  1.00  0.00     0.168 HD
HETATM   28  C   UNK N   1      36.642  13.248  14.468  0.00  0.00     0.034 A 
HETATM   29  C   UNK N   1      36.679  12.293  13.459  0.00  0.00     0.093 A 
HETATM   30  N   UNK N   1      36.547  12.677  12.164  0.00  0.00    -0.332 N 
ATOM     31  HN  UNK N   1      36.575  11.971  11.428  1.00  0.00     0.168 HD
ENDBRANCH  23  24
ENDBRANCH   4  23
TORSDOF 6
ENDMDL
MODEL 2
REMARK VINA RESULT:      -7.7      4.371      8.995
REMARK  6 active torsions:
REMARK  status: ('A' for Active; 'I' for Inactive)
REMARK    1  A    between atoms: C_8  and  C_9 
REMARK       I    between atoms: C_9  and  N_11 
REMARK    2  A    between atoms: N_11  and  C_12 
REMARK    3  A    between atoms: C_15  and  O_21 
REMARK    4  A    between atoms: C_17  and  C_18 
REMARK    5  A    between atoms: C_18  and  O_20 
REMARK    6  A    between atoms: O_21  and  C_22 
ROOT
HETATM    1  C   UNK N   1      34.472  13.966  10.205  0.00  0.00     0.052 A 
HETATM    2  C   UNK N   1      33.804  13.072   9.346  0.00  0.00     0.033 A 
HETATM    3  C   UNK N   1      33.675  13.368   7.980  0.00  0.00     0.039 A 
HETATM    4  C   UNK N   1      34.210  14.554   7.458  0.00  0.00     0.080 A 
HETATM    5  C   UNK N   1      34.870  15.429   8.323  0.00  0.00     0.058 A 
HETATM    6  C   UNK N   1      35.011  15.160   9.679  0.00  0.00     0.067 A 
ENDROOT
BRANCH   1   7
HETATM    7  N   UNK N   1      34.629  13.712  11.592  0.00  0.00    -0.322 N 
HETATM    8  C   UNK N   1      35.514  12.924  12.250  0.00  0.00     0.257 C 
HETATM    9  O   UNK N   1      36.358  12.283  11.641  0.00  0.00    -0.267 OA
HETATM   10  H   UNK N   1      33.990  14.187  12.172  0.00  0.00     0.169 HD
BRANCH   8  11
HETATM   11  C   UNK N   1      35.411  12.875  13.737  0.00  0.00     0.054 A 
HETATM   12  C   UNK N   1      34.640  11.930  14.461  0.00  0.00     0.051 A 
HETATM   13  C   UNK N   1      34.620  11.983  15.862  0.00  0.00     0.048 A 
HETATM   14 Cl   UNK N   1      33.691  10.675  13.678  0.00  0.00    -0.083 Cl
HETATM   15  C   UNK N   1      35.351  12.955  16.551  0.00  0.00     0.035 A 
HETATM   16 Cl   UNK N   1      35.321  13.014  18.299  0.00  0.00    -0.084 Cl
HETATM   17  C   UNK N   1      36.109  13.883  15.846  0.00  0.00     0.025 A 
HETATM   18  C   UNK N   1      36.137  13.841  14.457  0.00  0.00     0.020 A 
ENDBRANCH   8  11
ENDBRANCH   1   7
BRANCH   6  19
HETATM   19  C   UNK N   1      35.732  16.158  10.518  0.00  0.00     0.178 C 
HETATM   20  O   UNK N   1      35.190  17.214  10.806  0.00  0.00    -0.646 OA
BRANCH  19  21
HETATM   21  O   UNK N   1      36.978  15.923  10.971  0.00  0.00    -0.773 OA
HETATM   22  H   UNK N   1      37.168  15.127  11.428  0.00  0.00     0.167 HD
ENDBRANCH  19  21
ENDBRANCH   6  19
BRANCH   4  23
HETATM   23  O   UNK N   1      34.080  14.832   6.129  0.00  0.00    -0.279 OA
BRANCH  23  24
HETATM   24  C   UNK N   1      33.228  15.741   5.561  0.00  0.00     0.228 A 
HETATM   25  N   UNK N   1      33.588  16.353   4.402  0.00  0.00    -0.332 N 
HETATM   26  C   UNK N   1      32.768  17.262   3.808  0.00  0.00     0.093 A 
ATOM     27  HN  UNK N   1      34.486  16.127   3.972  1.00  0.00     0.168 HD
HETATM   28  C   UNK N   1      31.541  17.579   4.384  0.00  0.00     0.034 A 
HETATM   29  C   UNK N   1      31.184  16.947   5.570  0.00  0.00     0.093 A 
HETATM   30  N   UNK N   1      32.028  16.045   6.133  0.00  0.00    -0.332 N 
ATOM     31  HN  UNK N   1      31.759  15.585   7.003  1.00  0.00     0.168 HD
ENDBRANCH  23  24
ENDBRANCH   4  23
TORSDOF 6
ENDMDL
MODEL 3
REMARK VINA RESULT:      -7.5     10.647     14.355
REMARK  6 active torsions:
REMARK  status: ('A' for Active; 'I' for Inactive)
REMARK    1  A    between atoms: C_8  and  C_9 
REMARK       I    between atoms: C_9  and  N_11 
REMARK    2  A    between atoms: N_11  and  C_12 
REMARK    3  A    between atoms: C_15  and  O_21 
REMARK    4  A    between atoms: C_17  and  C_18 
REMARK    5  A    between atoms: C_18  and  O_20 
REMARK    6  A    between atoms: O_21  and  C_22 
ROOT
HETATM    1  C   UNK N   1      21.051  15.202   6.262  0.00  0.00     0.052 A 
HETATM    2  C   UNK N   1      19.698  15.499   6.011  0.00  0.00     0.033 A 
HETATM    3  C   UNK N   1      19.325  16.152   4.826  0.00  0.00     0.039 A 
HETATM    4  C   UNK N   1      20.297  16.515   3.881  0.00  0.00     0.080 A 
HETATM    5  C   UNK N   1      21.634  16.212   4.146  0.00  0.00     0.058 A 
HETATM    6  C   UNK N   1      22.028  15.566   5.311  0.00  0.00     0.067 A 
ENDROOT
BRANCH   1   7
HETATM    7  N   UNK N   1      21.477  14.543   7.445  0.00  0.00    -0.322 N 
HETATM    8  C   UNK N   1      21.374  13.243   7.815  0.00  0.00     0.257 C 
HETATM    9  O   UNK N   1      20.845  12.421   7.082  0.00  0.00    -0.267 OA
HETATM   10  H   UNK N   1      21.919  15.125   8.104  0.00  0.00     0.169 HD
BRANCH   8  11
HETATM   11  C   UNK N   1      21.933  12.866   9.146  0.00  0.00     0.054 A 
HETATM   12  C   UNK N   1      23.307  12.635   9.407  0.00  0.00     0.051 A 
HETATM   13  C   UNK N   1      23.715  12.285  10.702  0.00  0.00     0.048 A 
HETATM   14 Cl   UNK N   1      24.547  12.767   8.168  0.00  0.00    -0.083 Cl
HETATM   15  C   UNK N   1      22.783  12.163  11.736  0.00  0.00     0.035 A 
HETATM   16 Cl   UNK N   1      23.300  11.726  13.349  0.00  0.00    -0.084 Cl
HETATM   17  C   UNK N   1      21.435  12.388  11.486  0.00  0.00     0.025 A 
HETATM   18  C   UNK N   1      21.017  12.735  10.206  0.00  0.00     0.020 A 
ENDBRANCH   8  11
ENDBRANCH   1   7
BRANCH   6  19
HETATM   19  C   UNK N   1      23.480  15.289   5.499  0.00  0.00     0.178 C 
HETATM   20  O   UNK N   1      24.073  14.586   4.695  0.00  0.00    -0.646 OA
BRANCH  19  21
HETATM   21  O   UNK N   1      24.161  15.798   6.543  0.00  0.00    -0.773 OA
HETATM   22  H   UNK N   1      25.084  15.948   6.473  0.00  0.00     0.167 HD
ENDBRANCH  19  21
ENDBRANCH   6  19
BRANCH   4  23
HETATM   23  O   UNK N   1      19.925  17.149   2.733  0.00  0.00    -0.279 OA
BRANCH  23  24
HETATM   24  C   UNK N   1      20.212  18.440   2.380  0.00  0.00     0.228 A 
HETATM   25  N   UNK N   1      20.338  19.381   3.353  0.00  0.00    -0.332 N 
HETATM   26  C   UNK N   1      20.623  20.675   3.041  0.00  0.00     0.093 A 
ATOM     27  HN  UNK N   1      20.217  19.114   4.331  1.00  0.00     0.168 HD
HETATM   28  C   UNK N   1      20.791  21.053   1.712  0.00  0.00     0.034 A 
HETATM   29  C   UNK N   1      20.659  20.082   0.726  0.00  0.00     0.093 A 
HETATM   30  N   UNK N   1      20.374  18.802   1.075  0.00  0.00    -0.332 N 
ATOM     31  HN  UNK N   1      20.279  18.094   0.346  1.00  0.00     0.168 HD
ENDBRANCH  23  24
ENDBRANCH   4  23
TORSDOF 6
ENDMDL
MODEL 4
REMARK VINA RESULT:      -7.4      5.728     11.438
REMARK  6 active torsions:
REMARK  status: ('A' for Active; 'I' for Inactive)
REMARK    1  A    between atoms: C_8  and  C_9 
REMARK       I    between atoms: C_9  and  N_11 
REMARK    2  A    between atoms: N_11  and  C_12 
REMARK    3  A    between atoms: C_15  and  O_21 
REMARK    4  A    between atoms: C_17  and  C_18 
REMARK    5  A    between atoms: C_18  and  O_20 
REMARK    6  A    between atoms: O_21  and  C_22 
ROOT
HETATM    1  C   UNK N   1      27.169  19.003   4.941  0.00  0.00     0.052 A 
HETATM    2  C   UNK N   1      26.673  18.320   3.814  0.00  0.00     0.033 A 
HETATM    3  C   UNK N   1      25.462  18.715   3.224  0.00  0.00     0.039 A 
HETATM    4  C   UNK N   1      24.736  19.793   3.750  0.00  0.00     0.080 A 
HETATM    5  C   UNK N   1      25.242  20.460   4.867  0.00  0.00     0.058 A 
HETATM    6  C   UNK N   1      26.437  20.088   5.470  0.00  0.00     0.067 A 
ENDROOT
BRANCH   1   7
HETATM    7  N   UNK N   1      28.387  18.642   5.573  0.00  0.00    -0.322 N 
HETATM    8  C   UNK N   1      28.653  17.673   6.483  0.00  0.00     0.257 C 
HETATM    9  O   UNK N   1      27.770  16.935   6.892  0.00  0.00    -0.267 OA
HETATM   10  H   UNK N   1      29.165  19.183   5.307  0.00  0.00     0.169 HD
BRANCH   8  11
HETATM   11  C   UNK N   1      30.063  17.552   6.957  0.00  0.00     0.054 A 
HETATM   12  C   UNK N   1      30.501  17.865   8.269  0.00  0.00     0.051 A 
HETATM   13  C   UNK N   1      31.855  17.711   8.600  0.00  0.00     0.048 A 
HETATM   14 Cl   UNK N   1      29.416  18.446   9.523  0.00  0.00    -0.083 Cl
HETATM   15  C   UNK N   1      32.775  17.253   7.652  0.00  0.00     0.035 A 
HETATM   16 Cl   UNK N   1      34.462  17.064   8.073  0.00  0.00    -0.084 Cl
HETATM   17  C   UNK N   1      32.350  16.945   6.365  0.00  0.00     0.025 A 
HETATM   18  C   UNK N   1      31.011  17.093   6.024  0.00  0.00     0.020 A 
ENDBRANCH   8  11
ENDBRANCH   1   7
BRANCH   6  19
HETATM   19  C   UNK N   1      26.891  20.864   6.658  0.00  0.00     0.178 C 
HETATM   20  O   UNK N   1      27.792  21.681   6.543  0.00  0.00    -0.646 OA
BRANCH  19  21
HETATM   21  O   UNK N   1      26.328  20.686   7.868  0.00  0.00    -0.773 OA
HETATM   22  H   UNK N   1      25.782  21.355   8.234  0.00  0.00     0.167 HD
ENDBRANCH  19  21
ENDBRANCH   6  19
BRANCH   4  23
HETATM   23  O   UNK N   1      23.561  20.169   3.169  0.00  0.00    -0.279 OA
BRANCH  23  24
HETATM   24  C   UNK N   1      22.363  19.510   3.242  0.00  0.00     0.228 A 
HETATM   25  N   UNK N   1      21.273  20.046   2.631  0.00  0.00    -0.332 N 
HETATM   26  C   UNK N   1      20.065  19.421   2.681  0.00  0.00     0.093 A 
ATOM     27  HN  UNK N   1      21.362  20.930   2.128  1.00  0.00     0.168 HD
HETATM   28  C   UNK N   1      19.930  18.215   3.364  0.00  0.00     0.034 A 
HETATM   29  C   UNK N   1      21.052  17.676   3.984  0.00  0.00     0.093 A 
HETATM   30  N   UNK N   1      22.240  18.329   3.912  0.00  0.00    -0.332 N 
ATOM     31  HN  UNK N   1      23.058  17.928   4.370  1.00  0.00     0.168 HD
ENDBRANCH  23  24
ENDBRANCH   4  23
TORSDOF 6
ENDMDL
MODEL 5
REMARK VINA RESULT:      -7.3      5.720     10.616
REMARK  6 active torsions:
REMARK  status: ('A' for Active; 'I' for Inactive)
REMARK    1  A    between atoms: C_8  and  C_9 
REMARK       I    between atoms: C_9  and  N_11 
REMARK    2  A    between atoms: N_11  and  C_12 
REMARK    3  A    between atoms: C_15  and  O_21 
REMARK    4  A    between atoms: C_17  and  C_18 
REMARK    5  A    between atoms: C_18  and  O_20 
REMARK    6  A    between atoms: O_21  and  C_22 
ROOT
HETATM    1  C   UNK N   1      35.669  13.268  13.687  0.00  0.00     0.052 A 
HETATM    2  C   UNK N   1      36.128  14.562  13.375  0.00  0.00     0.033 A 
HETATM    3  C   UNK N   1      36.001  15.062  12.069  0.00  0.00     0.039 A 
HETATM    4  C   UNK N   1      35.416  14.278  11.064  0.00  0.00     0.080 A 
HETATM    5  C   UNK N   1      34.966  12.997  11.390  0.00  0.00     0.058 A 
HETATM    6  C   UNK N   1      35.080  12.480  12.675  0.00  0.00     0.067 A 
ENDROOT
BRANCH   1   7
HETATM    7  N   UNK N   1      35.775  12.718  14.991  0.00  0.00    -0.322 N 
HETATM    8  C   UNK N   1      34.875  12.676  16.004  0.00  0.00     0.257 C 
HETATM    9  O   UNK N   1      33.762  13.162  15.878  0.00  0.00    -0.267 OA
HETATM   10  H   UNK N   1      36.642  12.299  15.192  0.00  0.00     0.169 HD
BRANCH   8  11
HETATM   11  C   UNK N   1      35.305  12.013  17.270  0.00  0.00     0.054 A 
HETATM   12  C   UNK N   1      35.803  10.689  17.357  0.00  0.00     0.051 A 
HETATM   13  C   UNK N   1      36.177  10.173  18.607  0.00  0.00     0.048 A 
HETATM   14 Cl   UNK N   1      35.979   9.643  15.956  0.00  0.00    -0.083 Cl
HETATM   15  C   UNK N   1      36.064  10.948  19.763  0.00  0.00     0.035 A 
HETATM   16 Cl   UNK N   1      36.533  10.297  21.318  0.00  0.00    -0.084 Cl
HETATM   17  C   UNK N   1      35.576  12.247  19.684  0.00  0.00     0.025 A 
HETATM   18  C   UNK N   1      35.202  12.771  18.451  0.00  0.00     0.020 A 
ENDBRANCH   8  11
ENDBRANCH   1   7
BRANCH   6  19
HETATM   19  C   UNK N   1      34.569  11.102  12.920  0.00  0.00     0.178 C 
HETATM   20  O   UNK N   1      35.180  10.140  12.480  0.00  0.00    -0.646 OA
BRANCH  19  21
HETATM   21  O   UNK N   1      33.440  10.888  13.622  0.00  0.00    -0.773 OA
HETATM   22  H   UNK N   1      33.431  10.257  14.315  0.00  0.00     0.167 HD
ENDBRANCH  19  21
ENDBRANCH   6  19
BRANCH   4  23
HETATM   23  O   UNK N   1      35.297  14.773   9.799  0.00  0.00    -0.279 OA
BRANCH  23  24
HETATM   24  C   UNK N   1      34.327  15.623   9.339  0.00  0.00     0.228 A 
HETATM   25  N   UNK N   1      34.667  16.896   9.001  0.00  0.00    -0.332 N 
HETATM   26  C   UNK N   1      33.732  17.770   8.541  0.00  0.00     0.093 A 
ATOM     27  HN  UNK N   1      35.638  17.199   9.094  1.00  0.00     0.168 HD
HETATM   28  C   UNK N   1      32.405  17.369   8.409  0.00  0.00     0.034 A 
HETATM   29  C   UNK N   1      32.070  16.066   8.758  0.00  0.00     0.093 A 
HETATM   30  N   UNK N   1      33.030  15.222   9.214  0.00  0.00    -0.332 N 
ATOM     31  HN  UNK N   1      32.777  14.267   9.468  1.00  0.00     0.168 HD
ENDBRANCH  23  24
ENDBRANCH   4  23
TORSDOF 6
ENDMDL
MODEL 6
REMARK VINA RESULT:      -7.1      3.409      4.288
REMARK  6 active torsions:
REMARK  status: ('A' for Active; 'I' for Inactive)
REMARK    1  A    between atoms: C_8  and  C_9 
REMARK       I    between atoms: C_9  and  N_11 
REMARK    2  A    between atoms: N_11  and  C_12 
REMARK    3  A    between atoms: C_15  and  O_21 
REMARK    4  A    between atoms: C_17  and  C_18 
REMARK    5  A    between atoms: C_18  and  O_20 
REMARK    6  A    between atoms: O_21  and  C_22 
ROOT
HETATM    1  C   UNK N   1      35.323  14.350   9.255  0.00  0.00     0.052 A 
HETATM    2  C   UNK N   1      35.702  13.013   9.479  0.00  0.00     0.033 A 
HETATM    3  C   UNK N   1      36.232  12.627  10.721  0.00  0.00     0.039 A 
HETATM    4  C   UNK N   1      36.389  13.569  11.748  0.00  0.00     0.080 A 
HETATM    5  C   UNK N   1      36.008  14.891  11.509  0.00  0.00     0.058 A 
HETATM    6  C   UNK N   1      35.480  15.298  10.289  0.00  0.00     0.067 A 
ENDROOT
BRANCH   1   7
HETATM    7  N   UNK N   1      34.782  14.789   8.019  0.00  0.00    -0.322 N 
HETATM    8  C   UNK N   1      35.375  14.970   6.813  0.00  0.00     0.257 C 
HETATM    9  O   UNK N   1      36.566  14.748   6.658  0.00  0.00    -0.267 OA
HETATM   10  H   UNK N   1      33.820  14.995   8.040  0.00  0.00     0.169 HD
BRANCH   8  11
HETATM   11  C   UNK N   1      34.513  15.449   5.694  0.00  0.00     0.054 A 
HETATM   12  C   UNK N   1      34.222  14.702   4.525  0.00  0.00     0.051 A 
HETATM   13  C   UNK N   1      33.396  15.259   3.537  0.00  0.00     0.048 A 
HETATM   14 Cl   UNK N   1      34.853  13.086   4.244  0.00  0.00    -0.083 Cl
HETATM   15  C   UNK N   1      32.858  16.539   3.694  0.00  0.00     0.035 A 
HETATM   16 Cl   UNK N   1      31.829  17.227   2.457  0.00  0.00    -0.084 Cl
HETATM   17  C   UNK N   1      33.141  17.276   4.838  0.00  0.00     0.025 A 
HETATM   18  C   UNK N   1      33.958  16.736   5.824  0.00  0.00     0.020 A 
ENDBRANCH   8  11
ENDBRANCH   1   7
BRANCH   6  19
HETATM   19  C   UNK N   1      35.105  16.731  10.134  0.00  0.00     0.178 C 
HETATM   20  O   UNK N   1      35.924  17.604  10.378  0.00  0.00    -0.646 OA
BRANCH  19  21
HETATM   21  O   UNK N   1      33.872  17.092   9.729  0.00  0.00    -0.773 OA
HETATM   22  H   UNK N   1      33.279  17.495  10.333  0.00  0.00     0.167 HD
ENDBRANCH  19  21
ENDBRANCH   6  19
BRANCH   4  23
HETATM   23  O   UNK N   1      36.905  13.184  12.950  0.00  0.00    -0.279 OA
BRANCH  23  24
HETATM   24  C   UNK N   1      36.244  13.136  14.148  0.00  0.00     0.228 A 
HETATM   25  N   UNK N   1      35.104  12.401  14.248  0.00  0.00    -0.332 N 
HETATM   26  C   UNK N   1      34.419  12.329  15.421  0.00  0.00     0.093 A 
ATOM     27  HN  UNK N   1      34.758  11.897  13.431  1.00  0.00     0.168 HD
HETATM   28  C   UNK N   1      34.881  13.013  16.544  0.00  0.00     0.034 A 
HETATM   29  C   UNK N   1      36.048  13.760  16.429  0.00  0.00     0.093 A 
HETATM   30  N   UNK N   1      36.703  13.809  15.242  0.00  0.00    -0.332 N 
ATOM     31  HN  UNK N   1      37.559  14.359  15.166  1.00  0.00     0.168 HD
ENDBRANCH  23  24
ENDBRANCH   4  23
TORSDOF 6
ENDMDL
MODEL 7
REMARK VINA RESULT:      -7.1      4.578      9.282
REMARK  6 active torsions:
REMARK  status: ('A' for Active; 'I' for Inactive)
REMARK    1  A    between atoms: C_8  and  C_9 
REMARK       I    between atoms: C_9  and  N_11 
REMARK    2  A    between atoms: N_11  and  C_12 
REMARK    3  A    between atoms: C_15  and  O_21 
REMARK    4  A    between atoms: C_17  and  C_18 
REMARK    5  A    between atoms: C_18  and  O_20 
REMARK    6  A    between atoms: O_21  and  C_22 
ROOT
HETATM    1  C   UNK N   1      34.697  14.833  10.842  0.00  0.00     0.052 A 
HETATM    2  C   UNK N   1      35.058  16.194  10.877  0.00  0.00     0.033 A 
HETATM    3  C   UNK N   1      35.005  16.970   9.707  0.00  0.00     0.039 A 
HETATM    4  C   UNK N   1      34.593  16.397   8.495  0.00  0.00     0.080 A 
HETATM    5  C   UNK N   1      34.238  15.047   8.479  0.00  0.00     0.058 A 
HETATM    6  C   UNK N   1      34.282  14.258   9.622  0.00  0.00     0.067 A 
ENDROOT
BRANCH   1   7
HETATM    7  N   UNK N   1      34.734  14.008  11.996  0.00  0.00    -0.322 N 
HETATM    8  C   UNK N   1      35.770  13.361  12.584  0.00  0.00     0.257 C 
HETATM    9  O   UNK N   1      36.899  13.435  12.124  0.00  0.00    -0.267 OA
HETATM   10  H   UNK N   1      33.865  13.886  12.442  0.00  0.00     0.169 HD
BRANCH   8  11
HETATM   11  C   UNK N   1      35.470  12.562  13.807  0.00  0.00     0.054 A 
HETATM   12  C   UNK N   1      35.964  12.856  15.103  0.00  0.00     0.051 A 
HETATM   13  C   UNK N   1      35.613  12.030  16.180  0.00  0.00     0.048 A 
HETATM   14 Cl   UNK N   1      37.013  14.227  15.434  0.00  0.00    -0.083 Cl
HETATM   15  C   UNK N   1      34.782  10.923  15.990  0.00  0.00     0.035 A 
HETATM   16 Cl   UNK N   1      34.348   9.897  17.340  0.00  0.00    -0.084 Cl
HETATM   17  C   UNK N   1      34.295  10.630  14.722  0.00  0.00     0.025 A 
HETATM   18  C   UNK N   1      34.636  11.441  13.646  0.00  0.00     0.020 A 
ENDBRANCH   8  11
ENDBRANCH   1   7
BRANCH   6  19
HETATM   19  C   UNK N   1      33.884  12.828   9.499  0.00  0.00     0.178 C 
HETATM   20  O   UNK N   1      34.725  11.950   9.617  0.00  0.00    -0.646 OA
BRANCH  19  21
HETATM   21  O   UNK N   1      32.607  12.474   9.258  0.00  0.00    -0.773 OA
HETATM   22  H   UNK N   1      32.162  12.807   8.503  0.00  0.00     0.167 HD
ENDBRANCH  19  21
ENDBRANCH   6  19
BRANCH   4  23
HETATM   23  O   UNK N   1      34.545  17.159   7.366  0.00  0.00    -0.279 OA
BRANCH  23  24
HETATM   24  C   UNK N   1      33.778  16.931   6.255  0.00  0.00     0.228 A 
HETATM   25  N   UNK N   1      32.538  17.484   6.180  0.00  0.00    -0.332 N 
HETATM   26  C   UNK N   1      31.746  17.279   5.092  0.00  0.00     0.093 A 
ATOM     27  HN  UNK N   1      32.196  18.059   6.950  1.00  0.00     0.168 HD
HETATM   28  C   UNK N   1      32.200  16.496   4.034  0.00  0.00     0.034 A 
HETATM   29  C   UNK N   1      33.469  15.936   4.122  0.00  0.00     0.093 A 
HETATM   30  N   UNK N   1      34.230  16.162   5.223  0.00  0.00    -0.332 N 
ATOM     31  HN  UNK N   1      35.160  15.748   5.281  1.00  0.00     0.168 HD
ENDBRANCH  23  24
ENDBRANCH   4  23
TORSDOF 6
ENDMDL
MODEL 8
REMARK VINA RESULT:      -7.0      5.445     11.346
REMARK  6 active torsions:
REMARK  status: ('A' for Active; 'I' for Inactive)
REMARK    1  A    between atoms: C_8  and  C_9 
REMARK       I    between atoms: C_9  and  N_11 
REMARK    2  A    between atoms: N_11  and  C_12 
REMARK    3  A    between atoms: C_15  and  O_21 
REMARK    4  A    between atoms: C_17  and  C_18 
REMARK    5  A    between atoms: C_18  and  O_20 
REMARK    6  A    between atoms: O_21  and  C_22 
ROOT
HETATM    1  C   UNK N   1      27.121  18.346   5.108  0.00  0.00     0.052 A 
HETATM    2  C   UNK N   1      26.508  17.758   3.986  0.00  0.00     0.033 A 
HETATM    3  C   UNK N   1      25.464  18.422   3.321  0.00  0.00     0.039 A 
HETATM    4  C   UNK N   1      25.024  19.676   3.768  0.00  0.00     0.080 A 
HETATM    5  C   UNK N   1      25.644  20.245   4.882  0.00  0.00     0.058 A 
HETATM    6  C   UNK N   1      26.678  19.609   5.558  0.00  0.00     0.067 A 
ENDROOT
BRANCH   1   7
HETATM    7  N   UNK N   1      28.179  17.716   5.813  0.00  0.00    -0.322 N 
HETATM    8  C   UNK N   1      29.492  17.587   5.501  0.00  0.00     0.257 C 
HETATM    9  O   UNK N   1      29.941  18.054   4.466  0.00  0.00    -0.267 OA
HETATM   10  H   UNK N   1      27.917  17.305   6.668  0.00  0.00     0.169 HD
BRANCH   8  11
HETATM   11  C   UNK N   1      30.355  16.854   6.473  0.00  0.00     0.054 A 
HETATM   12  C   UNK N   1      30.981  15.608   6.214  0.00  0.00     0.051 A 
HETATM   13  C   UNK N   1      31.772  15.013   7.208  0.00  0.00     0.048 A 
HETATM   14 Cl   UNK N   1      30.812  14.756   4.687  0.00  0.00    -0.083 Cl
HETATM   15  C   UNK N   1      31.950  15.635   8.447  0.00  0.00     0.035 A 
HETATM   16 Cl   UNK N   1      32.939  14.886   9.681  0.00  0.00    -0.084 Cl
HETATM   17  C   UNK N   1      31.339  16.856   8.705  0.00  0.00     0.025 A 
HETATM   18  C   UNK N   1      30.552  17.456   7.729  0.00  0.00     0.020 A 
ENDBRANCH   8  11
ENDBRANCH   1   7
BRANCH   6  19
HETATM   19  C   UNK N   1      27.273  20.301   6.736  0.00  0.00     0.178 C 
HETATM   20  O   UNK N   1      27.742  21.421   6.609  0.00  0.00    -0.646 OA
BRANCH  19  21
HETATM   21  O   UNK N   1      27.306  19.716   7.948  0.00  0.00    -0.773 OA
HETATM   22  H   UNK N   1      27.674  18.859   8.046  0.00  0.00     0.167 HD
ENDBRANCH  19  21
ENDBRANCH   6  19
BRANCH   4  23
HETATM   23  O   UNK N   1      24.010  20.312   3.116  0.00  0.00    -0.279 OA
BRANCH  23  24
HETATM   24  C   UNK N   1      22.691  19.944   3.093  0.00  0.00     0.228 A 
HETATM   25  N   UNK N   1      22.245  19.021   3.987  0.00  0.00    -0.332 N 
HETATM   26  C   UNK N   1      20.942  18.630   3.995  0.00  0.00     0.093 A 
ATOM     27  HN  UNK N   1      22.897  18.617   4.661  1.00  0.00     0.168 HD
HETATM   28  C   UNK N   1      20.043  19.173   3.082  0.00  0.00     0.034 A 
HETATM   29  C   UNK N   1      20.511  20.115   2.173  0.00  0.00     0.093 A 
HETATM   30  N   UNK N   1      21.818  20.481   2.194  0.00  0.00    -0.332 N 
ATOM     31  HN  UNK N   1      22.154  21.173   1.524  1.00  0.00     0.168 HD
ENDBRANCH  23  24
ENDBRANCH   4  23
TORSDOF 6
ENDMDL
MODEL 9
REMARK VINA RESULT:      -7.0      6.044      9.704
REMARK  6 active torsions:
REMARK  status: ('A' for Active; 'I' for Inactive)
REMARK    1  A    between atoms: C_8  and  C_9 
REMARK       I    between atoms: C_9  and  N_11 
REMARK    2  A    between atoms: N_11  and  C_12 
REMARK    3  A    between atoms: C_15  and  O_21 
REMARK    4  A    between atoms: C_17  and  C_18 
REMARK    5  A    between atoms: C_18  and  O_20 
REMARK    6  A    between atoms: O_21  and  C_22 
ROOT
HETATM    1  C   UNK N   1      35.594  12.528  15.907  0.00  0.00     0.052 A 
HETATM    2  C   UNK N   1      35.057  13.305  16.951  0.00  0.00     0.033 A 
HETATM    3  C   UNK N   1      35.033  12.807  18.264  0.00  0.00     0.039 A 
HETATM    4  C   UNK N   1      35.544  11.532  18.547  0.00  0.00     0.080 A 
HETATM    5  C   UNK N   1      36.073  10.775  17.500  0.00  0.00     0.058 A 
HETATM    6  C   UNK N   1      36.108  11.245  16.193  0.00  0.00     0.067 A 
ENDROOT
BRANCH   1   7
HETATM    7  N   UNK N   1      35.641  12.987  14.565  0.00  0.00    -0.322 N 
HETATM    8  C   UNK N   1      36.272  14.056  14.021  0.00  0.00     0.257 C 
HETATM    9  O   UNK N   1      36.936  14.813  14.713  0.00  0.00    -0.267 OA
HETATM   10  H   UNK N   1      35.132  12.439  13.925  0.00  0.00     0.169 HD
BRANCH   8  11
HETATM   11  C   UNK N   1      36.119  14.264  12.552  0.00  0.00     0.054 A 
HETATM   12  C   UNK N   1      36.727  13.458  11.557  0.00  0.00     0.051 A 
HETATM   13  C   UNK N   1      36.510  13.751  10.203  0.00  0.00     0.048 A 
HETATM   14 Cl   UNK N   1      37.757  12.086  11.940  0.00  0.00    -0.083 Cl
HETATM   15  C   UNK N   1      35.702  14.827   9.825  0.00  0.00     0.035 A 
HETATM   16 Cl   UNK N   1      35.436  15.186   8.134  0.00  0.00    -0.084 Cl
HETATM   17  C   UNK N   1      35.104  15.620  10.796  0.00  0.00     0.025 A 
HETATM   18  C   UNK N   1      35.311  15.341  12.142  0.00  0.00     0.020 A 
ENDBRANCH   8  11
ENDBRANCH   1   7
BRANCH   6  19
HETATM   19  C   UNK N   1      36.694  10.359  15.148  0.00  0.00     0.178 C 
HETATM   20  O   UNK N   1      36.052  10.098  14.142  0.00  0.00    -0.646 OA
BRANCH  19  21
HETATM   21  O   UNK N   1      37.927   9.834  15.285  0.00  0.00    -0.773 OA
HETATM   22  H   UNK N   1      38.655  10.224  14.842  0.00  0.00     0.167 HD
ENDBRANCH  19  21
ENDBRANCH   6  19
BRANCH   4  23
HETATM   23  O   UNK N   1      35.516  11.058  19.825  0.00  0.00    -0.279 OA
BRANCH  23  24
HETATM   24  C   UNK N   1      34.432  10.544  20.485  0.00  0.00     0.228 A 
HETATM   25  N   UNK N   1      33.844   9.411  20.014  0.00  0.00    -0.332 N 
HETATM   26  C   UNK N   1      32.765   8.871  20.642  0.00  0.00     0.093 A 
ATOM     27  HN  UNK N   1      34.218   8.962  19.177  1.00  0.00     0.168 HD
HETATM   28  C   UNK N   1      32.246   9.475  21.784  0.00  0.00     0.034 A 
HETATM   29  C   UNK N   1      32.856  10.632  22.257  0.00  0.00     0.093 A 
HETATM   30  N   UNK N   1      33.930  11.142  21.603  0.00  0.00    -0.332 N 
ATOM     31  HN  UNK N   1      34.372  11.991  21.955  1.00  0.00     0.168 HD
ENDBRANCH  23  24
ENDBRANCH   4  23
TORSDOF 6
ENDMDL
