MODEL 1
REMARK VINA RESULT:      -6.6      0.000      0.000
REMARK  10 active torsions:
REMARK  status: ('A' for Active; 'I' for Inactive)
REMARK    1  A    between atoms: C_1  and  C_2 
REMARK       I    between atoms: C_1  and  N_19 
REMARK    2  A    between atoms: C_2  and  C_3 
REMARK    3  A    between atoms: C_3  and  C_4 
REMARK    4  A    between atoms: C_3  and  C_8 
REMARK    5  A    between atoms: C_4  and  C_5 
REMARK       I    between atoms: C_8  and  N_20 
REMARK    6  A    between atoms: C_9  and  C_10 
REMARK    7  A    between atoms: C_9  and  C_12 
REMARK    8  A    between atoms: C_9  and  N_20 
REMARK       I    between atoms: C_10  and  N_21 
REMARK    9  A    between atoms: C_12  and  C_13 
REMARK   10  A    between atoms: N_19  and  O_22 
ROOT
HETATM    1  C   UNK N   1      30.066  26.524  -3.688  0.00  0.00     0.223 C 
HETATM    2  N   UNK N   1      28.987  27.333  -3.782  0.00  0.00    -0.347 N 
HETATM    3  O   UNK N   1      31.178  26.988  -3.471  0.00  0.00    -0.273 OA
HETATM    4  H   UNK N   1      28.121  26.890  -3.931  0.00  0.00     0.163 HD
ENDROOT
BRANCH   2   5
HETATM    5  C   UNK N   1      28.964  28.775  -3.689  0.00  0.00     0.180 C 
BRANCH   5   6
HETATM    6  C   UNK N   1      28.566  29.262  -2.305  0.00  0.00     0.240 C 
HETATM    7  N   UNK N   1      29.498  29.739  -1.444  0.00  0.00    -0.364 N 
HETATM    8  C   UNK N   1      29.145  30.243  -0.140  0.00  0.00     0.149 C 
HETATM    9  H   UNK N   1      30.443  29.741  -1.716  0.00  0.00     0.161 HD
HETATM   10  O   UNK N   1      27.383  29.255  -1.986  0.00  0.00    -0.271 OA
ENDBRANCH   5   6
BRANCH   5  11
HETATM   11  C   UNK N   1      28.009  29.182  -4.819  0.00  0.00     0.073 C 
BRANCH  11  12
HETATM   12  C   UNK N   1      27.111  28.193  -5.477  0.00  0.00    -0.056 A 
HETATM   13  C   UNK N   1      27.456  27.658  -6.724  0.00  0.00     0.007 A 
HETATM   14  C   UNK N   1      26.554  26.842  -7.410  0.00  0.00     0.001 A 
HETATM   15  C   UNK N   1      25.296  26.578  -6.861  0.00  0.00     0.000 A 
HETATM   16  C   UNK N   1      24.944  27.126  -5.623  0.00  0.00     0.001 A 
HETATM   17  C   UNK N   1      25.848  27.940  -4.936  0.00  0.00     0.007 A 
ENDBRANCH  11  12
ENDBRANCH   5  11
ENDBRANCH   2   5
BRANCH   1  18
HETATM   18  C   UNK N   1      29.851  25.038  -3.879  0.00  0.00     0.087 C 
BRANCH  18  19
HETATM   19  C   UNK N   1      31.120  24.173  -3.915  0.00  0.00     0.119 C 
BRANCH  19  20
HETATM   20  C   UNK N   1      31.266  23.132  -2.849  0.00  0.00     0.241 C 
HETATM   21  N   UNK N   1      32.147  22.126  -3.042  0.00  0.00    -0.237 N 
HETATM   22  H   UNK N   1      32.664  22.087  -3.879  0.00  0.00     0.197 HD
HETATM   23  O   UNK N   1      30.622  23.205  -1.817  0.00  0.00    -0.271 OA
BRANCH  21  24
HETATM   24  O   UNK N   1      32.327  21.178  -2.110  0.00  0.00    -0.287 OA
HETATM   25  H   UNK N   1      32.083  20.786  -1.258  0.00  0.00     0.244 HD
ENDBRANCH  21  24
ENDBRANCH  19  20
ENDBRANCH  18  19
BRANCH  18  26
HETATM   26  C   UNK N   1      28.906  24.720  -5.057  0.00  0.00     0.018 C 
BRANCH  26  27
HETATM   27  C   UNK N   1      27.750  23.770  -4.754  0.00  0.00    -0.022 C 
HETATM   28  C   UNK N   1      27.010  23.444  -6.039  0.00  0.00     0.009 C 
HETATM   29  C   UNK N   1      26.778  24.455  -3.821  0.00  0.00     0.009 C 
ENDBRANCH  26  27
ENDBRANCH  18  26
ENDBRANCH   1  18
TORSDOF 10
ENDMDL
MODEL 2
REMARK VINA RESULT:      -6.5      2.965      5.116
REMARK  10 active torsions:
REMARK  status: ('A' for Active; 'I' for Inactive)
REMARK    1  A    between atoms: C_1  and  C_2 
REMARK       I    between atoms: C_1  and  N_19 
REMARK    2  A    between atoms: C_2  and  C_3 
REMARK    3  A    between atoms: C_3  and  C_4 
REMARK    4  A    between atoms: C_3  and  C_8 
REMARK    5  A    between atoms: C_4  and  C_5 
REMARK       I    between atoms: C_8  and  N_20 
REMARK    6  A    between atoms: C_9  and  C_10 
REMARK    7  A    between atoms: C_9  and  C_12 
REMARK    8  A    between atoms: C_9  and  N_20 
REMARK       I    between atoms: C_10  and  N_21 
REMARK    9  A    between atoms: C_12  and  C_13 
REMARK   10  A    between atoms: N_19  and  O_22 
ROOT
HETATM    1  C   UNK N   1      27.002  24.193  -4.548  0.00  0.00     0.223 C 
HETATM    2  N   UNK N   1      26.916  24.310  -5.892  0.00  0.00    -0.347 N 
HETATM    3  O   UNK N   1      25.991  24.135  -3.860  0.00  0.00    -0.273 OA
HETATM    4  H   UNK N   1      27.768  24.324  -6.385  0.00  0.00     0.163 HD
ENDROOT
BRANCH   2   5
HETATM    5  C   UNK N   1      25.712  24.417  -6.686  0.00  0.00     0.180 C 
BRANCH   5   6
HETATM    6  C   UNK N   1      25.571  23.279  -7.684  0.00  0.00     0.240 C 
HETATM    7  N   UNK N   1      26.393  22.203  -7.629  0.00  0.00    -0.364 N 
HETATM    8  C   UNK N   1      26.258  21.092  -8.537  0.00  0.00     0.149 C 
HETATM    9  H   UNK N   1      27.104  22.178  -6.948  0.00  0.00     0.161 HD
HETATM   10  O   UNK N   1      24.678  23.326  -8.521  0.00  0.00    -0.271 OA
ENDBRANCH   5   6
BRANCH   5  11
HETATM   11  C   UNK N   1      25.829  25.815  -7.307  0.00  0.00     0.073 C 
BRANCH  11  12
HETATM   12  C   UNK N   1      26.104  27.019  -6.476  0.00  0.00    -0.056 A 
HETATM   13  C   UNK N   1      27.269  27.765  -6.692  0.00  0.00     0.007 A 
HETATM   14  C   UNK N   1      27.603  28.809  -5.826  0.00  0.00     0.001 A 
HETATM   15  C   UNK N   1      26.785  29.094  -4.729  0.00  0.00     0.000 A 
HETATM   16  C   UNK N   1      25.630  28.337  -4.502  0.00  0.00     0.001 A 
HETATM   17  C   UNK N   1      25.295  27.295  -5.371  0.00  0.00     0.007 A 
ENDBRANCH  11  12
ENDBRANCH   5  11
ENDBRANCH   2   5
BRANCH   1  18
HETATM   18  C   UNK N   1      28.384  24.157  -3.931  0.00  0.00     0.087 C 
BRANCH  18  19
HETATM   19  C   UNK N   1      28.515  23.368  -2.619  0.00  0.00     0.119 C 
BRANCH  19  20
HETATM   20  C   UNK N   1      29.847  22.752  -2.324  0.00  0.00     0.241 C 
HETATM   21  N   UNK N   1      30.262  21.713  -3.082  0.00  0.00    -0.237 N 
HETATM   22  H   UNK N   1      29.680  21.372  -3.800  0.00  0.00     0.197 HD
HETATM   23  O   UNK N   1      30.554  23.194  -1.436  0.00  0.00    -0.271 OA
BRANCH  21  24
HETATM   24  O   UNK N   1      31.454  21.136  -2.869  0.00  0.00    -0.287 OA
HETATM   25  H   UNK N   1      32.184  20.583  -3.186  0.00  0.00     0.244 HD
ENDBRANCH  21  24
ENDBRANCH  19  20
ENDBRANCH  18  19
BRANCH  18  26
HETATM   26  C   UNK N   1      29.026  25.555  -3.827  0.00  0.00     0.018 C 
BRANCH  26  27
HETATM   27  C   UNK N   1      30.186  25.836  -4.781  0.00  0.00    -0.022 C 
HETATM   28  C   UNK N   1      30.540  24.569  -5.537  0.00  0.00     0.009 C 
HETATM   29  C   UNK N   1      31.398  26.250  -3.977  0.00  0.00     0.009 C 
ENDBRANCH  26  27
ENDBRANCH  18  26
ENDBRANCH   1  18
TORSDOF 10
ENDMDL
MODEL 3
REMARK VINA RESULT:      -6.0      3.081      5.234
REMARK  10 active torsions:
REMARK  status: ('A' for Active; 'I' for Inactive)
REMARK    1  A    between atoms: C_1  and  C_2 
REMARK       I    between atoms: C_1  and  N_19 
REMARK    2  A    between atoms: C_2  and  C_3 
REMARK    3  A    between atoms: C_3  and  C_4 
REMARK    4  A    between atoms: C_3  and  C_8 
REMARK    5  A    between atoms: C_4  and  C_5 
REMARK       I    between atoms: C_8  and  N_20 
REMARK    6  A    between atoms: C_9  and  C_10 
REMARK    7  A    between atoms: C_9  and  C_12 
REMARK    8  A    between atoms: C_9  and  N_20 
REMARK       I    between atoms: C_10  and  N_21 
REMARK    9  A    between atoms: C_12  and  C_13 
REMARK   10  A    between atoms: N_19  and  O_22 
ROOT
HETATM    1  C   UNK N   1      27.915  23.877  -4.947  0.00  0.00     0.223 C 
HETATM    2  N   UNK N   1      27.461  23.894  -6.220  0.00  0.00    -0.347 N 
HETATM    3  O   UNK N   1      27.158  24.096  -4.010  0.00  0.00    -0.273 OA
HETATM    4  H   UNK N   1      28.119  23.683  -6.921  0.00  0.00     0.163 HD
ENDROOT
BRANCH   2   5
HETATM    5  C   UNK N   1      26.118  24.189  -6.666  0.00  0.00     0.180 C 
BRANCH   5   6
HETATM    6  C   UNK N   1      25.612  23.185  -7.688  0.00  0.00     0.240 C 
HETATM    7  N   UNK N   1      26.128  21.932  -7.744  0.00  0.00    -0.364 N 
HETATM    8  C   UNK N   1      25.641  20.947  -8.676  0.00  0.00     0.149 C 
HETATM    9  H   UNK N   1      26.857  21.688  -7.129  0.00  0.00     0.161 HD
HETATM   10  O   UNK N   1      24.702  23.506  -8.442  0.00  0.00    -0.271 OA
ENDBRANCH   5   6
BRANCH   5  11
HETATM   11  C   UNK N   1      26.230  25.633  -7.175  0.00  0.00     0.073 C 
BRANCH  11  12
HETATM   12  C   UNK N   1      26.385  26.781  -6.240  0.00  0.00    -0.056 A 
HETATM   13  C   UNK N   1      25.509  26.923  -5.157  0.00  0.00     0.007 A 
HETATM   14  C   UNK N   1      25.558  28.070  -4.362  0.00  0.00     0.001 A 
HETATM   15  C   UNK N   1      26.469  29.088  -4.661  0.00  0.00     0.000 A 
HETATM   16  C   UNK N   1      27.333  28.955  -5.753  0.00  0.00     0.001 A 
HETATM   17  C   UNK N   1      27.284  27.805  -6.547  0.00  0.00     0.007 A 
ENDBRANCH  11  12
ENDBRANCH   5  11
ENDBRANCH   2   5
BRANCH   1  18
HETATM   18  C   UNK N   1      29.387  23.598  -4.728  0.00  0.00     0.087 C 
BRANCH  18  19
HETATM   19  C   UNK N   1      29.980  24.110  -3.406  0.00  0.00     0.119 C 
BRANCH  19  20
HETATM   20  C   UNK N   1      30.617  23.097  -2.506  0.00  0.00     0.241 C 
HETATM   21  N   UNK N   1      31.639  22.355  -2.986  0.00  0.00    -0.237 N 
HETATM   22  H   UNK N   1      31.936  22.483  -3.916  0.00  0.00     0.197 HD
HETATM   23  O   UNK N   1      30.237  22.962  -1.356  0.00  0.00    -0.271 OA
BRANCH  21  24
HETATM   24  O   UNK N   1      32.253  21.446  -2.215  0.00  0.00    -0.287 OA
HETATM   25  H   UNK N   1      32.206  20.666  -1.642  0.00  0.00     0.244 HD
ENDBRANCH  21  24
ENDBRANCH  19  20
ENDBRANCH  18  19
BRANCH  18  26
HETATM   26  C   UNK N   1      30.256  23.997  -5.939  0.00  0.00     0.018 C 
BRANCH  26  27
HETATM   27  C   UNK N   1      30.898  22.848  -6.713  0.00  0.00    -0.022 C 
HETATM   28  C   UNK N   1      30.333  21.527  -6.226  0.00  0.00     0.009 C 
HETATM   29  C   UNK N   1      32.387  22.843  -6.444  0.00  0.00     0.009 C 
ENDBRANCH  26  27
ENDBRANCH  18  26
ENDBRANCH   1  18
TORSDOF 10
ENDMDL
MODEL 4
REMARK VINA RESULT:      -5.9     15.913     18.208
REMARK  10 active torsions:
REMARK  status: ('A' for Active; 'I' for Inactive)
REMARK    1  A    between atoms: C_1  and  C_2 
REMARK       I    between atoms: C_1  and  N_19 
REMARK    2  A    between atoms: C_2  and  C_3 
REMARK    3  A    between atoms: C_3  and  C_4 
REMARK    4  A    between atoms: C_3  and  C_8 
REMARK    5  A    between atoms: C_4  and  C_5 
REMARK       I    between atoms: C_8  and  N_20 
REMARK    6  A    between atoms: C_9  and  C_10 
REMARK    7  A    between atoms: C_9  and  C_12 
REMARK    8  A    between atoms: C_9  and  N_20 
REMARK       I    between atoms: C_10  and  N_21 
REMARK    9  A    between atoms: C_12  and  C_13 
REMARK   10  A    between atoms: N_19  and  O_22 
ROOT
HETATM    1  C   UNK N   1      19.556  16.099   5.554  0.00  0.00     0.223 C 
HETATM    2  N   UNK N   1      20.403  16.021   6.604  0.00  0.00    -0.347 N 
HETATM    3  O   UNK N   1      18.358  15.900   5.701  0.00  0.00    -0.273 OA
HETATM    4  H   UNK N   1      21.349  16.221   6.419  0.00  0.00     0.163 HD
ENDROOT
BRANCH   2   5
HETATM    5  C   UNK N   1      20.074  15.677   7.969  0.00  0.00     0.180 C 
BRANCH   5   6
HETATM    6  C   UNK N   1      19.406  16.822   8.713  0.00  0.00     0.240 C 
HETATM    7  N   UNK N   1      18.092  16.761   9.042  0.00  0.00    -0.364 N 
HETATM    8  C   UNK N   1      17.441  17.813   9.781  0.00  0.00     0.149 C 
HETATM    9  H   UNK N   1      17.567  15.975   8.768  0.00  0.00     0.161 HD
HETATM   10  O   UNK N   1      20.078  17.789   9.048  0.00  0.00    -0.271 OA
ENDBRANCH   5   6
BRANCH   5  11
HETATM   11  C   UNK N   1      21.422  15.226   8.548  0.00  0.00     0.073 C 
BRANCH  11  12
HETATM   12  C   UNK N   1      21.534  14.028   9.426  0.00  0.00    -0.056 A 
HETATM   13  C   UNK N   1      20.405  13.551  10.102  0.00  0.00     0.007 A 
HETATM   14  C   UNK N   1      20.533  12.519  11.035  0.00  0.00     0.001 A 
HETATM   15  C   UNK N   1      21.792  11.978  11.310  0.00  0.00     0.000 A 
HETATM   16  C   UNK N   1      22.923  12.467  10.648  0.00  0.00     0.001 A 
HETATM   17  C   UNK N   1      22.795  13.498   9.713  0.00  0.00     0.007 A 
ENDBRANCH  11  12
ENDBRANCH   5  11
ENDBRANCH   2   5
BRANCH   1  18
HETATM   18  C   UNK N   1      20.145  16.423   4.197  0.00  0.00     0.087 C 
BRANCH  18  19
HETATM   19  C   UNK N   1      19.358  17.431   3.344  0.00  0.00     0.119 C 
BRANCH  19  20
HETATM   20  C   UNK N   1      20.114  18.156   2.275  0.00  0.00     0.241 C 
HETATM   21  N   UNK N   1      19.783  17.935   0.984  0.00  0.00    -0.237 N 
HETATM   22  H   UNK N   1      19.066  17.295   0.769  0.00  0.00     0.197 HD
HETATM   23  O   UNK N   1      20.994  18.948   2.564  0.00  0.00    -0.271 OA
BRANCH  21  24
HETATM   24  O   UNK N   1      20.419  18.572  -0.010  0.00  0.00    -0.287 OA
HETATM   25  H   UNK N   1      21.187  18.654  -0.595  0.00  0.00     0.244 HD
ENDBRANCH  21  24
ENDBRANCH  19  20
ENDBRANCH  18  19
BRANCH  18  26
HETATM   26  C   UNK N   1      20.519  15.160   3.394  0.00  0.00     0.018 C 
BRANCH  26  27
HETATM   27  C   UNK N   1      19.378  14.479   2.642  0.00  0.00    -0.022 C 
HETATM   28  C   UNK N   1      19.059  13.148   3.297  0.00  0.00     0.009 C 
HETATM   29  C   UNK N   1      19.817  14.203   1.221  0.00  0.00     0.009 C 
ENDBRANCH  26  27
ENDBRANCH  18  26
ENDBRANCH   1  18
TORSDOF 10
ENDMDL
MODEL 5
REMARK VINA RESULT:      -5.9     11.741     14.563
REMARK  10 active torsions:
REMARK  status: ('A' for Active; 'I' for Inactive)
REMARK    1  A    between atoms: C_1  and  C_2 
REMARK       I    between atoms: C_1  and  N_19 
REMARK    2  A    between atoms: C_2  and  C_3 
REMARK    3  A    between atoms: C_3  and  C_4 
REMARK    4  A    between atoms: C_3  and  C_8 
REMARK    5  A    between atoms: C_4  and  C_5 
REMARK       I    between atoms: C_8  and  N_20 
REMARK    6  A    between atoms: C_9  and  C_10 
REMARK    7  A    between atoms: C_9  and  C_12 
REMARK    8  A    between atoms: C_9  and  N_20 
REMARK       I    between atoms: C_10  and  N_21 
REMARK    9  A    between atoms: C_12  and  C_13 
REMARK   10  A    between atoms: N_19  and  O_22 
ROOT
HETATM    1  C   UNK N   1      31.180  16.849   6.904  0.00  0.00     0.223 C 
HETATM    2  N   UNK N   1      30.711  16.747   5.641  0.00  0.00    -0.347 N 
HETATM    3  O   UNK N   1      30.429  16.723   7.862  0.00  0.00    -0.273 OA
HETATM    4  H   UNK N   1      31.376  16.832   4.920  0.00  0.00     0.163 HD
ENDROOT
BRANCH   2   5
HETATM    5  C   UNK N   1      29.342  16.530   5.231  0.00  0.00     0.180 C 
BRANCH   5   6
HETATM    6  C   UNK N   1      29.157  15.212   4.496  0.00  0.00     0.240 C 
HETATM    7  N   UNK N   1      29.432  14.034   5.108  0.00  0.00    -0.364 N 
HETATM    8  C   UNK N   1      29.230  12.767   4.450  0.00  0.00     0.149 C 
HETATM    9  H   UNK N   1      29.780  14.042   6.028  0.00  0.00     0.161 HD
HETATM   10  O   UNK N   1      28.720  15.222   3.352  0.00  0.00    -0.271 OA
ENDBRANCH   5   6
BRANCH   5  11
HETATM   11  C   UNK N   1      29.023  17.783   4.405  0.00  0.00     0.073 C 
BRANCH  11  12
HETATM   12  C   UNK N   1      28.285  18.937   4.990  0.00  0.00    -0.056 A 
HETATM   13  C   UNK N   1      28.189  19.073   6.379  0.00  0.00     0.007 A 
HETATM   14  C   UNK N   1      27.381  20.070   6.932  0.00  0.00     0.001 A 
HETATM   15  C   UNK N   1      26.650  20.918   6.095  0.00  0.00     0.000 A 
HETATM   16  C   UNK N   1      26.731  20.772   4.707  0.00  0.00     0.001 A 
HETATM   17  C   UNK N   1      27.541  19.776   4.155  0.00  0.00     0.007 A 
ENDBRANCH  11  12
ENDBRANCH   5  11
ENDBRANCH   2   5
BRANCH   1  18
HETATM   18  C   UNK N   1      32.655  17.139   7.086  0.00  0.00     0.087 C 
BRANCH  18  19
HETATM   19  C   UNK N   1      33.001  18.313   8.016  0.00  0.00     0.119 C 
BRANCH  19  20
HETATM   20  C   UNK N   1      34.332  18.273   8.698  0.00  0.00     0.241 C 
HETATM   21  N   UNK N   1      34.528  17.373   9.686  0.00  0.00    -0.237 N 
HETATM   22  H   UNK N   1      33.792  16.773   9.948  0.00  0.00     0.197 HD
HETATM   23  O   UNK N   1      35.230  19.021   8.352  0.00  0.00    -0.271 OA
BRANCH  21  24
HETATM   24  O   UNK N   1      35.708  17.286  10.317  0.00  0.00    -0.287 OA
HETATM   25  H   UNK N   1      36.645  17.037  10.309  0.00  0.00     0.244 HD
ENDBRANCH  21  24
ENDBRANCH  19  20
ENDBRANCH  18  19
BRANCH  18  26
HETATM   26  C   UNK N   1      33.415  17.225   5.747  0.00  0.00     0.018 C 
BRANCH  26  27
HETATM   27  C   UNK N   1      34.335  16.052   5.419  0.00  0.00    -0.022 C 
HETATM   28  C   UNK N   1      33.712  15.207   4.323  0.00  0.00     0.009 C 
HETATM   29  C   UNK N   1      34.485  15.182   6.646  0.00  0.00     0.009 C 
ENDBRANCH  26  27
ENDBRANCH  18  26
ENDBRANCH   1  18
TORSDOF 10
ENDMDL
MODEL 6
REMARK VINA RESULT:      -5.9     13.744     16.386
REMARK  10 active torsions:
REMARK  status: ('A' for Active; 'I' for Inactive)
REMARK    1  A    between atoms: C_1  and  C_2 
REMARK       I    between atoms: C_1  and  N_19 
REMARK    2  A    between atoms: C_2  and  C_3 
REMARK    3  A    between atoms: C_3  and  C_4 
REMARK    4  A    between atoms: C_3  and  C_8 
REMARK    5  A    between atoms: C_4  and  C_5 
REMARK       I    between atoms: C_8  and  N_20 
REMARK    6  A    between atoms: C_9  and  C_10 
REMARK    7  A    between atoms: C_9  and  C_12 
REMARK    8  A    between atoms: C_9  and  N_20 
REMARK       I    between atoms: C_10  and  N_21 
REMARK    9  A    between atoms: C_12  and  C_13 
REMARK   10  A    between atoms: N_19  and  O_22 
ROOT
HETATM    1  C   UNK N   1      21.757  17.479   4.666  0.00  0.00     0.223 C 
HETATM    2  N   UNK N   1      22.206  16.218   4.855  0.00  0.00    -0.347 N 
HETATM    3  O   UNK N   1      21.755  18.286   5.585  0.00  0.00    -0.273 OA
HETATM    4  H   UNK N   1      22.204  15.630   4.066  0.00  0.00     0.163 HD
ENDROOT
BRANCH   2   5
HETATM    5  C   UNK N   1      22.689  15.637   6.088  0.00  0.00     0.180 C 
BRANCH   5   6
HETATM    6  C   UNK N   1      24.180  15.347   6.049  0.00  0.00     0.240 C 
HETATM    7  N   UNK N   1      25.085  16.353   6.146  0.00  0.00    -0.364 N 
HETATM    8  C   UNK N   1      26.504  16.104   6.151  0.00  0.00     0.149 C 
HETATM    9  H   UNK N   1      24.763  17.280   6.215  0.00  0.00     0.161 HD
HETATM   10  O   UNK N   1      24.561  14.186   5.967  0.00  0.00    -0.271 OA
ENDBRANCH   5   6
BRANCH   5  11
HETATM   11  C   UNK N   1      21.792  14.405   6.266  0.00  0.00     0.073 C 
BRANCH  11  12
HETATM   12  C   UNK N   1      21.420  13.898   7.616  0.00  0.00    -0.056 A 
HETATM   13  C   UNK N   1      20.535  14.629   8.416  0.00  0.00     0.007 A 
HETATM   14  C   UNK N   1      20.293  14.234   9.734  0.00  0.00     0.001 A 
HETATM   15  C   UNK N   1      20.953  13.120  10.261  0.00  0.00     0.000 A 
HETATM   16  C   UNK N   1      21.851  12.399   9.467  0.00  0.00     0.001 A 
HETATM   17  C   UNK N   1      22.091  12.793   8.148  0.00  0.00     0.007 A 
ENDBRANCH  11  12
ENDBRANCH   5  11
ENDBRANCH   2   5
BRANCH   1  18
HETATM   18  C   UNK N   1      21.243  17.843   3.290  0.00  0.00     0.087 C 
BRANCH  18  19
HETATM   19  C   UNK N   1      20.580  19.224   3.162  0.00  0.00     0.119 C 
BRANCH  19  20
HETATM   20  C   UNK N   1      21.077  20.121   2.071  0.00  0.00     0.241 C 
HETATM   21  N   UNK N   1      20.405  20.151   0.900  0.00  0.00    -0.237 N 
HETATM   22  H   UNK N   1      19.614  19.577   0.780  0.00  0.00     0.197 HD
HETATM   23  O   UNK N   1      22.054  20.828   2.245  0.00  0.00    -0.271 OA
BRANCH  21  24
HETATM   24  O   UNK N   1      20.800  20.950  -0.102  0.00  0.00    -0.287 OA
HETATM   25  H   UNK N   1      21.426  21.598  -0.459  0.00  0.00     0.244 HD
ENDBRANCH  21  24
ENDBRANCH  19  20
ENDBRANCH  18  19
BRANCH  18  26
HETATM   26  C   UNK N   1      20.376  16.731   2.664  0.00  0.00     0.018 C 
BRANCH  26  27
HETATM   27  C   UNK N   1      20.756  16.297   1.250  0.00  0.00    -0.022 C 
HETATM   28  C   UNK N   1      19.624  16.629   0.294  0.00  0.00     0.009 C 
HETATM   29  C   UNK N   1      20.956  14.798   1.229  0.00  0.00     0.009 C 
ENDBRANCH  26  27
ENDBRANCH  18  26
ENDBRANCH   1  18
TORSDOF 10
ENDMDL
MODEL 7
REMARK VINA RESULT:      -5.8     11.434     13.622
REMARK  10 active torsions:
REMARK  status: ('A' for Active; 'I' for Inactive)
REMARK    1  A    between atoms: C_1  and  C_2 
REMARK       I    between atoms: C_1  and  N_19 
REMARK    2  A    between atoms: C_2  and  C_3 
REMARK    3  A    between atoms: C_3  and  C_4 
REMARK    4  A    between atoms: C_3  and  C_8 
REMARK    5  A    between atoms: C_4  and  C_5 
REMARK       I    between atoms: C_8  and  N_20 
REMARK    6  A    between atoms: C_9  and  C_10 
REMARK    7  A    between atoms: C_9  and  C_12 
REMARK    8  A    between atoms: C_9  and  N_20 
REMARK       I    between atoms: C_10  and  N_21 
REMARK    9  A    between atoms: C_12  and  C_13 
REMARK   10  A    between atoms: N_19  and  O_22 
ROOT
HETATM    1  C   UNK N   1      22.583  18.131   4.442  0.00  0.00     0.223 C 
HETATM    2  N   UNK N   1      23.829  18.362   3.972  0.00  0.00    -0.347 N 
HETATM    3  O   UNK N   1      22.395  17.893   5.627  0.00  0.00    -0.273 OA
HETATM    4  H   UNK N   1      23.903  18.574   3.014  0.00  0.00     0.163 HD
ENDROOT
BRANCH   2   5
HETATM    5  C   UNK N   1      25.065  18.332   4.722  0.00  0.00     0.180 C 
BRANCH   5   6
HETATM    6  C   UNK N   1      25.609  19.724   5.001  0.00  0.00     0.240 C 
HETATM    7  N   UNK N   1      26.181  20.017   6.195  0.00  0.00    -0.364 N 
HETATM    8  C   UNK N   1      26.740  21.315   6.475  0.00  0.00     0.149 C 
HETATM    9  H   UNK N   1      26.215  19.323   6.892  0.00  0.00     0.161 HD
HETATM   10  O   UNK N   1      25.561  20.573   4.120  0.00  0.00    -0.271 OA
ENDBRANCH   5   6
BRANCH   5  11
HETATM   11  C   UNK N   1      25.971  17.442   3.861  0.00  0.00     0.073 C 
BRANCH  11  12
HETATM   12  C   UNK N   1      25.572  16.060   3.477  0.00  0.00    -0.056 A 
HETATM   13  C   UNK N   1      25.168  15.151   4.461  0.00  0.00     0.007 A 
HETATM   14  C   UNK N   1      24.929  13.816   4.126  0.00  0.00     0.001 A 
HETATM   15  C   UNK N   1      25.116  13.382   2.810  0.00  0.00     0.000 A 
HETATM   16  C   UNK N   1      25.537  14.286   1.829  0.00  0.00     0.001 A 
HETATM   17  C   UNK N   1      25.774  15.623   2.165  0.00  0.00     0.007 A 
ENDBRANCH  11  12
ENDBRANCH   5  11
ENDBRANCH   2   5
BRANCH   1  18
HETATM   18  C   UNK N   1      21.440  18.160   3.449  0.00  0.00     0.087 C 
BRANCH  18  19
HETATM   19  C   UNK N   1      20.671  19.486   3.345  0.00  0.00     0.119 C 
BRANCH  19  20
HETATM   20  C   UNK N   1      21.047  20.406   2.225  0.00  0.00     0.241 C 
HETATM   21  N   UNK N   1      20.516  20.189   1.002  0.00  0.00    -0.237 N 
HETATM   22  H   UNK N   1      19.908  19.427   0.865  0.00  0.00     0.197 HD
HETATM   23  O   UNK N   1      21.796  21.348   2.420  0.00  0.00    -0.271 OA
BRANCH  21  24
HETATM   24  O   UNK N   1      20.808  20.995  -0.030  0.00  0.00    -0.287 OA
HETATM   25  H   UNK N   1      21.383  21.224  -0.776  0.00  0.00     0.244 HD
ENDBRANCH  21  24
ENDBRANCH  19  20
ENDBRANCH  18  19
BRANCH  18  26
HETATM   26  C   UNK N   1      20.488  16.955   3.601  0.00  0.00     0.018 C 
BRANCH  26  27
HETATM   27  C   UNK N   1      20.537  15.913   2.486  0.00  0.00    -0.022 C 
HETATM   28  C   UNK N   1      21.934  15.326   2.400  0.00  0.00     0.009 C 
HETATM   29  C   UNK N   1      20.235  16.586   1.166  0.00  0.00     0.009 C 
ENDBRANCH  26  27
ENDBRANCH  18  26
ENDBRANCH   1  18
TORSDOF 10
ENDMDL
MODEL 8
REMARK VINA RESULT:      -5.8     12.152     14.415
REMARK  10 active torsions:
REMARK  status: ('A' for Active; 'I' for Inactive)
REMARK    1  A    between atoms: C_1  and  C_2 
REMARK       I    between atoms: C_1  and  N_19 
REMARK    2  A    between atoms: C_2  and  C_3 
REMARK    3  A    between atoms: C_3  and  C_4 
REMARK    4  A    between atoms: C_3  and  C_8 
REMARK    5  A    between atoms: C_4  and  C_5 
REMARK       I    between atoms: C_8  and  N_20 
REMARK    6  A    between atoms: C_9  and  C_10 
REMARK    7  A    between atoms: C_9  and  C_12 
REMARK    8  A    between atoms: C_9  and  N_20 
REMARK       I    between atoms: C_10  and  N_21 
REMARK    9  A    between atoms: C_12  and  C_13 
REMARK   10  A    between atoms: N_19  and  O_22 
ROOT
HETATM    1  C   UNK N   1      27.573  18.325   4.912  0.00  0.00     0.223 C 
HETATM    2  N   UNK N   1      28.513  17.453   4.483  0.00  0.00    -0.347 N 
HETATM    3  O   UNK N   1      26.627  18.626   4.197  0.00  0.00    -0.273 OA
HETATM    4  H   UNK N   1      29.231  17.237   5.120  0.00  0.00     0.163 HD
ENDROOT
BRANCH   2   5
HETATM    5  C   UNK N   1      28.581  16.806   3.193  0.00  0.00     0.180 C 
BRANCH   5   6
HETATM    6  C   UNK N   1      27.535  15.715   3.034  0.00  0.00     0.240 C 
HETATM    7  N   UNK N   1      26.359  15.969   2.409  0.00  0.00    -0.364 N 
HETATM    8  C   UNK N   1      25.364  14.945   2.209  0.00  0.00     0.149 C 
HETATM    9  H   UNK N   1      26.178  16.879   2.082  0.00  0.00     0.161 HD
HETATM   10  O   UNK N   1      27.780  14.587   3.444  0.00  0.00    -0.271 OA
ENDBRANCH   5   6
BRANCH   5  11
HETATM   11  C   UNK N   1      30.037  16.324   3.121  0.00  0.00     0.073 C 
BRANCH  11  12
HETATM   12  C   UNK N   1      31.005  16.598   4.219  0.00  0.00    -0.056 A 
HETATM   13  C   UNK N   1      32.043  17.516   4.021  0.00  0.00     0.007 A 
HETATM   14  C   UNK N   1      33.035  17.671   4.993  0.00  0.00     0.001 A 
HETATM   15  C   UNK N   1      33.004  16.892   6.153  0.00  0.00     0.000 A 
HETATM   16  C   UNK N   1      31.976  15.961   6.343  0.00  0.00     0.001 A 
HETATM   17  C   UNK N   1      30.983  15.808   5.372  0.00  0.00     0.007 A 
ENDBRANCH  11  12
ENDBRANCH   5  11
ENDBRANCH   2   5
BRANCH   1  18
HETATM   18  C   UNK N   1      27.746  18.923   6.292  0.00  0.00     0.087 C 
BRANCH  18  19
HETATM   19  C   UNK N   1      27.784  20.457   6.362  0.00  0.00     0.119 C 
BRANCH  19  20
HETATM   20  C   UNK N   1      26.592  21.143   6.955  0.00  0.00     0.241 C 
HETATM   21  N   UNK N   1      26.149  20.740   8.166  0.00  0.00    -0.237 N 
HETATM   22  H   UNK N   1      26.605  19.999   8.628  0.00  0.00     0.197 HD
HETATM   23  O   UNK N   1      26.049  22.063   6.369  0.00  0.00    -0.271 OA
BRANCH  21  24
HETATM   24  O   UNK N   1      25.097  21.334   8.748  0.00  0.00    -0.287 OA
HETATM   25  H   UNK N   1      24.731  22.063   9.272  0.00  0.00     0.244 HD
ENDBRANCH  21  24
ENDBRANCH  19  20
ENDBRANCH  18  19
BRANCH  18  26
HETATM   26  C   UNK N   1      28.910  18.284   7.077  0.00  0.00     0.018 C 
BRANCH  26  27
HETATM   27  C   UNK N   1      28.987  18.625   8.563  0.00  0.00    -0.022 C 
HETATM   28  C   UNK N   1      30.414  18.453   9.051  0.00  0.00     0.009 C 
HETATM   29  C   UNK N   1      28.114  17.663   9.338  0.00  0.00     0.009 C 
ENDBRANCH  26  27
ENDBRANCH  18  26
ENDBRANCH   1  18
TORSDOF 10
ENDMDL
MODEL 9
REMARK VINA RESULT:      -5.6     12.071     14.557
REMARK  10 active torsions:
REMARK  status: ('A' for Active; 'I' for Inactive)
REMARK    1  A    between atoms: C_1  and  C_2 
REMARK       I    between atoms: C_1  and  N_19 
REMARK    2  A    between atoms: C_2  and  C_3 
REMARK    3  A    between atoms: C_3  and  C_4 
REMARK    4  A    between atoms: C_3  and  C_8 
REMARK    5  A    between atoms: C_4  and  C_5 
REMARK       I    between atoms: C_8  and  N_20 
REMARK    6  A    between atoms: C_9  and  C_10 
REMARK    7  A    between atoms: C_9  and  C_12 
REMARK    8  A    between atoms: C_9  and  N_20 
REMARK       I    between atoms: C_10  and  N_21 
REMARK    9  A    between atoms: C_12  and  C_13 
REMARK   10  A    between atoms: N_19  and  O_22 
ROOT
HETATM    1  C   UNK N   1      21.765  18.306   4.424  0.00  0.00     0.223 C 
HETATM    2  N   UNK N   1      23.081  18.278   4.115  0.00  0.00    -0.347 N 
HETATM    3  O   UNK N   1      21.398  18.383   5.589  0.00  0.00    -0.273 OA
HETATM    4  H   UNK N   1      23.304  18.243   3.157  0.00  0.00     0.163 HD
ENDROOT
BRANCH   2   5
HETATM    5  C   UNK N   1      24.195  18.292   5.035  0.00  0.00     0.180 C 
BRANCH   5   6
HETATM    6  C   UNK N   1      25.183  19.407   4.735  0.00  0.00     0.240 C 
HETATM    7  N   UNK N   1      26.043  19.845   5.687  0.00  0.00    -0.364 N 
HETATM    8  C   UNK N   1      27.017  20.874   5.420  0.00  0.00     0.149 C 
HETATM    9  H   UNK N   1      26.002  19.450   6.587  0.00  0.00     0.161 HD
HETATM   10  O   UNK N   1      25.221  19.884   3.608  0.00  0.00    -0.271 OA
ENDBRANCH   5   6
BRANCH   5  11
HETATM   11  C   UNK N   1      24.764  16.871   4.914  0.00  0.00     0.073 C 
BRANCH  11  12
HETATM   12  C   UNK N   1      24.557  15.853   5.980  0.00  0.00    -0.056 A 
HETATM   13  C   UNK N   1      25.655  15.173   6.518  0.00  0.00     0.007 A 
HETATM   14  C   UNK N   1      25.457  14.119   7.413  0.00  0.00     0.001 A 
HETATM   15  C   UNK N   1      24.158  13.728   7.754  0.00  0.00     0.000 A 
HETATM   16  C   UNK N   1      23.060  14.396   7.203  0.00  0.00     0.001 A 
HETATM   17  C   UNK N   1      23.259  15.451   6.309  0.00  0.00     0.007 A 
ENDBRANCH  11  12
ENDBRANCH   5  11
ENDBRANCH   2   5
BRANCH   1  18
HETATM   18  C   UNK N   1      20.772  18.222   3.284  0.00  0.00     0.087 C 
BRANCH  18  19
HETATM   19  C   UNK N   1      20.166  19.555   2.819  0.00  0.00     0.119 C 
BRANCH  19  20
HETATM   20  C   UNK N   1      20.948  20.348   1.819  0.00  0.00     0.241 C 
HETATM   21  N   UNK N   1      20.366  20.659   0.640  0.00  0.00    -0.237 N 
HETATM   22  H   UNK N   1      19.450  20.349   0.454  0.00  0.00     0.197 HD
HETATM   23  O   UNK N   1      22.078  20.727   2.074  0.00  0.00    -0.271 OA
BRANCH  21  24
HETATM   24  O   UNK N   1      21.018  21.382  -0.282  0.00  0.00    -0.287 OA
HETATM   25  H   UNK N   1      21.668  21.433  -1.000  0.00  0.00     0.244 HD
ENDBRANCH  21  24
ENDBRANCH  19  20
ENDBRANCH  18  19
BRANCH  18  26
HETATM   26  C   UNK N   1      19.688  17.149   3.516  0.00  0.00     0.018 C 
BRANCH  26  27
HETATM   27  C   UNK N   1      19.904  15.811   2.813  0.00  0.00    -0.022 C 
HETATM   28  C   UNK N   1      20.656  14.867   3.734  0.00  0.00     0.009 C 
HETATM   29  C   UNK N   1      20.754  16.031   1.581  0.00  0.00     0.009 C 
ENDBRANCH  26  27
ENDBRANCH  18  26
ENDBRANCH   1  18
TORSDOF 10
ENDMDL
