MODEL 1
REMARK VINA RESULT:      -6.5      0.000      0.000
REMARK  18 active torsions:
REMARK  status: ('A' for Active; 'I' for Inactive)
REMARK    1  A    between atoms: P_2  and  O_1 
REMARK    2  A    between atoms: P_2  and  O_4 
REMARK    3  A    between atoms: O_4  and  C_5 
REMARK    4  A    between atoms: C_5  and  C_6 
REMARK    5  A    between atoms: C_6  and  C_9 
REMARK    6  A    between atoms: C_9  and  O_10 
REMARK    7  A    between atoms: C_9  and  C_11 
REMARK       I    between atoms: C_11  and  N_13 
REMARK    8  A    between atoms: N_13  and  C_14 
REMARK    9  A    between atoms: C_14  and  C_15 
REMARK   10  A    between atoms: C_15  and  C_16 
REMARK       I    between atoms: C_16  and  N_18 
REMARK   11  A    between atoms: N_18  and  C_19 
REMARK   12  A    between atoms: C_19  and  C_20 
REMARK   13  A    between atoms: C_20  and  S_21 
REMARK   14  A    between atoms: S_21  and  C_22 
REMARK   15  A    between atoms: C_22  and  C_24 
REMARK   16  A    between atoms: C_24  and  C_25 
REMARK   17  A    between atoms: C_25  and  C_26 
REMARK   18  A    between atoms: C_26  and  C_27 
ROOT
HETATM    1  C   UNK N   1      34.503  17.987   8.222  0.00  0.00     0.247 C 
HETATM    2  O   UNK N   1      34.839  19.159   8.302  0.00  0.00    -0.271 OA
HETATM    3  N   UNK N   1      34.611  17.227   9.343  0.00  0.00    -0.358 N 
HETATM    4  H   UNK N   1      34.926  17.688  10.154  0.00  0.00     0.162 HD
ENDROOT
BRANCH   3   5
HETATM    5  C   UNK N   1      34.318  15.818   9.482  0.00  0.00     0.132 C 
BRANCH   5   6
HETATM    6  C   UNK N   1      35.593  14.981   9.355  0.00  0.00     0.122 C 
BRANCH   6   7
HETATM    7  C   UNK N   1      36.550  15.170  10.506  0.00  0.00     0.219 C 
HETATM    8  O   UNK N   1      36.682  16.286  10.977  0.00  0.00    -0.274 OA
HETATM    9  N   UNK N   1      37.269  14.148  11.028  0.00  0.00    -0.360 N 
HETATM   10  H   UNK N   1      37.919  14.352  11.739  0.00  0.00     0.162 HD
BRANCH   9  11
HETATM   11  C   UNK N   1      37.135  12.779  10.598  0.00  0.00     0.133 C 
BRANCH  11  12
HETATM   12  C   UNK N   1      36.847  11.877  11.797  0.00  0.00     0.102 C 
BRANCH  12  13
HETATM   13  S   UNK N   1      35.057  11.534  11.984  0.00  0.00    -0.091 SA
BRANCH  13  14
HETATM   14  C   UNK N   1      34.868  12.534  13.463  0.00  0.00     0.186 C 
HETATM   15  O   UNK N   1      35.079  13.736  13.419  0.00  0.00    -0.286 OA
BRANCH  14  16
HETATM   16  C   UNK N   1      34.519  11.895  14.765  0.00  0.00     0.091 C 
BRANCH  16  17
HETATM   17  C   UNK N   1      34.404  12.934  15.867  0.00  0.00     0.008 C 
BRANCH  17  18
HETATM   18  C   UNK N   1      35.419  12.664  16.969  0.00  0.00     0.000 C 
BRANCH  18  19
HETATM   19  C   UNK N   1      35.719  11.178  17.088  0.00  0.00    -0.005 C 
HETATM   20  C   UNK N   1      35.286  10.649  18.442  0.00  0.00     0.005 C 
ENDBRANCH  18  19
ENDBRANCH  17  18
ENDBRANCH  16  17
ENDBRANCH  14  16
ENDBRANCH  13  14
ENDBRANCH  12  13
ENDBRANCH  11  12
ENDBRANCH   9  11
ENDBRANCH   6   7
ENDBRANCH   5   6
ENDBRANCH   3   5
BRANCH   1  21
HETATM   21  C   UNK N   1      34.044  17.464   6.855  0.00  0.00     0.219 C 
BRANCH  21  22
HETATM   22  C   UNK N   1      32.529  17.105   6.805  0.00  0.00     0.009 C 
HETATM   23  C   UNK N   1      31.983  17.422   5.414  0.00  0.00     0.020 C 
HETATM   24  C   UNK N   1      32.333  15.618   7.040  0.00  0.00     0.020 C 
BRANCH  22  25
HETATM   25  C   UNK N   1      31.722  17.837   7.899  0.00  0.00     0.189 C 
BRANCH  25  26
HETATM   26  O   UNK N   1      30.727  17.058   8.500  0.00  0.00    -0.320 OA
BRANCH  26  27
HETATM   27  P   UNK N   1      29.460  18.199   8.849  0.00  0.00     0.228 P 
HETATM   28  O   UNK N   1      28.228  17.262   8.962  0.00  0.00    -0.655 OA
HETATM   29  H   UNK N   1      29.793  17.177   9.826  0.00  0.00     0.152 HD
BRANCH  27  30
HETATM   30  O   UNK N   1      29.707  18.634  10.510  0.00  0.00    -0.331 OA
HETATM   31  H   UNK N   1      29.840  17.946  11.182  0.00  0.00     0.220 HD
ENDBRANCH  27  30
ENDBRANCH  26  27
ENDBRANCH  25  26
ENDBRANCH  22  25
ENDBRANCH  21  22
BRANCH  21  32
HETATM   32  O   UNK N   1      34.792  16.357   6.438  0.00  0.00    -0.385 OA
HETATM   33  H   UNK N   1      35.537  16.397   5.819  0.00  0.00     0.210 HD
ENDBRANCH  21  32
ENDBRANCH   1  21
TORSDOF 18
ENDMDL
MODEL 2
REMARK VINA RESULT:      -6.3     16.951     19.936
REMARK  18 active torsions:
REMARK  status: ('A' for Active; 'I' for Inactive)
REMARK    1  A    between atoms: P_2  and  O_1 
REMARK    2  A    between atoms: P_2  and  O_4 
REMARK    3  A    between atoms: O_4  and  C_5 
REMARK    4  A    between atoms: C_5  and  C_6 
REMARK    5  A    between atoms: C_6  and  C_9 
REMARK    6  A    between atoms: C_9  and  O_10 
REMARK    7  A    between atoms: C_9  and  C_11 
REMARK       I    between atoms: C_11  and  N_13 
REMARK    8  A    between atoms: N_13  and  C_14 
REMARK    9  A    between atoms: C_14  and  C_15 
REMARK   10  A    between atoms: C_15  and  C_16 
REMARK       I    between atoms: C_16  and  N_18 
REMARK   11  A    between atoms: N_18  and  C_19 
REMARK   12  A    between atoms: C_19  and  C_20 
REMARK   13  A    between atoms: C_20  and  S_21 
REMARK   14  A    between atoms: S_21  and  C_22 
REMARK   15  A    between atoms: C_22  and  C_24 
REMARK   16  A    between atoms: C_24  and  C_25 
REMARK   17  A    between atoms: C_25  and  C_26 
REMARK   18  A    between atoms: C_26  and  C_27 
ROOT
HETATM    1  C   UNK N   1      31.231  22.988  -3.185  0.00  0.00     0.247 C 
HETATM    2  O   UNK N   1      31.501  22.144  -2.344  0.00  0.00    -0.271 OA
HETATM    3  N   UNK N   1      30.299  23.922  -2.859  0.00  0.00    -0.358 N 
HETATM    4  H   UNK N   1      29.928  23.869  -1.948  0.00  0.00     0.162 HD
ENDROOT
BRANCH   3   5
HETATM    5  C   UNK N   1      29.789  24.985  -3.696  0.00  0.00     0.132 C 
BRANCH   5   6
HETATM    6  C   UNK N   1      28.452  24.586  -4.329  0.00  0.00     0.122 C 
BRANCH   6   7
HETATM    7  C   UNK N   1      27.278  24.746  -3.396  0.00  0.00     0.219 C 
HETATM    8  O   UNK N   1      27.081  23.887  -2.554  0.00  0.00    -0.274 OA
HETATM    9  N   UNK N   1      26.435  25.804  -3.464  0.00  0.00    -0.360 N 
HETATM   10  H   UNK N   1      25.654  25.816  -2.864  0.00  0.00     0.162 HD
BRANCH   9  11
HETATM   11  C   UNK N   1      26.619  26.911  -4.369  0.00  0.00     0.133 C 
BRANCH  11  12
HETATM   12  C   UNK N   1      25.483  26.949  -5.389  0.00  0.00     0.102 C 
BRANCH  12  13
HETATM   13  S   UNK N   1      26.073  26.596  -7.087  0.00  0.00    -0.091 SA
BRANCH  13  14
HETATM   14  C   UNK N   1      25.945  24.813  -6.922  0.00  0.00     0.186 C 
HETATM   15  O   UNK N   1      25.154  24.328  -6.128  0.00  0.00    -0.286 OA
BRANCH  14  16
HETATM   16  C   UNK N   1      26.848  23.917  -7.701  0.00  0.00     0.091 C 
BRANCH  16  17
HETATM   17  C   UNK N   1      26.997  22.568  -7.019  0.00  0.00     0.008 C 
BRANCH  17  18
HETATM   18  C   UNK N   1      26.841  21.436  -8.026  0.00  0.00     0.000 C 
BRANCH  18  19
HETATM   19  C   UNK N   1      25.374  21.152  -8.310  0.00  0.00    -0.005 C 
HETATM   20  C   UNK N   1      24.573  21.123  -7.021  0.00  0.00     0.005 C 
ENDBRANCH  18  19
ENDBRANCH  17  18
ENDBRANCH  16  17
ENDBRANCH  14  16
ENDBRANCH  13  14
ENDBRANCH  12  13
ENDBRANCH  11  12
ENDBRANCH   9  11
ENDBRANCH   6   7
ENDBRANCH   5   6
ENDBRANCH   3   5
BRANCH   1  21
HETATM   21  C   UNK N   1      31.922  22.887  -4.551  0.00  0.00     0.219 C 
BRANCH  21  22
HETATM   22  C   UNK N   1      31.306  21.801  -5.480  0.00  0.00     0.009 C 
HETATM   23  C   UNK N   1      29.935  21.396  -4.940  0.00  0.00     0.020 C 
HETATM   24  C   UNK N   1      31.095  22.362  -6.875  0.00  0.00     0.020 C 
BRANCH  22  25
HETATM   25  C   UNK N   1      32.230  20.573  -5.632  0.00  0.00     0.189 C 
BRANCH  25  26
HETATM   26  O   UNK N   1      32.349  19.795  -4.474  0.00  0.00    -0.320 OA
BRANCH  26  27
HETATM   27  P   UNK N   1      33.942  19.104  -4.601  0.00  0.00     0.228 P 
HETATM   28  O   UNK N   1      34.767  20.075  -3.716  0.00  0.00    -0.655 OA
HETATM   29  H   UNK N   1      33.285  19.159  -3.307  0.00  0.00     0.152 HD
BRANCH  27  30
HETATM   30  O   UNK N   1      33.889  17.692  -3.595  0.00  0.00    -0.331 OA
HETATM   31  H   UNK N   1      34.046  17.765  -2.640  0.00  0.00     0.220 HD
ENDBRANCH  27  30
ENDBRANCH  26  27
ENDBRANCH  25  26
ENDBRANCH  22  25
ENDBRANCH  21  22
BRANCH  21  32
HETATM   32  O   UNK N   1      33.298  22.660  -4.428  0.00  0.00    -0.385 OA
HETATM   33  H   UNK N   1      33.777  21.931  -4.851  0.00  0.00     0.210 HD
ENDBRANCH  21  32
ENDBRANCH   1  21
TORSDOF 18
ENDMDL
MODEL 3
REMARK VINA RESULT:      -6.3      5.654     10.035
REMARK  18 active torsions:
REMARK  status: ('A' for Active; 'I' for Inactive)
REMARK    1  A    between atoms: P_2  and  O_1 
REMARK    2  A    between atoms: P_2  and  O_4 
REMARK    3  A    between atoms: O_4  and  C_5 
REMARK    4  A    between atoms: C_5  and  C_6 
REMARK    5  A    between atoms: C_6  and  C_9 
REMARK    6  A    between atoms: C_9  and  O_10 
REMARK    7  A    between atoms: C_9  and  C_11 
REMARK       I    between atoms: C_11  and  N_13 
REMARK    8  A    between atoms: N_13  and  C_14 
REMARK    9  A    between atoms: C_14  and  C_15 
REMARK   10  A    between atoms: C_15  and  C_16 
REMARK       I    between atoms: C_16  and  N_18 
REMARK   11  A    between atoms: N_18  and  C_19 
REMARK   12  A    between atoms: C_19  and  C_20 
REMARK   13  A    between atoms: C_20  and  S_21 
REMARK   14  A    between atoms: S_21  and  C_22 
REMARK   15  A    between atoms: C_22  and  C_24 
REMARK   16  A    between atoms: C_24  and  C_25 
REMARK   17  A    between atoms: C_25  and  C_26 
REMARK   18  A    between atoms: C_26  and  C_27 
ROOT
HETATM    1  C   UNK N   1      32.730  17.935   8.071  0.00  0.00     0.247 C 
HETATM    2  O   UNK N   1      33.646  18.589   8.545  0.00  0.00    -0.271 OA
HETATM    3  N   UNK N   1      31.590  17.831   8.803  0.00  0.00    -0.358 N 
HETATM    4  H   UNK N   1      31.574  18.322   9.658  0.00  0.00     0.162 HD
ENDROOT
BRANCH   3   5
HETATM    5  C   UNK N   1      30.397  17.084   8.474  0.00  0.00     0.132 C 
BRANCH   5   6
HETATM    6  C   UNK N   1      29.428  17.938   7.651  0.00  0.00     0.122 C 
BRANCH   6   7
HETATM    7  C   UNK N   1      28.207  18.369   8.425  0.00  0.00     0.219 C 
HETATM    8  O   UNK N   1      27.934  17.783   9.457  0.00  0.00    -0.274 OA
HETATM    9  N   UNK N   1      27.404  19.378   8.011  0.00  0.00    -0.360 N 
HETATM   10  H   UNK N   1      26.591  19.570   8.532  0.00  0.00     0.162 HD
BRANCH   9  11
HETATM   11  C   UNK N   1      27.676  20.186   6.848  0.00  0.00     0.133 C 
BRANCH  11  12
HETATM   12  C   UNK N   1      26.387  20.428   6.064  0.00  0.00     0.102 C 
BRANCH  12  13
HETATM   13  S   UNK N   1      26.600  20.099   4.274  0.00  0.00    -0.091 SA
BRANCH  13  14
HETATM   14  C   UNK N   1      26.878  18.338   4.479  0.00  0.00     0.186 C 
HETATM   15  O   UNK N   1      26.058  17.654   5.071  0.00  0.00    -0.286 OA
BRANCH  14  16
HETATM   16  C   UNK N   1      28.142  17.713   3.990  0.00  0.00     0.091 C 
BRANCH  16  17
HETATM   17  C   UNK N   1      28.196  16.239   4.354  0.00  0.00     0.008 C 
BRANCH  17  18
HETATM   18  C   UNK N   1      28.130  15.373   3.103  0.00  0.00     0.000 C 
BRANCH  18  19
HETATM   19  C   UNK N   1      26.728  14.823   2.889  0.00  0.00    -0.005 C 
HETATM   20  C   UNK N   1      26.055  15.510   1.715  0.00  0.00     0.005 C 
ENDBRANCH  18  19
ENDBRANCH  17  18
ENDBRANCH  16  17
ENDBRANCH  14  16
ENDBRANCH  13  14
ENDBRANCH  12  13
ENDBRANCH  11  12
ENDBRANCH   9  11
ENDBRANCH   6   7
ENDBRANCH   5   6
ENDBRANCH   3   5
BRANCH   1  21
HETATM   21  C   UNK N   1      32.964  17.243   6.723  0.00  0.00     0.219 C 
BRANCH  21  22
HETATM   22  C   UNK N   1      33.378  15.749   6.855  0.00  0.00     0.009 C 
HETATM   23  C   UNK N   1      32.212  14.863   6.419  0.00  0.00     0.020 C 
HETATM   24  C   UNK N   1      34.547  15.443   5.935  0.00  0.00     0.020 C 
BRANCH  22  25
HETATM   25  C   UNK N   1      33.839  15.397   8.287  0.00  0.00     0.189 C 
BRANCH  25  26
HETATM   26  O   UNK N   1      35.197  15.632   8.529  0.00  0.00    -0.320 OA
BRANCH  26  27
HETATM   27  P   UNK N   1      35.315  15.631  10.266  0.00  0.00     0.228 P 
HETATM   28  O   UNK N   1      36.852  15.558  10.466  0.00  0.00    -0.655 OA
HETATM   29  H   UNK N   1      35.893  16.727   9.508  0.00  0.00     0.152 HD
BRANCH  27  30
HETATM   30  O   UNK N   1      34.991  17.271  10.728  0.00  0.00    -0.331 OA
HETATM   31  H   UNK N   1      34.989  17.977  10.062  0.00  0.00     0.220 HD
ENDBRANCH  27  30
ENDBRANCH  26  27
ENDBRANCH  25  26
ENDBRANCH  22  25
ENDBRANCH  21  22
BRANCH  21  32
HETATM   32  O   UNK N   1      33.914  17.916   5.945  0.00  0.00    -0.385 OA
HETATM   33  H   UNK N   1      33.898  18.867   5.754  0.00  0.00     0.210 HD
ENDBRANCH  21  32
ENDBRANCH   1  21
TORSDOF 18
ENDMDL
MODEL 4
REMARK VINA RESULT:      -6.2      1.594      2.566
REMARK  18 active torsions:
REMARK  status: ('A' for Active; 'I' for Inactive)
REMARK    1  A    between atoms: P_2  and  O_1 
REMARK    2  A    between atoms: P_2  and  O_4 
REMARK    3  A    between atoms: O_4  and  C_5 
REMARK    4  A    between atoms: C_5  and  C_6 
REMARK    5  A    between atoms: C_6  and  C_9 
REMARK    6  A    between atoms: C_9  and  O_10 
REMARK    7  A    between atoms: C_9  and  C_11 
REMARK       I    between atoms: C_11  and  N_13 
REMARK    8  A    between atoms: N_13  and  C_14 
REMARK    9  A    between atoms: C_14  and  C_15 
REMARK   10  A    between atoms: C_15  and  C_16 
REMARK       I    between atoms: C_16  and  N_18 
REMARK   11  A    between atoms: N_18  and  C_19 
REMARK   12  A    between atoms: C_19  and  C_20 
REMARK   13  A    between atoms: C_20  and  S_21 
REMARK   14  A    between atoms: S_21  and  C_22 
REMARK   15  A    between atoms: C_22  and  C_24 
REMARK   16  A    between atoms: C_24  and  C_25 
REMARK   17  A    between atoms: C_25  and  C_26 
REMARK   18  A    between atoms: C_26  and  C_27 
ROOT
HETATM    1  C   UNK N   1      34.447  17.988   8.303  0.00  0.00     0.247 C 
HETATM    2  O   UNK N   1      34.707  19.180   8.367  0.00  0.00    -0.271 OA
HETATM    3  N   UNK N   1      34.470  17.279   9.462  0.00  0.00    -0.358 N 
HETATM    4  H   UNK N   1      34.667  17.789  10.282  0.00  0.00     0.162 HD
ENDROOT
BRANCH   3   5
HETATM    5  C   UNK N   1      34.241  15.862   9.632  0.00  0.00     0.132 C 
BRANCH   5   6
HETATM    6  C   UNK N   1      34.531  15.431  11.072  0.00  0.00     0.122 C 
BRANCH   6   7
HETATM    7  C   UNK N   1      35.990  15.531  11.443  0.00  0.00     0.219 C 
HETATM    8  O   UNK N   1      36.718  16.233  10.763  0.00  0.00    -0.274 OA
HETATM    9  N   UNK N   1      36.519  14.865  12.497  0.00  0.00    -0.360 N 
HETATM   10  H   UNK N   1      37.490  14.927  12.648  0.00  0.00     0.162 HD
BRANCH   9  11
HETATM   11  C   UNK N   1      35.736  14.068  13.409  0.00  0.00     0.133 C 
BRANCH  11  12
HETATM   12  C   UNK N   1      36.526  13.809  14.691  0.00  0.00     0.102 C 
BRANCH  12  13
HETATM   13  S   UNK N   1      36.752  12.019  15.008  0.00  0.00    -0.091 SA
BRANCH  13  14
HETATM   14  C   UNK N   1      35.150  11.802  15.788  0.00  0.00     0.186 C 
HETATM   15  O   UNK N   1      35.006  12.063  16.972  0.00  0.00    -0.286 OA
BRANCH  14  16
HETATM   16  C   UNK N   1      34.006  11.239  15.014  0.00  0.00     0.091 C 
BRANCH  16  17
HETATM   17  C   UNK N   1      34.468  10.123  14.092  0.00  0.00     0.008 C 
BRANCH  17  18
HETATM   18  C   UNK N   1      33.882  10.298  12.698  0.00  0.00     0.000 C 
BRANCH  18  19
HETATM   19  C   UNK N   1      34.908  10.883  11.740  0.00  0.00    -0.005 C 
HETATM   20  C   UNK N   1      36.152  10.015  11.690  0.00  0.00     0.005 C 
ENDBRANCH  18  19
ENDBRANCH  17  18
ENDBRANCH  16  17
ENDBRANCH  14  16
ENDBRANCH  13  14
ENDBRANCH  12  13
ENDBRANCH  11  12
ENDBRANCH   9  11
ENDBRANCH   6   7
ENDBRANCH   5   6
ENDBRANCH   3   5
BRANCH   1  21
HETATM   21  C   UNK N   1      34.173  17.385   6.920  0.00  0.00     0.219 C 
BRANCH  21  22
HETATM   22  C   UNK N   1      32.678  17.021   6.686  0.00  0.00     0.009 C 
HETATM   23  C   UNK N   1      32.282  17.408   5.262  0.00  0.00     0.020 C 
HETATM   24  C   UNK N   1      32.474  15.522   6.820  0.00  0.00     0.020 C 
BRANCH  22  25
HETATM   25  C   UNK N   1      31.748  17.689   7.722  0.00  0.00     0.189 C 
BRANCH  25  26
HETATM   26  O   UNK N   1      30.619  16.932   8.055  0.00  0.00    -0.320 OA
BRANCH  26  27
HETATM   27  P   UNK N   1      29.738  17.961   9.149  0.00  0.00     0.228 P 
HETATM   28  O   UNK N   1      28.290  17.806   8.613  0.00  0.00    -0.655 OA
HETATM   29  H   UNK N   1      29.449  16.538   9.113  0.00  0.00     0.152 HD
BRANCH  27  30
HETATM   30  O   UNK N   1      29.650  17.056  10.626  0.00  0.00    -0.331 OA
HETATM   31  H   UNK N   1      30.158  16.236  10.729  0.00  0.00     0.220 HD
ENDBRANCH  27  30
ENDBRANCH  26  27
ENDBRANCH  25  26
ENDBRANCH  22  25
ENDBRANCH  21  22
BRANCH  21  32
HETATM   32  O   UNK N   1      34.965  16.258   6.671  0.00  0.00    -0.385 OA
HETATM   33  H   UNK N   1      35.662  15.932   7.261  0.00  0.00     0.210 HD
ENDBRANCH  21  32
ENDBRANCH   1  21
TORSDOF 18
ENDMDL
MODEL 5
REMARK VINA RESULT:      -6.2      1.908      2.353
REMARK  18 active torsions:
REMARK  status: ('A' for Active; 'I' for Inactive)
REMARK    1  A    between atoms: P_2  and  O_1 
REMARK    2  A    between atoms: P_2  and  O_4 
REMARK    3  A    between atoms: O_4  and  C_5 
REMARK    4  A    between atoms: C_5  and  C_6 
REMARK    5  A    between atoms: C_6  and  C_9 
REMARK    6  A    between atoms: C_9  and  O_10 
REMARK    7  A    between atoms: C_9  and  C_11 
REMARK       I    between atoms: C_11  and  N_13 
REMARK    8  A    between atoms: N_13  and  C_14 
REMARK    9  A    between atoms: C_14  and  C_15 
REMARK   10  A    between atoms: C_15  and  C_16 
REMARK       I    between atoms: C_16  and  N_18 
REMARK   11  A    between atoms: N_18  and  C_19 
REMARK   12  A    between atoms: C_19  and  C_20 
REMARK   13  A    between atoms: C_20  and  S_21 
REMARK   14  A    between atoms: S_21  and  C_22 
REMARK   15  A    between atoms: C_22  and  C_24 
REMARK   16  A    between atoms: C_24  and  C_25 
REMARK   17  A    between atoms: C_25  and  C_26 
REMARK   18  A    between atoms: C_26  and  C_27 
ROOT
HETATM    1  C   UNK N   1      32.718  15.162   8.933  0.00  0.00     0.247 C 
HETATM    2  O   UNK N   1      31.774  15.242   9.704  0.00  0.00    -0.271 OA
HETATM    3  N   UNK N   1      33.934  14.864   9.460  0.00  0.00    -0.358 N 
HETATM    4  H   UNK N   1      33.961  14.703  10.432  0.00  0.00     0.162 HD
ENDROOT
BRANCH   3   5
HETATM    5  C   UNK N   1      35.194  14.758   8.760  0.00  0.00     0.132 C 
BRANCH   5   6
HETATM    6  C   UNK N   1      36.370  14.970   9.718  0.00  0.00     0.122 C 
BRANCH   6   7
HETATM    7  C   UNK N   1      36.048  15.898  10.863  0.00  0.00     0.219 C 
HETATM    8  O   UNK N   1      35.750  17.053  10.612  0.00  0.00    -0.274 OA
HETATM    9  N   UNK N   1      36.083  15.496  12.156  0.00  0.00    -0.360 N 
HETATM   10  H   UNK N   1      35.920  16.168  12.857  0.00  0.00     0.162 HD
BRANCH   9  11
HETATM   11  C   UNK N   1      36.349  14.138  12.560  0.00  0.00     0.133 C 
BRANCH  11  12
HETATM   12  C   UNK N   1      35.055  13.326  12.557  0.00  0.00     0.102 C 
BRANCH  12  13
HETATM   13  S   UNK N   1      35.262  11.708  11.723  0.00  0.00    -0.091 SA
BRANCH  13  14
HETATM   14  C   UNK N   1      35.110  10.744  13.229  0.00  0.00     0.186 C 
HETATM   15  O   UNK N   1      35.873   9.814  13.440  0.00  0.00    -0.286 OA
BRANCH  14  16
HETATM   16  C   UNK N   1      34.011  11.028  14.197  0.00  0.00     0.091 C 
BRANCH  16  17
HETATM   17  C   UNK N   1      34.525  11.002  15.627  0.00  0.00     0.008 C 
BRANCH  17  18
HETATM   18  C   UNK N   1      35.398  12.217  15.908  0.00  0.00     0.000 C 
BRANCH  18  19
HETATM   19  C   UNK N   1      34.720  13.166  16.885  0.00  0.00    -0.005 C 
HETATM   20  C   UNK N   1      35.217  12.925  18.298  0.00  0.00     0.005 C 
ENDBRANCH  18  19
ENDBRANCH  17  18
ENDBRANCH  16  17
ENDBRANCH  14  16
ENDBRANCH  13  14
ENDBRANCH  12  13
ENDBRANCH  11  12
ENDBRANCH   9  11
ENDBRANCH   6   7
ENDBRANCH   5   6
ENDBRANCH   3   5
BRANCH   1  21
HETATM   21  C   UNK N   1      32.460  15.458   7.450  0.00  0.00     0.219 C 
BRANCH  21  22
HETATM   22  C   UNK N   1      32.192  16.963   7.155  0.00  0.00     0.009 C 
HETATM   23  C   UNK N   1      32.708  17.804   8.322  0.00  0.00     0.020 C 
HETATM   24  C   UNK N   1      32.950  17.399   5.914  0.00  0.00     0.020 C 
BRANCH  22  25
HETATM   25  C   UNK N   1      30.698  17.246   6.884  0.00  0.00     0.189 C 
BRANCH  25  26
HETATM   26  O   UNK N   1      29.867  17.070   7.996  0.00  0.00    -0.320 OA
BRANCH  26  27
HETATM   27  P   UNK N   1      28.371  17.823   7.519  0.00  0.00     0.228 P 
HETATM   28  O   UNK N   1      27.455  16.585   7.329  0.00  0.00    -0.655 OA
HETATM   29  H   UNK N   1      28.429  17.060   8.754  0.00  0.00     0.152 HD
BRANCH  27  30
HETATM   30  O   UNK N   1      27.732  18.495   8.985  0.00  0.00    -0.331 OA
HETATM   31  H   UNK N   1      26.997  19.128   8.953  0.00  0.00     0.220 HD
ENDBRANCH  27  30
ENDBRANCH  26  27
ENDBRANCH  25  26
ENDBRANCH  22  25
ENDBRANCH  21  22
BRANCH  21  32
HETATM   32  O   UNK N   1      31.405  14.695   6.937  0.00  0.00    -0.385 OA
HETATM   33  H   UNK N   1      30.772  14.196   7.476  0.00  0.00     0.210 HD
ENDBRANCH  21  32
ENDBRANCH   1  21
TORSDOF 18
ENDMDL
MODEL 6
REMARK VINA RESULT:      -6.1      1.613      2.148
REMARK  18 active torsions:
REMARK  status: ('A' for Active; 'I' for Inactive)
REMARK    1  A    between atoms: P_2  and  O_1 
REMARK    2  A    between atoms: P_2  and  O_4 
REMARK    3  A    between atoms: O_4  and  C_5 
REMARK    4  A    between atoms: C_5  and  C_6 
REMARK    5  A    between atoms: C_6  and  C_9 
REMARK    6  A    between atoms: C_9  and  O_10 
REMARK    7  A    between atoms: C_9  and  C_11 
REMARK       I    between atoms: C_11  and  N_13 
REMARK    8  A    between atoms: N_13  and  C_14 
REMARK    9  A    between atoms: C_14  and  C_15 
REMARK   10  A    between atoms: C_15  and  C_16 
REMARK       I    between atoms: C_16  and  N_18 
REMARK   11  A    between atoms: N_18  and  C_19 
REMARK   12  A    between atoms: C_19  and  C_20 
REMARK   13  A    between atoms: C_20  and  S_21 
REMARK   14  A    between atoms: S_21  and  C_22 
REMARK   15  A    between atoms: C_22  and  C_24 
REMARK   16  A    between atoms: C_24  and  C_25 
REMARK   17  A    between atoms: C_25  and  C_26 
REMARK   18  A    between atoms: C_26  and  C_27 
ROOT
HETATM    1  C   UNK N   1      34.372  15.820   7.694  0.00  0.00     0.247 C 
HETATM    2  O   UNK N   1      34.816  15.276   6.694  0.00  0.00    -0.271 OA
HETATM    3  N   UNK N   1      34.614  15.224   8.891  0.00  0.00    -0.358 N 
HETATM    4  H   UNK N   1      35.160  14.404   8.868  0.00  0.00     0.162 HD
ENDROOT
BRANCH   3   5
HETATM    5  C   UNK N   1      34.160  15.653  10.195  0.00  0.00     0.132 C 
BRANCH   5   6
HETATM    6  C   UNK N   1      35.339  16.099  11.063  0.00  0.00     0.122 C 
BRANCH   6   7
HETATM    7  C   UNK N   1      36.521  15.163  10.992  0.00  0.00     0.219 C 
HETATM    8  O   UNK N   1      37.267  15.237  10.031  0.00  0.00    -0.274 OA
HETATM    9  N   UNK N   1      36.776  14.243  11.952  0.00  0.00    -0.360 N 
HETATM   10  H   UNK N   1      37.529  13.623  11.814  0.00  0.00     0.162 HD
BRANCH   9  11
HETATM   11  C   UNK N   1      36.004  14.120  13.163  0.00  0.00     0.133 C 
BRANCH  11  12
HETATM   12  C   UNK N   1      35.220  12.808  13.155  0.00  0.00     0.102 C 
BRANCH  12  13
HETATM   13  S   UNK N   1      36.274  11.382  12.693  0.00  0.00    -0.091 SA
BRANCH  13  14
HETATM   14  C   UNK N   1      36.100  10.551  14.275  0.00  0.00     0.186 C 
HETATM   15  O   UNK N   1      35.670   9.409  14.321  0.00  0.00    -0.286 OA
BRANCH  14  16
HETATM   16  C   UNK N   1      36.414  11.272  15.542  0.00  0.00     0.091 C 
BRANCH  16  17
HETATM   17  C   UNK N   1      35.796  10.565  16.737  0.00  0.00     0.008 C 
BRANCH  17  18
HETATM   18  C   UNK N   1      35.315  11.576  17.770  0.00  0.00     0.000 C 
BRANCH  18  19
HETATM   19  C   UNK N   1      35.184  12.964  17.161  0.00  0.00    -0.005 C 
HETATM   20  C   UNK N   1      35.269  14.032  18.235  0.00  0.00     0.005 C 
ENDBRANCH  18  19
ENDBRANCH  17  18
ENDBRANCH  16  17
ENDBRANCH  14  16
ENDBRANCH  13  14
ENDBRANCH  12  13
ENDBRANCH  11  12
ENDBRANCH   9  11
ENDBRANCH   6   7
ENDBRANCH   5   6
ENDBRANCH   3   5
BRANCH   1  21
HETATM   21  C   UNK N   1      33.538  17.093   7.507  0.00  0.00     0.219 C 
BRANCH  21  22
HETATM   22  C   UNK N   1      32.057  16.813   7.116  0.00  0.00     0.009 C 
HETATM   23  C   UNK N   1      31.851  17.162   5.643  0.00  0.00     0.020 C 
HETATM   24  C   UNK N   1      31.740  15.337   7.280  0.00  0.00     0.020 C 
BRANCH  22  25
HETATM   25  C   UNK N   1      31.063  17.582   8.015  0.00  0.00     0.189 C 
BRANCH  25  26
HETATM   26  O   UNK N   1      29.716  17.341   7.721  0.00  0.00    -0.320 OA
BRANCH  26  27
HETATM   27  P   UNK N   1      28.880  18.651   8.505  0.00  0.00     0.228 P 
HETATM   28  O   UNK N   1      28.132  19.295   7.308  0.00  0.00    -0.655 OA
HETATM   29  H   UNK N   1      28.117  17.594   7.865  0.00  0.00     0.152 HD
BRANCH  27  30
HETATM   30  O   UNK N   1      27.571  17.891   9.352  0.00  0.00    -0.331 OA
HETATM   31  H   UNK N   1      26.759  17.646   8.880  0.00  0.00     0.220 HD
ENDBRANCH  27  30
ENDBRANCH  26  27
ENDBRANCH  25  26
ENDBRANCH  22  25
ENDBRANCH  21  22
BRANCH  21  32
HETATM   32  O   UNK N   1      34.105  17.961   6.567  0.00  0.00    -0.385 OA
HETATM   33  H   UNK N   1      35.052  18.158   6.499  0.00  0.00     0.210 HD
ENDBRANCH  21  32
ENDBRANCH   1  21
TORSDOF 18
ENDMDL
MODEL 7
REMARK VINA RESULT:      -6.0     10.675     13.355
REMARK  18 active torsions:
REMARK  status: ('A' for Active; 'I' for Inactive)
REMARK    1  A    between atoms: P_2  and  O_1 
REMARK    2  A    between atoms: P_2  and  O_4 
REMARK    3  A    between atoms: O_4  and  C_5 
REMARK    4  A    between atoms: C_5  and  C_6 
REMARK    5  A    between atoms: C_6  and  C_9 
REMARK    6  A    between atoms: C_9  and  O_10 
REMARK    7  A    between atoms: C_9  and  C_11 
REMARK       I    between atoms: C_11  and  N_13 
REMARK    8  A    between atoms: N_13  and  C_14 
REMARK    9  A    between atoms: C_14  and  C_15 
REMARK   10  A    between atoms: C_15  and  C_16 
REMARK       I    between atoms: C_16  and  N_18 
REMARK   11  A    between atoms: N_18  and  C_19 
REMARK   12  A    between atoms: C_19  and  C_20 
REMARK   13  A    between atoms: C_20  and  S_21 
REMARK   14  A    between atoms: S_21  and  C_22 
REMARK   15  A    between atoms: C_22  and  C_24 
REMARK   16  A    between atoms: C_24  and  C_25 
REMARK   17  A    between atoms: C_25  and  C_26 
REMARK   18  A    between atoms: C_26  and  C_27 
ROOT
HETATM    1  C   UNK N   1      22.646  17.792   5.534  0.00  0.00     0.247 C 
HETATM    2  O   UNK N   1      23.552  18.472   5.075  0.00  0.00    -0.271 OA
HETATM    3  N   UNK N   1      22.992  16.704   6.271  0.00  0.00    -0.358 N 
HETATM    4  H   UNK N   1      23.957  16.559   6.409  0.00  0.00     0.162 HD
ENDROOT
BRANCH   3   5
HETATM    5  C   UNK N   1      22.107  15.734   6.875  0.00  0.00     0.132 C 
BRANCH   5   6
HETATM    6  C   UNK N   1      22.326  14.344   6.270  0.00  0.00     0.122 C 
BRANCH   6   7
HETATM    7  C   UNK N   1      23.622  13.702   6.703  0.00  0.00     0.219 C 
HETATM    8  O   UNK N   1      23.740  13.352   7.864  0.00  0.00    -0.274 OA
HETATM    9  N   UNK N   1      24.656  13.508   5.850  0.00  0.00    -0.360 N 
HETATM   10  H   UNK N   1      25.494  13.138   6.211  0.00  0.00     0.162 HD
BRANCH   9  11
HETATM   11  C   UNK N   1      24.595  13.815   4.443  0.00  0.00     0.133 C 
BRANCH  11  12
HETATM   12  C   UNK N   1      25.937  14.370   3.969  0.00  0.00     0.102 C 
BRANCH  12  13
HETATM   13  S   UNK N   1      25.848  16.162   3.600  0.00  0.00    -0.091 SA
BRANCH  13  14
HETATM   14  C   UNK N   1      26.503  16.674   5.191  0.00  0.00     0.186 C 
HETATM   15  O   UNK N   1      26.064  16.184   6.219  0.00  0.00    -0.286 OA
BRANCH  14  16
HETATM   16  C   UNK N   1      27.536  17.747   5.269  0.00  0.00     0.091 C 
BRANCH  16  17
HETATM   17  C   UNK N   1      27.507  18.624   4.029  0.00  0.00     0.008 C 
BRANCH  17  18
HETATM   18  C   UNK N   1      27.534  20.097   4.410  0.00  0.00     0.000 C 
BRANCH  18  19
HETATM   19  C   UNK N   1      27.552  20.274   5.921  0.00  0.00    -0.005 C 
HETATM   20  C   UNK N   1      26.684  21.447   6.334  0.00  0.00     0.005 C 
ENDBRANCH  18  19
ENDBRANCH  17  18
ENDBRANCH  16  17
ENDBRANCH  14  16
ENDBRANCH  13  14
ENDBRANCH  12  13
ENDBRANCH  11  12
ENDBRANCH   9  11
ENDBRANCH   6   7
ENDBRANCH   5   6
ENDBRANCH   3   5
BRANCH   1  21
HETATM   21  C   UNK N   1      21.205  18.191   5.193  0.00  0.00     0.219 C 
BRANCH  21  22
HETATM   22  C   UNK N   1      20.642  17.468   3.934  0.00  0.00     0.009 C 
HETATM   23  C   UNK N   1      21.743  16.612   3.311  0.00  0.00     0.020 C 
HETATM   24  C   UNK N   1      19.510  16.535   4.326  0.00  0.00     0.020 C 
BRANCH  22  25
HETATM   25  C   UNK N   1      20.061  18.462   2.905  0.00  0.00     0.189 C 
BRANCH  25  26
HETATM   26  O   UNK N   1      20.981  18.906   1.948  0.00  0.00    -0.320 OA
BRANCH  26  27
HETATM   27  P   UNK N   1      20.578  20.586   1.733  0.00  0.00     0.228 P 
HETATM   28  O   UNK N   1      21.791  21.278   2.409  0.00  0.00    -0.655 OA
HETATM   29  H   UNK N   1      21.775  20.049   1.109  0.00  0.00     0.152 HD
BRANCH  27  30
HETATM   30  O   UNK N   1      20.899  20.902   0.058  0.00  0.00    -0.331 OA
HETATM   31  H   UNK N   1      20.443  21.627  -0.399  0.00  0.00     0.220 HD
ENDBRANCH  27  30
ENDBRANCH  26  27
ENDBRANCH  25  26
ENDBRANCH  22  25
ENDBRANCH  21  22
BRANCH  21  32
HETATM   32  O   UNK N   1      21.068  19.574   5.029  0.00  0.00    -0.385 OA
HETATM   33  H   UNK N   1      21.705  20.233   5.345  0.00  0.00     0.210 HD
ENDBRANCH  21  32
ENDBRANCH   1  21
TORSDOF 18
ENDMDL
MODEL 8
REMARK VINA RESULT:      -6.0      4.096      8.876
REMARK  18 active torsions:
REMARK  status: ('A' for Active; 'I' for Inactive)
REMARK    1  A    between atoms: P_2  and  O_1 
REMARK    2  A    between atoms: P_2  and  O_4 
REMARK    3  A    between atoms: O_4  and  C_5 
REMARK    4  A    between atoms: C_5  and  C_6 
REMARK    5  A    between atoms: C_6  and  C_9 
REMARK    6  A    between atoms: C_9  and  O_10 
REMARK    7  A    between atoms: C_9  and  C_11 
REMARK       I    between atoms: C_11  and  N_13 
REMARK    8  A    between atoms: N_13  and  C_14 
REMARK    9  A    between atoms: C_14  and  C_15 
REMARK   10  A    between atoms: C_15  and  C_16 
REMARK       I    between atoms: C_16  and  N_18 
REMARK   11  A    between atoms: N_18  and  C_19 
REMARK   12  A    between atoms: C_19  and  C_20 
REMARK   13  A    between atoms: C_20  and  S_21 
REMARK   14  A    between atoms: S_21  and  C_22 
REMARK   15  A    between atoms: C_22  and  C_24 
REMARK   16  A    between atoms: C_24  and  C_25 
REMARK   17  A    between atoms: C_25  and  C_26 
REMARK   18  A    between atoms: C_26  and  C_27 
ROOT
HETATM    1  C   UNK N   1      34.992  16.432  10.131  0.00  0.00     0.247 C 
HETATM    2  O   UNK N   1      35.731  17.294  10.582  0.00  0.00    -0.271 OA
HETATM    3  N   UNK N   1      34.673  16.508   8.812  0.00  0.00    -0.358 N 
HETATM    4  H   UNK N   1      35.089  17.242   8.304  0.00  0.00     0.162 HD
ENDROOT
BRANCH   3   5
HETATM    5  C   UNK N   1      33.792  15.635   8.069  0.00  0.00     0.132 C 
BRANCH   5   6
HETATM    6  C   UNK N   1      32.774  16.447   7.263  0.00  0.00     0.122 C 
BRANCH   6   7
HETATM    7  C   UNK N   1      33.393  17.221   6.126  0.00  0.00     0.219 C 
HETATM    8  O   UNK N   1      34.276  18.022   6.378  0.00  0.00    -0.274 OA
HETATM    9  N   UNK N   1      33.000  17.062   4.840  0.00  0.00    -0.360 N 
HETATM   10  H   UNK N   1      33.404  17.642   4.154  0.00  0.00     0.162 HD
BRANCH   9  11
HETATM   11  C   UNK N   1      32.019  16.091   4.422  0.00  0.00     0.133 C 
BRANCH  11  12
HETATM   12  C   UNK N   1      31.081  16.706   3.385  0.00  0.00     0.102 C 
BRANCH  12  13
HETATM   13  S   UNK N   1      29.487  15.808   3.283  0.00  0.00    -0.091 SA
BRANCH  13  14
HETATM   14  C   UNK N   1      28.628  16.899   4.420  0.00  0.00     0.186 C 
HETATM   15  O   UNK N   1      28.212  17.980   4.034  0.00  0.00    -0.286 OA
BRANCH  14  16
HETATM   16  C   UNK N   1      28.479  16.524   5.857  0.00  0.00     0.091 C 
BRANCH  16  17
HETATM   17  C   UNK N   1      29.251  17.479   6.752  0.00  0.00     0.008 C 
BRANCH  17  18
HETATM   18  C   UNK N   1      28.298  18.329   7.580  0.00  0.00     0.000 C 
BRANCH  18  19
HETATM   19  C   UNK N   1      28.578  18.176   9.068  0.00  0.00    -0.005 C 
HETATM   20  C   UNK N   1      29.965  18.686   9.409  0.00  0.00     0.005 C 
ENDBRANCH  18  19
ENDBRANCH  17  18
ENDBRANCH  16  17
ENDBRANCH  14  16
ENDBRANCH  13  14
ENDBRANCH  12  13
ENDBRANCH  11  12
ENDBRANCH   9  11
ENDBRANCH   6   7
ENDBRANCH   5   6
ENDBRANCH   3   5
BRANCH   1  21
HETATM   21  C   UNK N   1      34.447  15.376  11.100  0.00  0.00     0.219 C 
BRANCH  21  22
HETATM   22  C   UNK N   1      35.257  14.046  11.089  0.00  0.00     0.009 C 
HETATM   23  C   UNK N   1      34.576  13.050  10.152  0.00  0.00     0.020 C 
HETATM   24  C   UNK N   1      36.657  14.288  10.552  0.00  0.00     0.020 C 
BRANCH  22  25
HETATM   25  C   UNK N   1      35.423  13.454  12.505  0.00  0.00     0.189 C 
BRANCH  25  26
HETATM   26  O   UNK N   1      36.733  13.491  12.996  0.00  0.00    -0.320 OA
BRANCH  26  27
HETATM   27  P   UNK N   1      36.542  13.234  14.708  0.00  0.00     0.228 P 
HETATM   28  O   UNK N   1      37.404  11.962  14.922  0.00  0.00    -0.655 OA
HETATM   29  H   UNK N   1      37.860  13.519  14.167  0.00  0.00     0.152 HD
BRANCH  27  30
HETATM   30  O   UNK N   1      37.539  14.446  15.447  0.00  0.00    -0.331 OA
HETATM   31  H   UNK N   1      37.317  14.794  16.325  0.00  0.00     0.220 HD
ENDBRANCH  27  30
ENDBRANCH  26  27
ENDBRANCH  25  26
ENDBRANCH  22  25
ENDBRANCH  21  22
BRANCH  21  32
HETATM   32  O   UNK N   1      33.097  15.093  10.864  0.00  0.00    -0.385 OA
HETATM   33  H   UNK N   1      32.378  15.741  10.927  0.00  0.00     0.210 HD
ENDBRANCH  21  32
ENDBRANCH   1  21
TORSDOF 18
ENDMDL
MODEL 9
REMARK VINA RESULT:      -6.0      3.569      8.847
REMARK  18 active torsions:
REMARK  status: ('A' for Active; 'I' for Inactive)
REMARK    1  A    between atoms: P_2  and  O_1 
REMARK    2  A    between atoms: P_2  and  O_4 
REMARK    3  A    between atoms: O_4  and  C_5 
REMARK    4  A    between atoms: C_5  and  C_6 
REMARK    5  A    between atoms: C_6  and  C_9 
REMARK    6  A    between atoms: C_9  and  O_10 
REMARK    7  A    between atoms: C_9  and  C_11 
REMARK       I    between atoms: C_11  and  N_13 
REMARK    8  A    between atoms: N_13  and  C_14 
REMARK    9  A    between atoms: C_14  and  C_15 
REMARK   10  A    between atoms: C_15  and  C_16 
REMARK       I    between atoms: C_16  and  N_18 
REMARK   11  A    between atoms: N_18  and  C_19 
REMARK   12  A    between atoms: C_19  and  C_20 
REMARK   13  A    between atoms: C_20  and  S_21 
REMARK   14  A    between atoms: S_21  and  C_22 
REMARK   15  A    between atoms: C_22  and  C_24 
REMARK   16  A    between atoms: C_24  and  C_25 
REMARK   17  A    between atoms: C_25  and  C_26 
REMARK   18  A    between atoms: C_26  and  C_27 
ROOT
HETATM    1  C   UNK N   1      35.301  12.981  12.997  0.00  0.00     0.247 C 
HETATM    2  O   UNK N   1      34.940  14.027  13.515  0.00  0.00    -0.271 OA
HETATM    3  N   UNK N   1      34.970  12.779  11.695  0.00  0.00    -0.358 N 
HETATM    4  H   UNK N   1      34.485  13.512  11.250  0.00  0.00     0.162 HD
ENDROOT
BRANCH   3   5
HETATM    5  C   UNK N   1      35.248  11.612  10.888  0.00  0.00     0.132 C 
BRANCH   5   6
HETATM    6  C   UNK N   1      36.021  11.996   9.622  0.00  0.00     0.122 C 
BRANCH   6   7
HETATM    7  C   UNK N   1      36.907  13.203   9.807  0.00  0.00     0.219 C 
HETATM    8  O   UNK N   1      37.865  13.115  10.555  0.00  0.00    -0.274 OA
HETATM    9  N   UNK N   1      36.672  14.379   9.178  0.00  0.00    -0.360 N 
HETATM   10  H   UNK N   1      37.254  15.145   9.389  0.00  0.00     0.162 HD
BRANCH   9  11
HETATM   11  C   UNK N   1      35.614  14.571   8.217  0.00  0.00     0.133 C 
BRANCH  11  12
HETATM   12  C   UNK N   1      34.429  15.275   8.875  0.00  0.00     0.102 C 
BRANCH  12  13
HETATM   13  S   UNK N   1      34.951  16.745   9.837  0.00  0.00    -0.091 SA
BRANCH  13  14
HETATM   14  C   UNK N   1      34.532  17.922   8.548  0.00  0.00     0.186 C 
HETATM   15  O   UNK N   1      35.201  18.933   8.402  0.00  0.00    -0.286 OA
BRANCH  14  16
HETATM   16  C   UNK N   1      33.328  17.708   7.694  0.00  0.00     0.091 C 
BRANCH  16  17
HETATM   17  C   UNK N   1      32.052  17.940   8.486  0.00  0.00     0.008 C 
BRANCH  17  18
HETATM   18  C   UNK N   1      30.902  17.129   7.903  0.00  0.00     0.000 C 
BRANCH  18  19
HETATM   19  C   UNK N   1      29.608  17.929   7.908  0.00  0.00    -0.005 C 
HETATM   20  C   UNK N   1      28.475  17.122   7.302  0.00  0.00     0.005 C 
ENDBRANCH  18  19
ENDBRANCH  17  18
ENDBRANCH  16  17
ENDBRANCH  14  16
ENDBRANCH  13  14
ENDBRANCH  12  13
ENDBRANCH  11  12
ENDBRANCH   9  11
ENDBRANCH   6   7
ENDBRANCH   5   6
ENDBRANCH   3   5
BRANCH   1  21
HETATM   21  C   UNK N   1      36.045  11.966  13.875  0.00  0.00     0.219 C 
BRANCH  21  22
HETATM   22  C   UNK N   1      35.162  11.356  15.002  0.00  0.00     0.009 C 
HETATM   23  C   UNK N   1      33.908  10.741  14.383  0.00  0.00     0.020 C 
HETATM   24  C   UNK N   1      35.911  10.240  15.710  0.00  0.00     0.020 C 
BRANCH  22  25
HETATM   25  C   UNK N   1      34.796  12.397  16.082  0.00  0.00     0.189 C 
BRANCH  25  26
HETATM   26  O   UNK N   1      35.865  12.782  16.899  0.00  0.00    -0.320 OA
BRANCH  26  27
HETATM   27  P   UNK N   1      35.143  13.885  18.036  0.00  0.00     0.228 P 
HETATM   28  O   UNK N   1      35.404  13.151  19.378  0.00  0.00    -0.655 OA
HETATM   29  H   UNK N   1      36.569  13.617  18.103  0.00  0.00     0.152 HD
BRANCH  27  30
HETATM   30  O   UNK N   1      36.268  15.200  18.146  0.00  0.00    -0.331 OA
HETATM   31  H   UNK N   1      37.217  15.046  18.012  0.00  0.00     0.220 HD
ENDBRANCH  27  30
ENDBRANCH  26  27
ENDBRANCH  25  26
ENDBRANCH  22  25
ENDBRANCH  21  22
BRANCH  21  32
HETATM   32  O   UNK N   1      37.203  12.510  14.441  0.00  0.00    -0.385 OA
HETATM   33  H   UNK N   1      38.100  12.378  14.098  0.00  0.00     0.210 HD
ENDBRANCH  21  32
ENDBRANCH   1  21
TORSDOF 18
ENDMDL
