REMARK  18 active torsions:
REMARK  status: ('A' for Active; 'I' for Inactive)
REMARK    1  A    between atoms: P_2  and  O_1 
REMARK    2  A    between atoms: P_2  and  O_4 
REMARK    3  A    between atoms: O_4  and  C_5 
REMARK    4  A    between atoms: C_5  and  C_6 
REMARK    5  A    between atoms: C_6  and  C_9 
REMARK    6  A    between atoms: C_9  and  O_10 
REMARK    7  A    between atoms: C_9  and  C_11 
REMARK       I    between atoms: C_11  and  N_13 
REMARK    8  A    between atoms: N_13  and  C_14 
REMARK    9  A    between atoms: C_14  and  C_15 
REMARK   10  A    between atoms: C_15  and  C_16 
REMARK       I    between atoms: C_16  and  N_18 
REMARK   11  A    between atoms: N_18  and  C_19 
REMARK   12  A    between atoms: C_19  and  C_20 
REMARK   13  A    between atoms: C_20  and  S_21 
REMARK   14  A    between atoms: S_21  and  C_22 
REMARK   15  A    between atoms: C_22  and  C_24 
REMARK   16  A    between atoms: C_24  and  C_25 
REMARK   17  A    between atoms: C_25  and  C_26 
REMARK   18  A    between atoms: C_26  and  C_27 
ROOT
HETATM    1  C   UNK N   1      -2.388  -0.029  -0.723  0.00  0.00     0.247 C 
HETATM    2  O   UNK N   1      -2.754   1.039  -1.190  0.00  0.00    -0.271 OA
HETATM    3  N   UNK N   1      -1.067  -0.168  -0.437  0.00  0.00    -0.358 N 
HETATM    4  H   UNK N   1      -0.500   0.621  -0.600  0.00  0.00     0.162 HD
ENDROOT
BRANCH   3   5
HETATM    5  C   UNK N   1      -0.397  -1.341   0.078  0.00  0.00     0.132 C 
BRANCH   5   6
HETATM    6  C   UNK N   1       0.478  -0.984   1.283  0.00  0.00     0.122 C 
BRANCH   6   7
HETATM    7  C   UNK N   1       1.037   0.416   1.221  0.00  0.00     0.219 C 
HETATM    8  O   UNK N   1       0.665   1.230   2.048  0.00  0.00    -0.274 OA
HETATM    9  N   UNK N   1       1.930   0.800   0.278  0.00  0.00    -0.360 N 
HETATM   10  H   UNK N   1       2.209   1.744   0.258  0.00  0.00     0.162 HD
BRANCH   9  11
HETATM   11  C   UNK N   1       2.492  -0.099  -0.699  0.00  0.00     0.133 C 
BRANCH  11  12
HETATM   12  C   UNK N   1       3.735   0.524  -1.332  0.00  0.00     0.102 C 
BRANCH  12  13
HETATM   13  S   UNK N   1       4.771   1.395  -0.097  0.00  0.00    -0.091 SA
BRANCH  13  14
HETATM   14  C   UNK N   1       5.511  -0.103   0.559  0.00  0.00     0.186 C 
HETATM   15  O   UNK N   1       4.824  -0.909   1.167  0.00  0.00    -0.286 OA
BRANCH  14  16
HETATM   16  C   UNK N   1       6.978  -0.339   0.426  0.00  0.00     0.091 C 
BRANCH  16  17
HETATM   17  C   UNK N   1       7.394  -0.371  -1.035  0.00  0.00     0.008 C 
BRANCH  17  18
HETATM   18  C   UNK N   1       8.154   0.895  -1.406  0.00  0.00     0.000 C 
BRANCH  18  19
HETATM   19  C   UNK N   1       9.601   0.823  -0.942  0.00  0.00    -0.005 C 
HETATM   20  C   UNK N   1       9.729   1.299   0.493  0.00  0.00     0.005 C 
ENDBRANCH  18  19
ENDBRANCH  17  18
ENDBRANCH  16  17
ENDBRANCH  14  16
ENDBRANCH  13  14
ENDBRANCH  12  13
ENDBRANCH  11  12
ENDBRANCH   9  11
ENDBRANCH   6   7
ENDBRANCH   5   6
ENDBRANCH   3   5
BRANCH   1  21
HETATM   21  C   UNK N   1      -3.437  -1.135  -0.553  0.00  0.00     0.219 C 
BRANCH  21  22
HETATM   22  C   UNK N   1      -4.649  -0.711   0.327  0.00  0.00     0.009 C 
HETATM   23  C   UNK N   1      -5.658  -1.857   0.380  0.00  0.00     0.020 C 
HETATM   24  C   UNK N   1      -4.196  -0.441   1.751  0.00  0.00     0.020 C 
BRANCH  22  25
HETATM   25  C   UNK N   1      -5.310   0.589  -0.181  0.00  0.00     0.189 C 
BRANCH  25  26
HETATM   26  O   UNK N   1      -6.551   0.401  -0.800  0.00  0.00    -0.320 OA
BRANCH  26  27
HETATM   27  P   UNK N   1      -7.698   0.914   0.405  0.00  0.00     0.228 P 
HETATM   28  O   UNK N   1      -8.269   2.201  -0.247  0.00  0.00    -0.655 OA
HETATM   29  H   UNK N   1      -8.166   0.546  -0.920  0.00  0.00     0.152 HD
BRANCH  27  30
HETATM   30  O   UNK N   1      -9.036  -0.176   0.229  0.00  0.00    -0.331 OA
HETATM   31  H   UNK N   1      -9.938   0.168   0.130  0.00  0.00     0.220 HD
ENDBRANCH  27  30
ENDBRANCH  26  27
ENDBRANCH  25  26
ENDBRANCH  22  25
ENDBRANCH  21  22
BRANCH  21  32
HETATM   32  O   UNK N   1      -2.882  -2.311  -0.035  0.00  0.00    -0.385 OA
HETATM   33  H   UNK N   1      -3.395  -3.052   0.323  0.00  0.00     0.210 HD
ENDBRANCH  21  32
ENDBRANCH   1  21
TORSDOF 18
