MODEL 1
REMARK VINA RESULT:      -8.5      0.000      0.000
REMARK  3 active torsions:
REMARK  status: ('A' for Active; 'I' for Inactive)
REMARK       I    between atoms: C_1  and  N_24 
REMARK    1  A    between atoms: C_2  and  N_27 
REMARK    2  A    between atoms: C_4  and  C_7 
REMARK    3  A    between atoms: C_7  and  N_32 
ROOT
HETATM    1  C   UNK N   1      32.388  16.942   8.832  0.00  0.00     0.679 A 
HETATM    2  C   UNK N   1      32.843  14.642   9.165  0.00  0.00     0.145 A 
HETATM    3  C   UNK N   1      34.045  14.971   9.794  0.00  0.00     0.122 A 
HETATM    4  C   UNK N   1      35.987  14.358  10.998  0.00  0.00     0.043 A 
HETATM    5  C   UNK N   1      36.388  15.706  11.016  0.00  0.00     0.116 A 
HETATM    6  C   UNK N   1      34.411  16.321   9.880  0.00  0.00     0.151 A 
HETATM    7  N   UNK N   1      33.578  17.280   9.402  0.00  0.00    -0.174 N 
ATOM      8  HN  UNK N   1      33.845  18.262   9.470  1.00  0.00     0.186 HD
HETATM    9  N   UNK N   1      31.509  17.951   8.393  0.00  0.00    -0.234 N 
HETATM   10  N   UNK N   1      32.037  15.633   8.704  0.00  0.00    -0.175 N 
ATOM     11  HN  UNK N   1      31.153  15.393   8.252  1.00  0.00     0.186 HD
HETATM   12  N   UNK N   1      34.836  14.022  10.357  0.00  0.00    -0.351 N 
ATOM     13  HN  UNK N   1      34.563  13.041  10.296  1.00  0.00     0.166 HD
HETATM   14  N   UNK N   1      35.591  16.659  10.462  0.00  0.00    -0.348 N 
ATOM     15  HN  UNK N   1      35.882  17.636  10.484  1.00  0.00     0.167 HD
HETATM   16  H   UNK N   1      31.461  18.835   8.822  0.00  0.00     0.174 HD
HETATM   17  H   UNK N   1      30.920  17.764   7.627  0.00  0.00     0.174 HD
ENDROOT
BRANCH   4  18
HETATM   18  C   UNK N   1      36.676  13.291  11.818  0.00  0.00     0.188 C 
BRANCH  18  19
HETATM   19  N   UNK N   1      35.826  12.461  12.686  0.00  0.00    -0.340 N 
HETATM   20  C   UNK N   1      35.278  11.239  12.105  0.00  0.00     0.045 A 
HETATM   21  C   UNK N   1      35.723  10.885  10.804  0.00  0.00     0.030 A 
HETATM   22  C   UNK N   1      34.315  10.370  12.699  0.00  0.00    -0.009 A 
HETATM   23  C   UNK N   1      35.232   9.790  10.106  0.00  0.00     0.002 A 
HETATM   24  C   UNK N   1      34.271   8.985  10.688  0.00  0.00     0.001 A 
HETATM   25  C   UNK N   1      33.830   9.271  11.973  0.00  0.00     0.014 A 
HETATM   26  C   UNK N   1      33.723  10.476  14.016  0.00  0.00     0.014 C 
HETATM   27  C   UNK N   1      34.007  11.277  15.015  0.00  0.00     0.014 C 
HETATM   28  C   UNK N   1      34.980  12.346  15.119  0.00  0.00    -0.009 A 
HETATM   29  C   UNK N   1      35.073  12.875  16.416  0.00  0.00     0.014 A 
HETATM   30  C   UNK N   1      35.776  12.899  14.073  0.00  0.00     0.045 A 
HETATM   31  C   UNK N   1      35.926  13.927  16.723  0.00  0.00     0.001 A 
HETATM   32  C   UNK N   1      36.699  14.487  15.724  0.00  0.00     0.002 A 
HETATM   33  C   UNK N   1      36.622  13.981  14.431  0.00  0.00     0.030 A 
ENDBRANCH  18  19
ENDBRANCH   4  18
BRANCH   2  34
HETATM   34  N   UNK N   1      32.448  13.294   9.029  0.00  0.00    -0.383 N 
HETATM   35  H   UNK N   1      32.706  12.424   9.411  0.00  0.00     0.157 HD
HETATM   36  H   UNK N   1      31.717  13.199   8.377  0.00  0.00     0.157 HD
ENDBRANCH   2  34
TORSDOF 3
ENDMDL
MODEL 2
REMARK VINA RESULT:      -8.1      3.097      8.528
REMARK  3 active torsions:
REMARK  status: ('A' for Active; 'I' for Inactive)
REMARK       I    between atoms: C_1  and  N_24 
REMARK    1  A    between atoms: C_2  and  N_27 
REMARK    2  A    between atoms: C_4  and  C_7 
REMARK    3  A    between atoms: C_7  and  N_32 
ROOT
HETATM    1  C   UNK N   1      35.405  13.270  11.468  0.00  0.00     0.679 A 
HETATM    2  C   UNK N   1      33.694  13.487   9.845  0.00  0.00     0.145 A 
HETATM    3  C   UNK N   1      33.968  14.851   9.739  0.00  0.00     0.122 A 
HETATM    4  C   UNK N   1      33.635  16.956   8.709  0.00  0.00     0.043 A 
HETATM    5  C   UNK N   1      34.573  17.523   9.592  0.00  0.00     0.116 A 
HETATM    6  C   UNK N   1      34.955  15.406  10.565  0.00  0.00     0.151 A 
HETATM    7  N   UNK N   1      35.656  14.608  11.410  0.00  0.00    -0.174 N 
ATOM      8  HN  UNK N   1      36.377  15.013  12.007  1.00  0.00     0.186 HD
HETATM    9  N   UNK N   1      36.180  12.447  12.307  0.00  0.00    -0.234 N 
HETATM   10  N   UNK N   1      34.421  12.724  10.701  0.00  0.00    -0.175 N 
ATOM     11  HN  UNK N   1      34.227  11.724  10.773  1.00  0.00     0.186 HD
HETATM   12  N   UNK N   1      33.335  15.635   8.829  0.00  0.00    -0.351 N 
ATOM     13  HN  UNK N   1      32.620  15.227   8.226  1.00  0.00     0.166 HD
HETATM   14  N   UNK N   1      35.216  16.737  10.496  0.00  0.00    -0.348 N 
ATOM     15  HN  UNK N   1      35.900  17.151  11.129  1.00  0.00     0.167 HD
HETATM   16  H   UNK N   1      37.120  12.643  12.520  0.00  0.00     0.174 HD
HETATM   17  H   UNK N   1      35.764  11.643  12.696  0.00  0.00     0.174 HD
ENDROOT
BRANCH   4  18
HETATM   18  C   UNK N   1      33.088  17.700   7.513  0.00  0.00     0.188 C 
BRANCH  18  19
HETATM   19  N   UNK N   1      31.813  17.224   6.954  0.00  0.00    -0.340 N 
HETATM   20  C   UNK N   1      30.602  17.528   7.711  0.00  0.00     0.045 A 
HETATM   21  C   UNK N   1      30.742  18.374   8.843  0.00  0.00     0.030 A 
HETATM   22  C   UNK N   1      29.287  17.041   7.449  0.00  0.00    -0.009 A 
HETATM   23  C   UNK N   1      29.687  18.687   9.691  0.00  0.00     0.002 A 
HETATM   24  C   UNK N   1      28.432  18.172   9.437  0.00  0.00     0.001 A 
HETATM   25  C   UNK N   1      28.238  17.367   8.322  0.00  0.00     0.014 A 
HETATM   26  C   UNK N   1      28.861  16.197   6.353  0.00  0.00     0.014 C 
HETATM   27  C   UNK N   1      29.509  15.794   5.286  0.00  0.00     0.014 C 
HETATM   28  C   UNK N   1      30.877  16.028   4.870  0.00  0.00    -0.009 A 
HETATM   29  C   UNK N   1      31.148  15.539   3.582  0.00  0.00     0.014 A 
HETATM   30  C   UNK N   1      31.919  16.643   5.624  0.00  0.00     0.045 A 
HETATM   31  C   UNK N   1      32.408  15.637   3.007  0.00  0.00     0.001 A 
HETATM   32  C   UNK N   1      33.437  16.218   3.723  0.00  0.00     0.002 A 
HETATM   33  C   UNK N   1      33.194  16.707   5.002  0.00  0.00     0.030 A 
ENDBRANCH  18  19
ENDBRANCH   4  18
BRANCH   2  34
HETATM   34  N   UNK N   1      32.688  12.892   9.055  0.00  0.00    -0.383 N 
HETATM   35  H   UNK N   1      32.635  12.392   8.208  0.00  0.00     0.157 HD
HETATM   36  H   UNK N   1      31.798  13.008   9.460  0.00  0.00     0.157 HD
ENDBRANCH   2  34
TORSDOF 3
ENDMDL
MODEL 3
REMARK VINA RESULT:      -8.1      3.212      8.916
REMARK  3 active torsions:
REMARK  status: ('A' for Active; 'I' for Inactive)
REMARK       I    between atoms: C_1  and  N_24 
REMARK    1  A    between atoms: C_2  and  N_27 
REMARK    2  A    between atoms: C_4  and  C_7 
REMARK    3  A    between atoms: C_7  and  N_32 
ROOT
HETATM    1  C   UNK N   1      35.242  12.431  11.495  0.00  0.00     0.679 A 
HETATM    2  C   UNK N   1      35.862  14.576  10.708  0.00  0.00     0.145 A 
HETATM    3  C   UNK N   1      34.731  14.603   9.891  0.00  0.00     0.122 A 
HETATM    4  C   UNK N   1      33.285  15.728   8.393  0.00  0.00     0.043 A 
HETATM    5  C   UNK N   1      32.484  14.574   8.317  0.00  0.00     0.116 A 
HETATM    6  C   UNK N   1      33.889  13.483   9.870  0.00  0.00     0.151 A 
HETATM    7  N   UNK N   1      34.157  12.421  10.671  0.00  0.00    -0.174 N 
ATOM      8  HN  UNK N   1      33.541  11.608  10.657  1.00  0.00     0.186 HD
HETATM    9  N   UNK N   1      35.473  11.347  12.363  0.00  0.00    -0.234 N 
HETATM   10  N   UNK N   1      36.091  13.495  11.497  0.00  0.00    -0.175 N 
ATOM     11  HN  UNK N   1      36.914  13.479  12.101  1.00  0.00     0.186 HD
HETATM   12  N   UNK N   1      34.409  15.700   9.158  0.00  0.00    -0.351 N 
ATOM     13  HN  UNK N   1      35.021  16.515   9.180  1.00  0.00     0.166 HD
HETATM   14  N   UNK N   1      32.800  13.479   9.059  0.00  0.00    -0.348 N 
ATOM     15  HN  UNK N   1      32.213  12.647   9.005  1.00  0.00     0.167 HD
HETATM   16  H   UNK N   1      34.744  10.804  12.740  0.00  0.00     0.174 HD
HETATM   17  H   UNK N   1      36.402  11.122  12.602  0.00  0.00     0.174 HD
ENDROOT
BRANCH   4  18
HETATM   18  C   UNK N   1      32.855  17.058   7.818  0.00  0.00     0.188 C 
BRANCH  18  19
HETATM   19  N   UNK N   1      31.615  17.075   7.025  0.00  0.00    -0.340 N 
HETATM   20  C   UNK N   1      30.387  17.444   7.723  0.00  0.00     0.045 A 
HETATM   21  C   UNK N   1      30.514  17.888   9.066  0.00  0.00     0.030 A 
HETATM   22  C   UNK N   1      29.059  17.379   7.205  0.00  0.00    -0.009 A 
HETATM   23  C   UNK N   1      29.424  18.201   9.868  0.00  0.00     0.002 A 
HETATM   24  C   UNK N   1      28.146  18.094   9.354  0.00  0.00     0.001 A 
HETATM   25  C   UNK N   1      27.973  17.697   8.035  0.00  0.00     0.014 A 
HETATM   26  C   UNK N   1      28.651  16.997   5.870  0.00  0.00     0.014 C 
HETATM   27  C   UNK N   1      29.366  16.758   4.796  0.00  0.00     0.014 C 
HETATM   28  C   UNK N   1      30.800  16.760   4.599  0.00  0.00    -0.009 A 
HETATM   29  C   UNK N   1      31.168  16.591   3.255  0.00  0.00     0.014 A 
HETATM   30  C   UNK N   1      31.813  16.873   5.598  0.00  0.00     0.045 A 
HETATM   31  C   UNK N   1      32.497  16.536   2.856  0.00  0.00     0.001 A 
HETATM   32  C   UNK N   1      33.496  16.633   3.807  0.00  0.00     0.002 A 
HETATM   33  C   UNK N   1      33.156  16.796   5.145  0.00  0.00     0.030 A 
ENDBRANCH  18  19
ENDBRANCH   4  18
BRANCH   2  34
HETATM   34  N   UNK N   1      36.753  15.670  10.738  0.00  0.00    -0.383 N 
HETATM   35  H   UNK N   1      36.772  16.596  10.403  0.00  0.00     0.157 HD
HETATM   36  H   UNK N   1      37.578  15.447  11.228  0.00  0.00     0.157 HD
ENDBRANCH   2  34
TORSDOF 3
ENDMDL
MODEL 4
REMARK VINA RESULT:      -8.1      1.522      2.843
REMARK  3 active torsions:
REMARK  status: ('A' for Active; 'I' for Inactive)
REMARK       I    between atoms: C_1  and  N_24 
REMARK    1  A    between atoms: C_2  and  N_27 
REMARK    2  A    between atoms: C_4  and  C_7 
REMARK    3  A    between atoms: C_7  and  N_32 
ROOT
HETATM    1  C   UNK N   1      32.046  16.568   8.351  0.00  0.00     0.679 A 
HETATM    2  C   UNK N   1      32.780  14.433   9.067  0.00  0.00     0.145 A 
HETATM    3  C   UNK N   1      33.823  15.031   9.777  0.00  0.00     0.122 A 
HETATM    4  C   UNK N   1      35.649  14.899  11.276  0.00  0.00     0.043 A 
HETATM    5  C   UNK N   1      35.843  16.287  11.145  0.00  0.00     0.116 A 
HETATM    6  C   UNK N   1      33.973  16.422   9.708  0.00  0.00     0.151 A 
HETATM    7  N   UNK N   1      33.083  17.164   9.001  0.00  0.00    -0.174 N 
ATOM      8  HN  UNK N   1      33.193  18.177   8.955  1.00  0.00     0.186 HD
HETATM    9  N   UNK N   1      31.099  17.356   7.670  0.00  0.00    -0.234 N 
HETATM   10  N   UNK N   1      31.910  15.213   8.375  0.00  0.00    -0.175 N 
ATOM     11  HN  UNK N   1      31.142  14.777   7.863  1.00  0.00     0.186 HD
HETATM   12  N   UNK N   1      34.659  14.302  10.561  0.00  0.00    -0.351 N 
ATOM     13  HN  UNK N   1      34.543  13.290  10.612  1.00  0.00     0.166 HD
HETATM   14  N   UNK N   1      35.000  17.019  10.368  0.00  0.00    -0.348 N 
ATOM     15  HN  UNK N   1      35.140  18.025  10.282  1.00  0.00     0.167 HD
HETATM   16  H   UNK N   1      30.863  18.268   7.957  0.00  0.00     0.174 HD
HETATM   17  H   UNK N   1      30.654  16.981   6.876  0.00  0.00     0.174 HD
ENDROOT
BRANCH   4  18
HETATM   18  C   UNK N   1      36.366  14.072  12.318  0.00  0.00     0.188 C 
BRANCH  18  19
HETATM   19  N   UNK N   1      36.429  12.619  12.093  0.00  0.00    -0.340 N 
HETATM   20  C   UNK N   1      37.411  12.140  11.124  0.00  0.00     0.045 A 
HETATM   21  C   UNK N   1      38.312  13.098  10.589  0.00  0.00     0.030 A 
HETATM   22  C   UNK N   1      37.545  10.807  10.634  0.00  0.00    -0.009 A 
HETATM   23  C   UNK N   1      39.248  12.794   9.609  0.00  0.00     0.002 A 
HETATM   24  C   UNK N   1      39.332  11.504   9.123  0.00  0.00     0.001 A 
HETATM   25  C   UNK N   1      38.495  10.525   9.641  0.00  0.00     0.014 A 
HETATM   26  C   UNK N   1      36.785   9.640  11.030  0.00  0.00     0.014 C 
HETATM   27  C   UNK N   1      35.914   9.479  11.997  0.00  0.00     0.014 C 
HETATM   28  C   UNK N   1      35.395  10.424  12.965  0.00  0.00    -0.009 A 
HETATM   29  C   UNK N   1      34.577   9.820  13.934  0.00  0.00     0.014 A 
HETATM   30  C   UNK N   1      35.599  11.835  12.996  0.00  0.00     0.045 A 
HETATM   31  C   UNK N   1      33.957  10.554  14.936  0.00  0.00     0.001 A 
HETATM   32  C   UNK N   1      34.132  11.925  14.980  0.00  0.00     0.002 A 
HETATM   33  C   UNK N   1      34.934  12.545  14.029  0.00  0.00     0.030 A 
ENDBRANCH  18  19
ENDBRANCH   4  18
BRANCH   2  34
HETATM   34  N   UNK N   1      32.609  13.033   9.084  0.00  0.00    -0.383 N 
HETATM   35  H   UNK N   1      32.106  12.373   9.614  0.00  0.00     0.157 HD
HETATM   36  H   UNK N   1      33.134  12.599   8.374  0.00  0.00     0.157 HD
ENDBRANCH   2  34
TORSDOF 3
ENDMDL
MODEL 5
REMARK VINA RESULT:      -8.1      1.814      3.447
REMARK  3 active torsions:
REMARK  status: ('A' for Active; 'I' for Inactive)
REMARK       I    between atoms: C_1  and  N_24 
REMARK    1  A    between atoms: C_2  and  N_27 
REMARK    2  A    between atoms: C_4  and  C_7 
REMARK    3  A    between atoms: C_7  and  N_32 
ROOT
HETATM    1  C   UNK N   1      33.393  14.977   8.877  0.00  0.00     0.679 A 
HETATM    2  C   UNK N   1      34.690  15.807  10.676  0.00  0.00     0.145 A 
HETATM    3  C   UNK N   1      34.819  14.513  11.180  0.00  0.00     0.122 A 
HETATM    4  C   UNK N   1      35.739  12.975  12.725  0.00  0.00     0.043 A 
HETATM    5  C   UNK N   1      35.023  11.936  12.101  0.00  0.00     0.116 A 
HETATM    6  C   UNK N   1      34.168  13.464  10.516  0.00  0.00     0.151 A 
HETATM    7  N   UNK N   1      33.471  13.713   9.379  0.00  0.00    -0.174 N 
ATOM      8  HN  UNK N   1      33.001  12.948   8.896  1.00  0.00     0.186 HD
HETATM    9  N   UNK N   1      32.715  15.210   7.665  0.00  0.00    -0.234 N 
HETATM   10  N   UNK N   1      33.986  16.012   9.532  0.00  0.00    -0.175 N 
ATOM     11  HN  UNK N   1      33.899  16.958   9.158  1.00  0.00     0.186 HD
HETATM   12  N   UNK N   1      35.592  14.245  12.264  0.00  0.00    -0.351 N 
ATOM     13  HN  UNK N   1      36.069  15.010  12.741  1.00  0.00     0.166 HD
HETATM   14  N   UNK N   1      34.258  12.201  11.009  0.00  0.00    -0.348 N 
ATOM     15  HN  UNK N   1      33.746  11.444  10.556  1.00  0.00     0.167 HD
HETATM   16  H   UNK N   1      32.665  14.537   6.948  0.00  0.00     0.174 HD
HETATM   17  H   UNK N   1      32.273  16.079   7.529  0.00  0.00     0.174 HD
ENDROOT
BRANCH   4  18
HETATM   18  C   UNK N   1      36.810  12.719  13.761  0.00  0.00     0.188 C 
BRANCH  18  19
HETATM   19  N   UNK N   1      36.367  12.548  15.154  0.00  0.00    -0.340 N 
HETATM   20  C   UNK N   1      36.048  11.191  15.587  0.00  0.00     0.045 A 
HETATM   21  C   UNK N   1      36.326  10.139  14.676  0.00  0.00     0.030 A 
HETATM   22  C   UNK N   1      35.458  10.808  16.828  0.00  0.00    -0.009 A 
HETATM   23  C   UNK N   1      36.008   8.810  14.930  0.00  0.00     0.002 A 
HETATM   24  C   UNK N   1      35.402   8.471  16.123  0.00  0.00     0.001 A 
HETATM   25  C   UNK N   1      35.142   9.461  17.062  0.00  0.00     0.014 A 
HETATM   26  C   UNK N   1      35.106  11.666  17.940  0.00  0.00     0.014 C 
HETATM   27  C   UNK N   1      35.355  12.938  18.146  0.00  0.00     0.014 C 
HETATM   28  C   UNK N   1      36.029  13.913  17.315  0.00  0.00    -0.009 A 
HETATM   29  C   UNK N   1      36.218  15.145  17.962  0.00  0.00     0.014 A 
HETATM   30  C   UNK N   1      36.459  13.753  15.965  0.00  0.00     0.045 A 
HETATM   31  C   UNK N   1      36.820  16.224  17.329  0.00  0.00     0.001 A 
HETATM   32  C   UNK N   1      37.235  16.097  16.017  0.00  0.00     0.002 A 
HETATM   33  C   UNK N   1      37.055  14.888  15.355  0.00  0.00     0.030 A 
ENDBRANCH  18  19
ENDBRANCH   4  18
BRANCH   2  34
HETATM   34  N   UNK N   1      35.304  16.898  11.328  0.00  0.00    -0.383 N 
HETATM   35  H   UNK N   1      36.022  17.033  11.988  0.00  0.00     0.157 HD
HETATM   36  H   UNK N   1      34.907  17.753  11.047  0.00  0.00     0.157 HD
ENDBRANCH   2  34
TORSDOF 3
ENDMDL
MODEL 6
REMARK VINA RESULT:      -8.0      2.000      3.410
REMARK  3 active torsions:
REMARK  status: ('A' for Active; 'I' for Inactive)
REMARK       I    between atoms: C_1  and  N_24 
REMARK    1  A    between atoms: C_2  and  N_27 
REMARK    2  A    between atoms: C_4  and  C_7 
REMARK    3  A    between atoms: C_7  and  N_32 
ROOT
HETATM    1  C   UNK N   1      32.178  16.885   7.297  0.00  0.00     0.679 A 
HETATM    2  C   UNK N   1      34.048  17.788   8.435  0.00  0.00     0.145 A 
HETATM    3  C   UNK N   1      34.077  16.672   9.272  0.00  0.00     0.122 A 
HETATM    4  C   UNK N   1      35.097  15.392  10.980  0.00  0.00     0.043 A 
HETATM    5  C   UNK N   1      34.063  14.444  10.873  0.00  0.00     0.116 A 
HETATM    6  C   UNK N   1      33.091  15.688   9.116  0.00  0.00     0.151 A 
HETATM    7  N   UNK N   1      32.163  15.811   8.133  0.00  0.00    -0.174 N 
ATOM      8  HN  UNK N   1      31.449  15.092   8.020  1.00  0.00     0.186 HD
HETATM    9  N   UNK N   1      31.245  16.969   6.246  0.00  0.00    -0.234 N 
HETATM   10  N   UNK N   1      33.104  17.869   7.461  0.00  0.00    -0.175 N 
ATOM     11  HN  UNK N   1      33.088  18.681   6.843  1.00  0.00     0.186 HD
HETATM   12  N   UNK N   1      35.058  16.500  10.194  0.00  0.00    -0.351 N 
ATOM     13  HN  UNK N   1      35.777  17.216  10.301  1.00  0.00     0.166 HD
HETATM   14  N   UNK N   1      33.086  14.609   9.941  0.00  0.00    -0.348 N 
ATOM     15  HN  UNK N   1      32.342  13.916   9.862  1.00  0.00     0.167 HD
HETATM   16  H   UNK N   1      30.878  16.173   5.798  0.00  0.00     0.174 HD
HETATM   17  H   UNK N   1      30.946  17.859   5.948  0.00  0.00     0.174 HD
ENDROOT
BRANCH   4  18
HETATM   18  C   UNK N   1      36.348  15.144  11.792  0.00  0.00     0.188 C 
BRANCH  18  19
HETATM   19  N   UNK N   1      36.828  13.756  11.876  0.00  0.00    -0.340 N 
HETATM   20  C   UNK N   1      37.586  13.246  10.737  0.00  0.00     0.045 A 
HETATM   21  C   UNK N   1      37.914  14.172   9.712  0.00  0.00     0.030 A 
HETATM   22  C   UNK N   1      38.012  11.900  10.529  0.00  0.00    -0.009 A 
HETATM   23  C   UNK N   1      38.569  13.808   8.541  0.00  0.00     0.002 A 
HETATM   24  C   UNK N   1      38.937  12.491   8.347  0.00  0.00     0.001 A 
HETATM   25  C   UNK N   1      38.668  11.555   9.338  0.00  0.00     0.014 A 
HETATM   26  C   UNK N   1      37.841  10.773  11.421  0.00  0.00     0.014 C 
HETATM   27  C   UNK N   1      37.397  10.722  12.654  0.00  0.00     0.014 C 
HETATM   28  C   UNK N   1      36.897  11.770  13.520  0.00  0.00    -0.009 A 
HETATM   29  C   UNK N   1      36.651  11.327  14.829  0.00  0.00     0.014 A 
HETATM   30  C   UNK N   1      36.613  13.123  13.169  0.00  0.00     0.045 A 
HETATM   31  C   UNK N   1      36.141  12.169  15.808  0.00  0.00     0.001 A 
HETATM   32  C   UNK N   1      35.848  13.482  15.489  0.00  0.00     0.002 A 
HETATM   33  C   UNK N   1      36.080  13.942  14.198  0.00  0.00     0.030 A 
ENDBRANCH  18  19
ENDBRANCH   4  18
BRANCH   2  34
HETATM   34  N   UNK N   1      35.003  18.817   8.575  0.00  0.00    -0.383 N 
HETATM   35  H   UNK N   1      35.677  19.259   8.009  0.00  0.00     0.157 HD
HETATM   36  H   UNK N   1      34.992  19.196   9.484  0.00  0.00     0.157 HD
ENDBRANCH   2  34
TORSDOF 3
ENDMDL
MODEL 7
REMARK VINA RESULT:      -7.7      3.991      8.783
REMARK  3 active torsions:
REMARK  status: ('A' for Active; 'I' for Inactive)
REMARK       I    between atoms: C_1  and  N_24 
REMARK    1  A    between atoms: C_2  and  N_27 
REMARK    2  A    between atoms: C_4  and  C_7 
REMARK    3  A    between atoms: C_7  and  N_32 
ROOT
HETATM    1  C   UNK N   1      34.956  15.507  11.216  0.00  0.00     0.679 A 
HETATM    2  C   UNK N   1      33.265  14.822   9.707  0.00  0.00     0.145 A 
HETATM    3  C   UNK N   1      33.452  15.991   8.967  0.00  0.00     0.122 A 
HETATM    4  C   UNK N   1      33.004  17.336   7.073  0.00  0.00     0.043 A 
HETATM    5  C   UNK N   1      33.886  18.312   7.571  0.00  0.00     0.116 A 
HETATM    6  C   UNK N   1      34.387  16.932   9.421  0.00  0.00     0.151 A 
HETATM    7  N   UNK N   1      35.121  16.673  10.532  0.00  0.00    -0.174 N 
ATOM      8  HN  UNK N   1      35.803  17.358  10.858  1.00  0.00     0.186 HD
HETATM    9  N   UNK N   1      35.766  15.228  12.333  0.00  0.00    -0.234 N 
HETATM   10  N   UNK N   1      34.024  14.601  10.811  0.00  0.00    -0.175 N 
ATOM     11  HN  UNK N   1      33.893  13.743  11.347  1.00  0.00     0.186 HD
HETATM   12  N   UNK N   1      32.787  16.211   7.804  0.00  0.00    -0.351 N 
ATOM     13  HN  UNK N   1      32.112  15.521   7.474  1.00  0.00     0.166 HD
HETATM   14  N   UNK N   1      34.562  18.089   8.730  0.00  0.00    -0.348 N 
ATOM     15  HN  UNK N   1      35.206  18.796   9.084  1.00  0.00     0.167 HD
HETATM   16  H   UNK N   1      36.688  15.563  12.416  0.00  0.00     0.174 HD
HETATM   17  H   UNK N   1      35.397  14.677  13.061  0.00  0.00     0.174 HD
ENDROOT
BRANCH   4  18
HETATM   18  C   UNK N   1      32.432  17.392   5.675  0.00  0.00     0.188 C 
BRANCH  18  19
HETATM   19  N   UNK N   1      31.522  16.306   5.279  0.00  0.00    -0.340 N 
HETATM   20  C   UNK N   1      30.125  16.431   5.684  0.00  0.00     0.045 A 
HETATM   21  C   UNK N   1      29.736  17.650   6.298  0.00  0.00     0.030 A 
HETATM   22  C   UNK N   1      29.107  15.440   5.550  0.00  0.00    -0.009 A 
HETATM   23  C   UNK N   1      28.458  17.876   6.795  0.00  0.00     0.002 A 
HETATM   24  C   UNK N   1      27.501  16.886   6.688  0.00  0.00     0.001 A 
HETATM   25  C   UNK N   1      27.824  15.689   6.062  0.00  0.00     0.014 A 
HETATM   26  C   UNK N   1      29.221  14.134   4.937  0.00  0.00     0.014 C 
HETATM   27  C   UNK N   1      30.202  13.598   4.251  0.00  0.00     0.014 C 
HETATM   28  C   UNK N   1      31.510  14.120   3.911  0.00  0.00    -0.009 A 
HETATM   29  C   UNK N   1      32.220  13.286   3.033  0.00  0.00     0.014 A 
HETATM   30  C   UNK N   1      32.117  15.318   4.391  0.00  0.00     0.045 A 
HETATM   31  C   UNK N   1      33.506  13.591   2.607  0.00  0.00     0.001 A 
HETATM   32  C   UNK N   1      34.119  14.740   3.067  0.00  0.00     0.002 A 
HETATM   33  C   UNK N   1      33.437  15.580   3.939  0.00  0.00     0.030 A 
ENDBRANCH  18  19
ENDBRANCH   4  18
BRANCH   2  34
HETATM   34  N   UNK N   1      32.314  13.861   9.303  0.00  0.00    -0.383 N 
HETATM   35  H   UNK N   1      31.949  13.015   9.652  0.00  0.00     0.157 HD
HETATM   36  H   UNK N   1      31.906  14.100   8.440  0.00  0.00     0.157 HD
ENDBRANCH   2  34
TORSDOF 3
ENDMDL
MODEL 8
REMARK VINA RESULT:      -7.7      3.081      7.890
REMARK  3 active torsions:
REMARK  status: ('A' for Active; 'I' for Inactive)
REMARK       I    between atoms: C_1  and  N_24 
REMARK    1  A    between atoms: C_2  and  N_27 
REMARK    2  A    between atoms: C_4  and  C_7 
REMARK    3  A    between atoms: C_7  and  N_32 
ROOT
HETATM    1  C   UNK N   1      35.391  13.050  11.078  0.00  0.00     0.679 A 
HETATM    2  C   UNK N   1      33.559  13.479   9.641  0.00  0.00     0.145 A 
HETATM    3  C   UNK N   1      33.938  14.819   9.558  0.00  0.00     0.122 A 
HETATM    4  C   UNK N   1      33.691  16.988   8.644  0.00  0.00     0.043 A 
HETATM    5  C   UNK N   1      34.753  17.437   9.451  0.00  0.00     0.116 A 
HETATM    6  C   UNK N   1      35.043  15.253  10.303  0.00  0.00     0.151 A 
HETATM    7  N   UNK N   1      35.749  14.363  11.045  0.00  0.00    -0.174 N 
ATOM      8  HN  UNK N   1      36.555  14.681  11.583  1.00  0.00     0.186 HD
HETATM    9  N   UNK N   1      36.168  12.129  11.806  0.00  0.00    -0.234 N 
HETATM   10  N   UNK N   1      34.296  12.621  10.393  0.00  0.00    -0.175 N 
ATOM     11  HN  UNK N   1      34.024  11.638  10.446  1.00  0.00     0.186 HD
HETATM   12  N   UNK N   1      33.291  15.692   8.744  0.00  0.00    -0.351 N 
ATOM     13  HN  UNK N   1      32.490  15.371   8.200  1.00  0.00     0.166 HD
HETATM   14  N   UNK N   1      35.409  16.561  10.258  0.00  0.00    -0.348 N 
ATOM     15  HN  UNK N   1      36.183  16.889  10.836  1.00  0.00     0.167 HD
HETATM   16  H   UNK N   1      37.138  12.238  11.934  0.00  0.00     0.174 HD
HETATM   17  H   UNK N   1      35.724  11.346  12.205  0.00  0.00     0.174 HD
ENDROOT
BRANCH   4  18
HETATM   18  C   UNK N   1      33.099  17.827   7.536  0.00  0.00     0.188 C 
BRANCH  18  19
HETATM   19  N   UNK N   1      31.900  17.301   6.864  0.00  0.00    -0.340 N 
HETATM   20  C   UNK N   1      32.112  16.479   5.676  0.00  0.00     0.045 A 
HETATM   21  C   UNK N   1      33.453  16.144   5.353  0.00  0.00     0.030 A 
HETATM   22  C   UNK N   1      31.109  15.997   4.783  0.00  0.00    -0.009 A 
HETATM   23  C   UNK N   1      33.803  15.430   4.214  0.00  0.00     0.002 A 
HETATM   24  C   UNK N   1      32.816  15.006   3.345  0.00  0.00     0.001 A 
HETATM   25  C   UNK N   1      31.487  15.281   3.637  0.00  0.00     0.014 A 
HETATM   26  C   UNK N   1      29.676  16.163   4.893  0.00  0.00     0.014 C 
HETATM   27  C   UNK N   1      28.947  16.654   5.867  0.00  0.00     0.014 C 
HETATM   28  C   UNK N   1      29.337  17.227   7.139  0.00  0.00    -0.009 A 
HETATM   29  C   UNK N   1      28.241  17.509   7.969  0.00  0.00     0.014 A 
HETATM   30  C   UNK N   1      30.655  17.545   7.579  0.00  0.00     0.045 A 
HETATM   31  C   UNK N   1      28.396  18.089   9.221  0.00  0.00     0.001 A 
HETATM   32  C   UNK N   1      29.664  18.417   9.666  0.00  0.00     0.002 A 
HETATM   33  C   UNK N   1      30.764  18.149   8.859  0.00  0.00     0.030 A 
ENDBRANCH  18  19
ENDBRANCH   4  18
BRANCH   2  34
HETATM   34  N   UNK N   1      32.435  13.004   8.931  0.00  0.00    -0.383 N 
HETATM   35  H   UNK N   1      31.611  12.504   9.134  0.00  0.00     0.157 HD
HETATM   36  H   UNK N   1      32.490  13.236   7.976  0.00  0.00     0.157 HD
ENDBRANCH   2  34
TORSDOF 3
ENDMDL
MODEL 9
REMARK VINA RESULT:      -7.7     11.694     15.170
REMARK  3 active torsions:
REMARK  status: ('A' for Active; 'I' for Inactive)
REMARK       I    between atoms: C_1  and  N_24 
REMARK    1  A    between atoms: C_2  and  N_27 
REMARK    2  A    between atoms: C_4  and  C_7 
REMARK    3  A    between atoms: C_7  and  N_32 
ROOT
HETATM    1  C   UNK N   1      19.065  15.882   0.326  0.00  0.00     0.679 A 
HETATM    2  C   UNK N   1      20.807  15.135   1.745  0.00  0.00     0.145 A 
HETATM    3  C   UNK N   1      20.938  16.424   2.263  0.00  0.00     0.122 A 
HETATM    4  C   UNK N   1      21.885  17.950   3.803  0.00  0.00     0.043 A 
HETATM    5  C   UNK N   1      21.128  18.986   3.226  0.00  0.00     0.116 A 
HETATM    6  C   UNK N   1      20.130  17.444   1.742  0.00  0.00     0.151 A 
HETATM    7  N   UNK N   1      19.209  17.155   0.787  0.00  0.00    -0.174 N 
ATOM      8  HN  UNK N   1      18.619  17.898   0.412  1.00  0.00     0.186 HD
HETATM    9  N   UNK N   1      18.066  15.588  -0.621  0.00  0.00    -0.234 N 
HETATM   10  N   UNK N   1      19.870  14.889   0.793  0.00  0.00    -0.175 N 
ATOM     11  HN  UNK N   1      19.768  13.944   0.421  1.00  0.00     0.186 HD
HETATM   12  N   UNK N   1      21.792  16.698   3.282  0.00  0.00    -0.351 N 
ATOM     13  HN  UNK N   1      22.375  15.952   3.662  1.00  0.00     0.166 HD
HETATM   14  N   UNK N   1      20.264  18.711   2.212  0.00  0.00    -0.348 N 
ATOM     15  HN  UNK N   1      19.711  19.463   1.802  1.00  0.00     0.167 HD
HETATM   16  H   UNK N   1      17.215  16.082  -0.666  0.00  0.00     0.174 HD
HETATM   17  H   UNK N   1      18.224  14.860  -1.266  0.00  0.00     0.174 HD
ENDROOT
BRANCH   4  18
HETATM   18  C   UNK N   1      22.653  18.124   5.093  0.00  0.00     0.188 C 
BRANCH  18  19
HETATM   19  N   UNK N   1      23.965  17.463   5.186  0.00  0.00    -0.340 N 
HETATM   20  C   UNK N   1      25.123  18.219   4.719  0.00  0.00     0.045 A 
HETATM   21  C   UNK N   1      24.905  19.572   4.348  0.00  0.00     0.030 A 
HETATM   22  C   UNK N   1      26.455  17.733   4.569  0.00  0.00    -0.009 A 
HETATM   23  C   UNK N   1      25.901  20.384   3.820  0.00  0.00     0.002 A 
HETATM   24  C   UNK N   1      27.175  19.877   3.649  0.00  0.00     0.001 A 
HETATM   25  C   UNK N   1      27.445  18.570   4.030  0.00  0.00     0.014 A 
HETATM   26  C   UNK N   1      26.957  16.415   4.900  0.00  0.00     0.014 C 
HETATM   27  C   UNK N   1      26.380  15.418   5.527  0.00  0.00     0.014 C 
HETATM   28  C   UNK N   1      25.040  15.288   6.061  0.00  0.00    -0.009 A 
HETATM   29  C   UNK N   1      24.855  14.105   6.792  0.00  0.00     0.014 A 
HETATM   30  C   UNK N   1      23.947  16.188   5.887  0.00  0.00     0.045 A 
HETATM   31  C   UNK N   1      23.633  13.775   7.363  0.00  0.00     0.001 A 
HETATM   32  C   UNK N   1      22.555  14.626   7.200  0.00  0.00     0.002 A 
HETATM   33  C   UNK N   1      22.714  15.803   6.477  0.00  0.00     0.030 A 
ENDBRANCH  18  19
ENDBRANCH   4  18
BRANCH   2  34
HETATM   34  N   UNK N   1      21.620  14.084   2.219  0.00  0.00    -0.383 N 
HETATM   35  H   UNK N   1      21.736  13.582   3.058  0.00  0.00     0.157 HD
HETATM   36  H   UNK N   1      22.238  13.766   1.522  0.00  0.00     0.157 HD
ENDBRANCH   2  34
TORSDOF 3
ENDMDL
