REMARK  13 active torsions:
REMARK  status: ('A' for Active; 'I' for Inactive)
REMARK    1  A    between atoms: C_1  and  C_2 
REMARK    2  A    between atoms: C_1  and  S_24 
REMARK    3  A    between atoms: C_2  and  N_3 
REMARK       I    between atoms: N_3  and  C_4 
REMARK    4  A    between atoms: C_4  and  C_6 
REMARK    5  A    between atoms: C_6  and  C_7 
REMARK    6  A    between atoms: C_7  and  N_8 
REMARK       I    between atoms: N_8  and  C_9 
REMARK    7  A    between atoms: C_9  and  C_11 
REMARK    8  A    between atoms: C_11  and  O_12 
REMARK    9  A    between atoms: C_13  and  C_11 
REMARK   10  A    between atoms: C_13  and  C_16 
REMARK   11  A    between atoms: C_16  and  O_17 
REMARK   12  A    between atoms: O_17  and  C_18 
REMARK   13  A    between atoms: C_18  and  C_20 
ROOT
HETATM    1  N   UNK N   1      -2.327   0.430   1.005  0.00  0.00    -0.358 N 
HETATM    2  C   UNK N   1      -0.978   0.290   1.102  0.00  0.00     0.247 C 
HETATM    3  O   UNK N   1      -0.527  -0.418   1.985  0.00  0.00    -0.271 OA
HETATM    4  H   UNK N   1      -2.884  -0.052   1.658  0.00  0.00     0.162 HD
ENDROOT
BRANCH   2   5
HETATM    5  C   UNK N   1      -0.016   0.977   0.141  0.00  0.00     0.219 C 
BRANCH   5   6
HETATM    6  O   UNK N   1       0.842   1.804   0.873  0.00  0.00    -0.385 OA
HETATM    7  H   UNK N   1       1.636   1.575   1.381  0.00  0.00     0.210 HD
ENDBRANCH   5   6
BRANCH   5   8
HETATM    8  C   UNK N   1       0.800  -0.039  -0.702  0.00  0.00     0.009 C 
HETATM    9  C   UNK N   1       1.651   0.704  -1.728  0.00  0.00     0.020 C 
HETATM   10  C   UNK N   1      -0.148  -0.932  -1.486  0.00  0.00     0.020 C 
BRANCH   8  11
HETATM   11  C   UNK N   1       1.694  -0.949   0.157  0.00  0.00     0.190 C 
BRANCH  11  12
HETATM   12  O   UNK N   1       2.859  -0.305   0.517  0.00  0.00    -0.320 OA
BRANCH  12  13
HETATM   13  C   UNK N   1       4.072  -0.767   0.115  0.00  0.00     0.266 C 
HETATM   14  O   UNK N   1       4.177  -1.894  -0.355  0.00  0.00    -0.264 OA
BRANCH  13  15
HETATM   15  C   UNK N   1       5.288   0.122   0.186  0.00  0.00     0.037 C 
HETATM   16  C   UNK N   1       4.953   1.477   0.787  0.00  0.00     0.025 C 
HETATM   17  C   UNK N   1       6.367  -0.529   1.029  0.00  0.00     0.025 C 
HETATM   18  C   UNK N   1       5.823   0.344  -1.217  0.00  0.00     0.025 C 
ENDBRANCH  13  15
ENDBRANCH  12  13
ENDBRANCH  11  12
ENDBRANCH   8  11
ENDBRANCH   5   8
ENDBRANCH   2   5
BRANCH   1  19
HETATM   19  C   UNK N   1      -3.003   1.233   0.012  0.00  0.00     0.132 C 
BRANCH  19  20
HETATM   20  C   UNK N   1      -3.843   0.371  -0.936  0.00  0.00     0.122 C 
BRANCH  20  21
HETATM   21  C   UNK N   1      -4.716  -0.632  -0.224  0.00  0.00     0.219 C 
HETATM   22  N   UNK N   1      -6.068  -0.551  -0.264  0.00  0.00    -0.360 N 
HETATM   23  H   UNK N   1      -6.594  -1.242   0.200  0.00  0.00     0.162 HD
HETATM   24  O   UNK N   1      -4.195  -1.555   0.380  0.00  0.00    -0.274 OA
BRANCH  22  25
HETATM   25  C   UNK N   1      -6.769   0.501  -0.956  0.00  0.00     0.132 C 
BRANCH  25  26
HETATM   26  C   UNK N   1      -7.669   1.247   0.014  0.00  0.00     0.090 C 
BRANCH  26  27
HETATM   27  S   UNK N   1      -9.020   0.175   0.591  0.00  0.00    -0.181 SA
HETATM   28  H   UNK N   1     -10.220   0.648   1.023  0.00  0.00     0.101 HD
ENDBRANCH  26  27
ENDBRANCH  25  26
ENDBRANCH  22  25
ENDBRANCH  20  21
ENDBRANCH  19  20
ENDBRANCH   1  19
TORSDOF 13
