MODEL 1
REMARK VINA RESULT:      -6.7      0.000      0.000
REMARK  12 active torsions:
REMARK  status: ('A' for Active; 'I' for Inactive)
REMARK    1  A    between atoms: N_1  and  C_7 
REMARK    2  A    between atoms: C_4  and  C_10 
REMARK    3  A    between atoms: C_10  and  O_11 
REMARK    4  A    between atoms: P_12  and  O_11 
REMARK    5  A    between atoms: P_12  and  O_14 
REMARK    6  A    between atoms: P_12  and  C_15 
REMARK    7  A    between atoms: C_15  and  C_16 
REMARK    8  A    between atoms: C_16  and  C_17 
REMARK    9  A    between atoms: C_17  and  C_18 
REMARK       I    between atoms: C_18  and  N_20 
REMARK   10  A    between atoms: N_20  and  C_21 
REMARK   11  A    between atoms: C_21  and  C_22 
REMARK   12  A    between atoms: C_22  and  O_24 
ROOT
HETATM    1  P   UNK N   1      28.295  18.168   4.790  0.00  0.00     0.238 P 
HETATM    2  O   UNK N   1      28.250  18.543   6.295  0.00  0.00    -0.653 OA
ENDROOT
BRANCH   1   3
HETATM    3  O   UNK N   1      29.860  17.444   4.569  0.00  0.00    -0.314 OA
BRANCH   3   4
HETATM    4  C   UNK N   1      30.046  16.677   5.721  0.00  0.00     0.216 C 
BRANCH   4   5
HETATM    5  C   UNK N   1      31.254  17.130   6.470  0.00  0.00    -0.034 A 
HETATM    6  C   UNK N   1      31.167  17.414   7.836  0.00  0.00     0.012 A 
HETATM    7  C   UNK N   1      32.312  17.789   8.547  0.00  0.00     0.037 A 
HETATM    8  C   UNK N   1      33.552  17.886   7.897  0.00  0.00     0.102 A 
HETATM    9  C   UNK N   1      33.630  17.608   6.523  0.00  0.00     0.037 A 
HETATM   10  C   UNK N   1      32.487  17.224   5.817  0.00  0.00     0.012 A 
BRANCH   8  11
HETATM   11  N   UNK N   1      34.719  18.246   8.628  0.00  0.00    -0.116 N 
HETATM   12  O   UNK N   1      35.310  19.250   8.365  0.00  0.00    -0.532 OA
HETATM   13  O   UNK N   1      35.173  17.457   9.579  0.00  0.00    -0.532 OA
ENDBRANCH   8  11
ENDBRANCH   4   5
ENDBRANCH   3   4
ENDBRANCH   1   3
BRANCH   1  14
HETATM   14  O   UNK N   1      28.318  19.709   3.990  0.00  0.00    -0.329 OA
HETATM   15  H   UNK N   1      27.658  19.912   3.309  0.00  0.00     0.220 HD
ENDBRANCH   1  14
BRANCH   1  16
HETATM   16  C   UNK N   1      26.838  17.093   4.350  0.00  0.00     0.126 C 
BRANCH  16  17
HETATM   17  C   UNK N   1      25.909  17.824   3.395  0.00  0.00     0.021 C 
BRANCH  17  18
HETATM   18  C   UNK N   1      25.098  18.898   4.092  0.00  0.00     0.103 C 
BRANCH  18  19
HETATM   19  C   UNK N   1      24.903  20.072   3.180  0.00  0.00     0.218 C 
HETATM   20  O   UNK N   1      25.879  20.672   2.762  0.00  0.00    -0.274 OA
HETATM   21  N   UNK N   1      23.665  20.480   2.804  0.00  0.00    -0.351 N 
HETATM   22  H   UNK N   1      23.593  21.276   2.231  0.00  0.00     0.163 HD
BRANCH  21  23
HETATM   23  C   UNK N   1      22.443  19.811   3.197  0.00  0.00     0.232 C 
BRANCH  23  24
HETATM   24  C   UNK N   1      21.230  20.611   2.841  0.00  0.00     0.158 C 
HETATM   25  O   UNK N   1      21.122  21.084   1.722  0.00  0.00    -0.649 OA
BRANCH  24  26
HETATM   26  O   UNK N   1      20.224  20.749   3.724  0.00  0.00    -0.775 OA
HETATM   27  H   UNK N   1      19.970  21.601   4.021  0.00  0.00     0.167 HD
ENDBRANCH  24  26
ENDBRANCH  23  24
ENDBRANCH  21  23
ENDBRANCH  18  19
ENDBRANCH  17  18
ENDBRANCH  16  17
ENDBRANCH   1  16
TORSDOF 12
ENDMDL
MODEL 2
REMARK VINA RESULT:      -6.7      8.335     11.891
REMARK  12 active torsions:
REMARK  status: ('A' for Active; 'I' for Inactive)
REMARK    1  A    between atoms: N_1  and  C_7 
REMARK    2  A    between atoms: C_4  and  C_10 
REMARK    3  A    between atoms: C_10  and  O_11 
REMARK    4  A    between atoms: P_12  and  O_11 
REMARK    5  A    between atoms: P_12  and  O_14 
REMARK    6  A    between atoms: P_12  and  C_15 
REMARK    7  A    between atoms: C_15  and  C_16 
REMARK    8  A    between atoms: C_16  and  C_17 
REMARK    9  A    between atoms: C_17  and  C_18 
REMARK       I    between atoms: C_18  and  N_20 
REMARK   10  A    between atoms: N_20  and  C_21 
REMARK   11  A    between atoms: C_21  and  C_22 
REMARK   12  A    between atoms: C_22  and  O_24 
ROOT
HETATM    1  P   UNK N   1      19.800  16.325   7.917  0.00  0.00     0.238 P 
HETATM    2  O   UNK N   1      20.204  17.784   8.260  0.00  0.00    -0.653 OA
ENDROOT
BRANCH   1   3
HETATM    3  O   UNK N   1      19.057  16.437   6.349  0.00  0.00    -0.314 OA
BRANCH   3   4
HETATM    4  C   UNK N   1      20.055  16.013   5.468  0.00  0.00     0.216 C 
BRANCH   4   5
HETATM    5  C   UNK N   1      20.505  17.137   4.596  0.00  0.00    -0.034 A 
HETATM    6  C   UNK N   1      19.807  17.437   3.423  0.00  0.00     0.012 A 
HETATM    7  C   UNK N   1      20.199  18.524   2.634  0.00  0.00     0.037 A 
HETATM    8  C   UNK N   1      21.294  19.317   3.011  0.00  0.00     0.102 A 
HETATM    9  C   UNK N   1      21.995  19.004   4.186  0.00  0.00     0.037 A 
HETATM   10  C   UNK N   1      21.595  17.924   4.978  0.00  0.00     0.012 A 
BRANCH   8  11
HETATM   11  N   UNK N   1      21.677  20.435   2.219  0.00  0.00    -0.116 N 
HETATM   12  O   UNK N   1      22.274  21.346   2.707  0.00  0.00    -0.532 OA
HETATM   13  O   UNK N   1      21.347  20.487   0.945  0.00  0.00    -0.532 OA
ENDBRANCH   8  11
ENDBRANCH   4   5
ENDBRANCH   3   4
ENDBRANCH   1   3
BRANCH   1  14
HETATM   14  O   UNK N   1      18.544  15.973   9.062  0.00  0.00    -0.329 OA
HETATM   15  H   UNK N   1      17.908  16.662   9.312  0.00  0.00     0.220 HD
ENDBRANCH   1  14
BRANCH   1  16
HETATM   16  C   UNK N   1      21.283  15.203   8.030  0.00  0.00     0.126 C 
BRANCH  16  17
HETATM   17  C   UNK N   1      20.959  13.980   8.873  0.00  0.00     0.021 C 
BRANCH  17  18
HETATM   18  C   UNK N   1      22.075  13.638   9.840  0.00  0.00     0.103 C 
BRANCH  18  19
HETATM   19  C   UNK N   1      22.461  12.196   9.694  0.00  0.00     0.218 C 
HETATM   20  O   UNK N   1      22.706  11.754   8.584  0.00  0.00    -0.274 OA
HETATM   21  N   UNK N   1      22.548  11.373  10.769  0.00  0.00    -0.351 N 
HETATM   22  H   UNK N   1      22.772  10.428  10.612  0.00  0.00     0.163 HD
BRANCH  21  23
HETATM   23  C   UNK N   1      22.330  11.805  12.133  0.00  0.00     0.232 C 
BRANCH  23  24
HETATM   24  C   UNK N   1      23.619  12.058  12.850  0.00  0.00     0.158 C 
HETATM   25  O   UNK N   1      23.641  12.074  14.069  0.00  0.00    -0.649 OA
BRANCH  24  26
HETATM   26  O   UNK N   1      24.766  12.193  12.159  0.00  0.00    -0.775 OA
HETATM   27  H   UNK N   1      25.485  12.669  12.526  0.00  0.00     0.167 HD
ENDBRANCH  24  26
ENDBRANCH  23  24
ENDBRANCH  21  23
ENDBRANCH  18  19
ENDBRANCH  17  18
ENDBRANCH  16  17
ENDBRANCH   1  16
TORSDOF 12
ENDMDL
MODEL 3
REMARK VINA RESULT:      -6.5     10.740     14.786
REMARK  12 active torsions:
REMARK  status: ('A' for Active; 'I' for Inactive)
REMARK    1  A    between atoms: N_1  and  C_7 
REMARK    2  A    between atoms: C_4  and  C_10 
REMARK    3  A    between atoms: C_10  and  O_11 
REMARK    4  A    between atoms: P_12  and  O_11 
REMARK    5  A    between atoms: P_12  and  O_14 
REMARK    6  A    between atoms: P_12  and  C_15 
REMARK    7  A    between atoms: C_15  and  C_16 
REMARK    8  A    between atoms: C_16  and  C_17 
REMARK    9  A    between atoms: C_17  and  C_18 
REMARK       I    between atoms: C_18  and  N_20 
REMARK   10  A    between atoms: N_20  and  C_21 
REMARK   11  A    between atoms: C_21  and  C_22 
REMARK   12  A    between atoms: C_22  and  O_24 
ROOT
HETATM    1  P   UNK N   1      26.144  23.418  -8.114  0.00  0.00     0.238 P 
HETATM    2  O   UNK N   1      24.657  23.539  -8.543  0.00  0.00    -0.653 OA
ENDROOT
BRANCH   1   3
HETATM    3  O   UNK N   1      26.884  24.882  -8.690  0.00  0.00    -0.314 OA
BRANCH   3   4
HETATM    4  C   UNK N   1      25.874  25.841  -8.574  0.00  0.00     0.216 C 
BRANCH   4   5
HETATM    5  C   UNK N   1      26.061  26.659  -7.340  0.00  0.00    -0.034 A 
HETATM    6  C   UNK N   1      27.195  27.464  -7.196  0.00  0.00     0.012 A 
HETATM    7  C   UNK N   1      27.341  28.270  -6.062  0.00  0.00     0.037 A 
HETATM    8  C   UNK N   1      26.357  28.274  -5.061  0.00  0.00     0.102 A 
HETATM    9  C   UNK N   1      25.226  27.456  -5.208  0.00  0.00     0.037 A 
HETATM   10  C   UNK N   1      25.076  26.660  -6.347  0.00  0.00     0.012 A 
BRANCH   8  11
HETATM   11  N   UNK N   1      26.500  29.110  -3.919  0.00  0.00    -0.116 N 
HETATM   12  O   UNK N   1      26.222  28.701  -2.832  0.00  0.00    -0.532 OA
HETATM   13  O   UNK N   1      26.909  30.354  -4.057  0.00  0.00    -0.532 OA
ENDBRANCH   8  11
ENDBRANCH   4   5
ENDBRANCH   3   4
ENDBRANCH   1   3
BRANCH   1  14
HETATM   14  O   UNK N   1      26.742  22.115  -9.094  0.00  0.00    -0.329 OA
HETATM   15  H   UNK N   1      27.451  22.277  -9.735  0.00  0.00     0.220 HD
ENDBRANCH   1  14
BRANCH   1  16
HETATM   16  C   UNK N   1      26.263  23.120  -6.279  0.00  0.00     0.126 C 
BRANCH  16  17
HETATM   17  C   UNK N   1      27.681  23.371  -5.792  0.00  0.00     0.021 C 
BRANCH  17  18
HETATM   18  C   UNK N   1      27.758  24.537  -4.827  0.00  0.00     0.103 C 
BRANCH  18  19
HETATM   19  C   UNK N   1      27.598  24.052  -3.417  0.00  0.00     0.218 C 
HETATM   20  O   UNK N   1      26.482  23.993  -2.929  0.00  0.00    -0.274 OA
HETATM   21  N   UNK N   1      28.667  23.671  -2.673  0.00  0.00    -0.351 N 
HETATM   22  H   UNK N   1      28.509  23.393  -1.743  0.00  0.00     0.163 HD
BRANCH  21  23
HETATM   23  C   UNK N   1      30.026  23.650  -3.169  0.00  0.00     0.232 C 
BRANCH  23  24
HETATM   24  C   UNK N   1      30.675  22.317  -2.961  0.00  0.00     0.158 C 
HETATM   25  O   UNK N   1      31.564  22.198  -2.135  0.00  0.00    -0.649 OA
BRANCH  24  26
HETATM   26  O   UNK N   1      30.232  21.236  -3.628  0.00  0.00    -0.775 OA
HETATM   27  H   UNK N   1      30.215  21.234  -4.566  0.00  0.00     0.167 HD
ENDBRANCH  24  26
ENDBRANCH  23  24
ENDBRANCH  21  23
ENDBRANCH  18  19
ENDBRANCH  17  18
ENDBRANCH  16  17
ENDBRANCH   1  16
TORSDOF 12
ENDMDL
MODEL 4
REMARK VINA RESULT:      -6.5      7.981     12.297
REMARK  12 active torsions:
REMARK  status: ('A' for Active; 'I' for Inactive)
REMARK    1  A    between atoms: N_1  and  C_7 
REMARK    2  A    between atoms: C_4  and  C_10 
REMARK    3  A    between atoms: C_10  and  O_11 
REMARK    4  A    between atoms: P_12  and  O_11 
REMARK    5  A    between atoms: P_12  and  O_14 
REMARK    6  A    between atoms: P_12  and  C_15 
REMARK    7  A    between atoms: C_15  and  C_16 
REMARK    8  A    between atoms: C_16  and  C_17 
REMARK    9  A    between atoms: C_17  and  C_18 
REMARK       I    between atoms: C_18  and  N_20 
REMARK   10  A    between atoms: N_20  and  C_21 
REMARK   11  A    between atoms: C_21  and  C_22 
REMARK   12  A    between atoms: C_22  and  O_24 
ROOT
HETATM    1  P   UNK N   1      36.140  13.732  12.365  0.00  0.00     0.238 P 
HETATM    2  O   UNK N   1      34.617  13.558  12.603  0.00  0.00    -0.653 OA
ENDROOT
BRANCH   1   3
HETATM    3  O   UNK N   1      36.885  12.645  13.500  0.00  0.00    -0.314 OA
BRANCH   3   4
HETATM    4  C   UNK N   1      35.828  11.850  13.952  0.00  0.00     0.216 C 
BRANCH   4   5
HETATM    5  C   UNK N   1      35.698  11.937  15.436  0.00  0.00    -0.034 A 
HETATM    6  C   UNK N   1      35.165  13.086  16.027  0.00  0.00     0.012 A 
HETATM    7  C   UNK N   1      34.996  13.144  17.415  0.00  0.00     0.037 A 
HETATM    8  C   UNK N   1      35.362  12.055  18.222  0.00  0.00     0.102 A 
HETATM    9  C   UNK N   1      35.905  10.909  17.621  0.00  0.00     0.037 A 
HETATM   10  C   UNK N   1      36.063  10.848  16.234  0.00  0.00     0.012 A 
BRANCH   8  11
HETATM   11  N   UNK N   1      35.168  12.110  19.630  0.00  0.00    -0.116 N 
HETATM   12  O   UNK N   1      35.359  13.126  20.227  0.00  0.00    -0.532 OA
HETATM   13  O   UNK N   1      34.806  11.030  20.290  0.00  0.00    -0.532 OA
ENDBRANCH   8  11
ENDBRANCH   4   5
ENDBRANCH   3   4
ENDBRANCH   1   3
BRANCH   1  14
HETATM   14  O   UNK N   1      36.453  15.349  12.915  0.00  0.00    -0.329 OA
HETATM   15  H   UNK N   1      35.714  15.952  13.091  0.00  0.00     0.220 HD
ENDBRANCH   1  14
BRANCH   1  16
HETATM   16  C   UNK N   1      36.551  13.435  10.573  0.00  0.00     0.126 C 
BRANCH  16  17
HETATM   17  C   UNK N   1      36.528  14.743   9.799  0.00  0.00     0.021 C 
BRANCH  17  18
HETATM   18  C   UNK N   1      35.116  15.209   9.503  0.00  0.00     0.103 C 
BRANCH  18  19
HETATM   19  C   UNK N   1      34.969  16.661   9.851  0.00  0.00     0.218 C 
HETATM   20  O   UNK N   1      35.737  17.164  10.654  0.00  0.00    -0.274 OA
HETATM   21  N   UNK N   1      34.002  17.430   9.291  0.00  0.00    -0.351 N 
HETATM   22  H   UNK N   1      33.928  18.367   9.580  0.00  0.00     0.163 HD
BRANCH  21  23
HETATM   23  C   UNK N   1      33.071  16.951   8.291  0.00  0.00     0.232 C 
BRANCH  23  24
HETATM   24  C   UNK N   1      33.337  17.553   6.948  0.00  0.00     0.158 C 
HETATM   25  O   UNK N   1      34.431  18.032   6.704  0.00  0.00    -0.649 OA
BRANCH  24  26
HETATM   26  O   UNK N   1      32.399  17.502   5.983  0.00  0.00    -0.775 OA
HETATM   27  H   UNK N   1      32.478  18.039   5.220  0.00  0.00     0.167 HD
ENDBRANCH  24  26
ENDBRANCH  23  24
ENDBRANCH  21  23
ENDBRANCH  18  19
ENDBRANCH  17  18
ENDBRANCH  16  17
ENDBRANCH   1  16
TORSDOF 12
ENDMDL
MODEL 5
REMARK VINA RESULT:      -6.4      4.408      6.656
REMARK  12 active torsions:
REMARK  status: ('A' for Active; 'I' for Inactive)
REMARK    1  A    between atoms: N_1  and  C_7 
REMARK    2  A    between atoms: C_4  and  C_10 
REMARK    3  A    between atoms: C_10  and  O_11 
REMARK    4  A    between atoms: P_12  and  O_11 
REMARK    5  A    between atoms: P_12  and  O_14 
REMARK    6  A    between atoms: P_12  and  C_15 
REMARK    7  A    between atoms: C_15  and  C_16 
REMARK    8  A    between atoms: C_16  and  C_17 
REMARK    9  A    between atoms: C_17  and  C_18 
REMARK       I    between atoms: C_18  and  N_20 
REMARK   10  A    between atoms: N_20  and  C_21 
REMARK   11  A    between atoms: C_21  and  C_22 
REMARK   12  A    between atoms: C_22  and  O_24 
ROOT
HETATM    1  P   UNK N   1      34.100  18.047   8.000  0.00  0.00     0.238 P 
HETATM    2  O   UNK N   1      34.411  16.719   8.742  0.00  0.00    -0.653 OA
ENDROOT
BRANCH   1   3
HETATM    3  O   UNK N   1      34.522  17.729   6.344  0.00  0.00    -0.314 OA
BRANCH   3   4
HETATM    4  C   UNK N   1      34.146  16.398   6.146  0.00  0.00     0.216 C 
BRANCH   4   5
HETATM    5  C   UNK N   1      32.913  16.315   5.309  0.00  0.00    -0.034 A 
HETATM    6  C   UNK N   1      32.066  15.208   5.416  0.00  0.00     0.012 A 
HETATM    7  C   UNK N   1      30.885  15.157   4.668  0.00  0.00     0.037 A 
HETATM    8  C   UNK N   1      30.544  16.210   3.805  0.00  0.00     0.102 A 
HETATM    9  C   UNK N   1      31.405  17.314   3.696  0.00  0.00     0.037 A 
HETATM   10  C   UNK N   1      32.579  17.368   4.452  0.00  0.00     0.012 A 
BRANCH   8  11
HETATM   11  N   UNK N   1      29.331  16.165   3.062  0.00  0.00    -0.116 N 
HETATM   12  O   UNK N   1      28.511  17.023   3.192  0.00  0.00    -0.532 OA
HETATM   13  O   UNK N   1      29.091  15.158   2.249  0.00  0.00    -0.532 OA
ENDBRANCH   8  11
ENDBRANCH   4   5
ENDBRANCH   3   4
ENDBRANCH   1   3
BRANCH   1  14
HETATM   14  O   UNK N   1      35.282  19.150   8.634  0.00  0.00    -0.329 OA
HETATM   15  H   UNK N   1      35.737  19.767   8.040  0.00  0.00     0.220 HD
ENDBRANCH   1  14
BRANCH   1  16
HETATM   16  C   UNK N   1      32.333  18.555   8.301  0.00  0.00     0.126 C 
BRANCH  16  17
HETATM   17  C   UNK N   1      31.449  17.329   8.462  0.00  0.00     0.021 C 
BRANCH  17  18
HETATM   18  C   UNK N   1      30.090  17.512   7.817  0.00  0.00     0.103 C 
BRANCH  18  19
HETATM   19  C   UNK N   1      29.099  18.000   8.832  0.00  0.00     0.218 C 
HETATM   20  O   UNK N   1      29.236  17.681  10.001  0.00  0.00    -0.274 OA
HETATM   21  N   UNK N   1      28.055  18.792   8.480  0.00  0.00    -0.351 N 
HETATM   22  H   UNK N   1      27.416  19.055   9.180  0.00  0.00     0.163 HD
BRANCH  21  23
HETATM   23  C   UNK N   1      27.827  19.272   7.134  0.00  0.00     0.232 C 
BRANCH  23  24
HETATM   24  C   UNK N   1      27.120  20.591   7.125  0.00  0.00     0.158 C 
HETATM   25  O   UNK N   1      27.447  21.448   6.322  0.00  0.00    -0.649 OA
BRANCH  24  26
HETATM   26  O   UNK N   1      26.077  20.807   7.947  0.00  0.00    -0.775 OA
HETATM   27  H   UNK N   1      26.206  20.837   8.875  0.00  0.00     0.167 HD
ENDBRANCH  24  26
ENDBRANCH  23  24
ENDBRANCH  21  23
ENDBRANCH  18  19
ENDBRANCH  17  18
ENDBRANCH  16  17
ENDBRANCH   1  16
TORSDOF 12
ENDMDL
MODEL 6
REMARK VINA RESULT:      -6.4      8.358      9.120
REMARK  12 active torsions:
REMARK  status: ('A' for Active; 'I' for Inactive)
REMARK    1  A    between atoms: N_1  and  C_7 
REMARK    2  A    between atoms: C_4  and  C_10 
REMARK    3  A    between atoms: C_10  and  O_11 
REMARK    4  A    between atoms: P_12  and  O_11 
REMARK    5  A    between atoms: P_12  and  O_14 
REMARK    6  A    between atoms: P_12  and  C_15 
REMARK    7  A    between atoms: C_15  and  C_16 
REMARK    8  A    between atoms: C_16  and  C_17 
REMARK    9  A    between atoms: C_17  and  C_18 
REMARK       I    between atoms: C_18  and  N_20 
REMARK   10  A    between atoms: N_20  and  C_21 
REMARK   11  A    between atoms: C_21  and  C_22 
REMARK   12  A    between atoms: C_22  and  O_24 
ROOT
HETATM    1  P   UNK N   1      20.751  14.669   5.701  0.00  0.00     0.238 P 
HETATM    2  O   UNK N   1      21.226  15.931   6.468  0.00  0.00    -0.653 OA
ENDROOT
BRANCH   1   3
HETATM    3  O   UNK N   1      20.160  13.603   6.941  0.00  0.00    -0.314 OA
BRANCH   3   4
HETATM    4  C   UNK N   1      21.066  12.539   6.934  0.00  0.00     0.216 C 
BRANCH   4   5
HETATM    5  C   UNK N   1      21.766  12.432   8.248  0.00  0.00    -0.034 A 
HETATM    6  C   UNK N   1      21.138  12.874   9.416  0.00  0.00     0.012 A 
HETATM    7  C   UNK N   1      21.776  12.724  10.652  0.00  0.00     0.037 A 
HETATM    8  C   UNK N   1      23.047  12.136  10.729  0.00  0.00     0.102 A 
HETATM    9  C   UNK N   1      23.676  11.703   9.551  0.00  0.00     0.037 A 
HETATM   10  C   UNK N   1      23.032  11.843   8.318  0.00  0.00     0.012 A 
BRANCH   8  11
HETATM   11  N   UNK N   1      23.684  11.966  11.991  0.00  0.00    -0.116 N 
HETATM   12  O   UNK N   1      24.875  11.945  12.068  0.00  0.00    -0.532 OA
HETATM   13  O   UNK N   1      22.961  11.799  13.079  0.00  0.00    -0.532 OA
ENDBRANCH   8  11
ENDBRANCH   4   5
ENDBRANCH   3   4
ENDBRANCH   1   3
BRANCH   1  14
HETATM   14  O   UNK N   1      22.226  13.987   5.090  0.00  0.00    -0.329 OA
HETATM   15  H   UNK N   1      22.828  14.531   4.559  0.00  0.00     0.220 HD
ENDBRANCH   1  14
BRANCH   1  16
HETATM   16  C   UNK N   1      19.517  15.140   4.386  0.00  0.00     0.126 C 
BRANCH  16  17
HETATM   17  C   UNK N   1      19.575  16.635   4.118  0.00  0.00     0.021 C 
BRANCH  17  18
HETATM   18  C   UNK N   1      20.696  17.005   3.167  0.00  0.00     0.103 C 
BRANCH  18  19
HETATM   19  C   UNK N   1      20.136  17.359   1.822  0.00  0.00     0.218 C 
HETATM   20  O   UNK N   1      19.881  16.469   1.028  0.00  0.00    -0.274 OA
HETATM   21  N   UNK N   1      19.902  18.648   1.468  0.00  0.00    -0.351 N 
HETATM   22  H   UNK N   1      19.567  18.826   0.560  0.00  0.00     0.163 HD
BRANCH  21  23
HETATM   23  C   UNK N   1      20.119  19.776   2.348  0.00  0.00     0.232 C 
BRANCH  23  24
HETATM   24  C   UNK N   1      21.154  20.713   1.808  0.00  0.00     0.158 C 
HETATM   25  O   UNK N   1      21.439  20.685   0.623  0.00  0.00    -0.649 OA
BRANCH  24  26
HETATM   26  O   UNK N   1      21.716  21.637   2.609  0.00  0.00    -0.775 OA
HETATM   27  H   UNK N   1      22.553  21.476   3.000  0.00  0.00     0.167 HD
ENDBRANCH  24  26
ENDBRANCH  23  24
ENDBRANCH  21  23
ENDBRANCH  18  19
ENDBRANCH  17  18
ENDBRANCH  16  17
ENDBRANCH   1  16
TORSDOF 12
ENDMDL
MODEL 7
REMARK VINA RESULT:      -6.4      1.555     10.301
REMARK  12 active torsions:
REMARK  status: ('A' for Active; 'I' for Inactive)
REMARK    1  A    between atoms: N_1  and  C_7 
REMARK    2  A    between atoms: C_4  and  C_10 
REMARK    3  A    between atoms: C_10  and  O_11 
REMARK    4  A    between atoms: P_12  and  O_11 
REMARK    5  A    between atoms: P_12  and  O_14 
REMARK    6  A    between atoms: P_12  and  C_15 
REMARK    7  A    between atoms: C_15  and  C_16 
REMARK    8  A    between atoms: C_16  and  C_17 
REMARK    9  A    between atoms: C_17  and  C_18 
REMARK       I    between atoms: C_18  and  N_20 
REMARK   10  A    between atoms: N_20  and  C_21 
REMARK   11  A    between atoms: C_21  and  C_22 
REMARK   12  A    between atoms: C_22  and  O_24 
ROOT
HETATM    1  P   UNK N   1      27.883  17.448   6.232  0.00  0.00     0.238 P 
HETATM    2  O   UNK N   1      28.455  18.850   5.892  0.00  0.00    -0.653 OA
ENDROOT
BRANCH   1   3
HETATM    3  O   UNK N   1      26.402  17.351   5.326  0.00  0.00    -0.314 OA
BRANCH   3   4
HETATM    4  C   UNK N   1      26.556  18.306   4.318  0.00  0.00     0.216 C 
BRANCH   4   5
HETATM    5  C   UNK N   1      25.233  18.860   3.907  0.00  0.00    -0.034 A 
HETATM    6  C   UNK N   1      24.056  18.181   4.234  0.00  0.00     0.012 A 
HETATM    7  C   UNK N   1      22.815  18.729   3.893  0.00  0.00     0.037 A 
HETATM    8  C   UNK N   1      22.741  19.958   3.220  0.00  0.00     0.102 A 
HETATM    9  C   UNK N   1      23.928  20.630   2.887  0.00  0.00     0.037 A 
HETATM   10  C   UNK N   1      25.167  20.086   3.238  0.00  0.00     0.012 A 
BRANCH   8  11
HETATM   11  N   UNK N   1      21.477  20.523   2.894  0.00  0.00    -0.116 N 
HETATM   12  O   UNK N   1      21.291  21.009   1.819  0.00  0.00    -0.532 OA
HETATM   13  O   UNK N   1      20.510  20.542   3.788  0.00  0.00    -0.532 OA
ENDBRANCH   8  11
ENDBRANCH   4   5
ENDBRANCH   3   4
ENDBRANCH   1   3
BRANCH   1  14
HETATM   14  O   UNK N   1      27.457  17.581   7.909  0.00  0.00    -0.329 OA
HETATM   15  H   UNK N   1      26.524  17.631   8.170  0.00  0.00     0.220 HD
ENDBRANCH   1  14
BRANCH   1  16
HETATM   16  C   UNK N   1      29.146  16.129   5.859  0.00  0.00     0.126 C 
BRANCH  16  17
HETATM   17  C   UNK N   1      30.552  16.684   6.013  0.00  0.00     0.021 C 
BRANCH  17  18
HETATM   18  C   UNK N   1      31.268  16.109   7.218  0.00  0.00     0.103 C 
BRANCH  18  19
HETATM   19  C   UNK N   1      31.207  17.075   8.364  0.00  0.00     0.218 C 
HETATM   20  O   UNK N   1      30.250  17.046   9.119  0.00  0.00    -0.274 OA
HETATM   21  N   UNK N   1      32.196  17.978   8.583  0.00  0.00    -0.351 N 
HETATM   22  H   UNK N   1      32.089  18.611   9.329  0.00  0.00     0.163 HD
BRANCH  21  23
HETATM   23  C   UNK N   1      33.398  18.065   7.783  0.00  0.00     0.232 C 
BRANCH  23  24
HETATM   24  C   UNK N   1      34.618  18.256   8.629  0.00  0.00     0.158 C 
HETATM   25  O   UNK N   1      35.332  19.229   8.453  0.00  0.00    -0.649 OA
BRANCH  24  26
HETATM   26  O   UNK N   1      34.890  17.400   9.631  0.00  0.00    -0.775 OA
HETATM   27  H   UNK N   1      34.305  16.693   9.819  0.00  0.00     0.167 HD
ENDBRANCH  24  26
ENDBRANCH  23  24
ENDBRANCH  21  23
ENDBRANCH  18  19
ENDBRANCH  17  18
ENDBRANCH  16  17
ENDBRANCH   1  16
TORSDOF 12
ENDMDL
MODEL 8
REMARK VINA RESULT:      -6.2     12.178     15.068
REMARK  12 active torsions:
REMARK  status: ('A' for Active; 'I' for Inactive)
REMARK    1  A    between atoms: N_1  and  C_7 
REMARK    2  A    between atoms: C_4  and  C_10 
REMARK    3  A    between atoms: C_10  and  O_11 
REMARK    4  A    between atoms: P_12  and  O_11 
REMARK    5  A    between atoms: P_12  and  O_14 
REMARK    6  A    between atoms: P_12  and  C_15 
REMARK    7  A    between atoms: C_15  and  C_16 
REMARK    8  A    between atoms: C_16  and  C_17 
REMARK    9  A    between atoms: C_17  and  C_18 
REMARK       I    between atoms: C_18  and  N_20 
REMARK   10  A    between atoms: N_20  and  C_21 
REMARK   11  A    between atoms: C_21  and  C_22 
REMARK   12  A    between atoms: C_22  and  O_24 
ROOT
HETATM    1  P   UNK N   1      26.115  23.507  -8.661  0.00  0.00     0.238 P 
HETATM    2  O   UNK N   1      25.557  22.732  -9.884  0.00  0.00    -0.653 OA
ENDROOT
BRANCH   1   3
HETATM    3  O   UNK N   1      25.054  24.875  -8.493  0.00  0.00    -0.314 OA
BRANCH   3   4
HETATM    4  C   UNK N   1      25.896  25.979  -8.648  0.00  0.00     0.216 C 
BRANCH   4   5
HETATM    5  C   UNK N   1      26.050  26.713  -7.358  0.00  0.00    -0.034 A 
HETATM    6  C   UNK N   1      27.183  27.498  -7.128  0.00  0.00     0.012 A 
HETATM    7  C   UNK N   1      27.300  28.227  -5.940  0.00  0.00     0.037 A 
HETATM    8  C   UNK N   1      26.286  28.172  -4.970  0.00  0.00     0.102 A 
HETATM    9  C   UNK N   1      25.156  27.373  -5.204  0.00  0.00     0.037 A 
HETATM   10  C   UNK N   1      25.036  26.655  -6.397  0.00  0.00     0.012 A 
BRANCH   8  11
HETATM   11  N   UNK N   1      26.399  28.931  -3.772  0.00  0.00    -0.116 N 
HETATM   12  O   UNK N   1      26.160  30.101  -3.773  0.00  0.00    -0.532 OA
HETATM   13  O   UNK N   1      26.798  28.354  -2.658  0.00  0.00    -0.532 OA
ENDBRANCH   8  11
ENDBRANCH   4   5
ENDBRANCH   3   4
ENDBRANCH   1   3
BRANCH   1  14
HETATM   14  O   UNK N   1      27.645  24.103  -9.224  0.00  0.00    -0.329 OA
HETATM   15  H   UNK N   1      27.686  24.926  -9.736  0.00  0.00     0.220 HD
ENDBRANCH   1  14
BRANCH   1  16
HETATM   16  C   UNK N   1      26.223  22.382  -7.180  0.00  0.00     0.126 C 
BRANCH  16  17
HETATM   17  C   UNK N   1      26.044  23.177  -5.897  0.00  0.00     0.021 C 
BRANCH  17  18
HETATM   18  C   UNK N   1      27.331  23.838  -5.446  0.00  0.00     0.103 C 
BRANCH  18  19
HETATM   19  C   UNK N   1      27.121  24.538  -4.137  0.00  0.00     0.218 C 
HETATM   20  O   UNK N   1      26.117  24.299  -3.486  0.00  0.00    -0.274 OA
HETATM   21  N   UNK N   1      28.024  25.429  -3.656  0.00  0.00    -0.351 N 
HETATM   22  H   UNK N   1      27.820  25.885  -2.809  0.00  0.00     0.163 HD
BRANCH  21  23
HETATM   23  C   UNK N   1      29.271  25.748  -4.318  0.00  0.00     0.232 C 
BRANCH  23  24
HETATM   24  C   UNK N   1      30.077  26.740  -3.540  0.00  0.00     0.158 C 
HETATM   25  O   UNK N   1      31.135  26.400  -3.037  0.00  0.00    -0.649 OA
BRANCH  24  26
HETATM   26  O   UNK N   1      29.679  28.022  -3.457  0.00  0.00    -0.775 OA
HETATM   27  H   UNK N   1      30.293  28.694  -3.232  0.00  0.00     0.167 HD
ENDBRANCH  24  26
ENDBRANCH  23  24
ENDBRANCH  21  23
ENDBRANCH  18  19
ENDBRANCH  17  18
ENDBRANCH  16  17
ENDBRANCH   1  16
TORSDOF 12
ENDMDL
MODEL 9
REMARK VINA RESULT:      -6.1      8.388     12.664
REMARK  12 active torsions:
REMARK  status: ('A' for Active; 'I' for Inactive)
REMARK    1  A    between atoms: N_1  and  C_7 
REMARK    2  A    between atoms: C_4  and  C_10 
REMARK    3  A    between atoms: C_10  and  O_11 
REMARK    4  A    between atoms: P_12  and  O_11 
REMARK    5  A    between atoms: P_12  and  O_14 
REMARK    6  A    between atoms: P_12  and  C_15 
REMARK    7  A    between atoms: C_15  and  C_16 
REMARK    8  A    between atoms: C_16  and  C_17 
REMARK    9  A    between atoms: C_17  and  C_18 
REMARK       I    between atoms: C_18  and  N_20 
REMARK   10  A    between atoms: N_20  and  C_21 
REMARK   11  A    between atoms: C_21  and  C_22 
REMARK   12  A    between atoms: C_22  and  O_24 
ROOT
HETATM    1  P   UNK N   1      35.380  12.838  12.417  0.00  0.00     0.238 P 
HETATM    2  O   UNK N   1      36.432  11.720  12.648  0.00  0.00    -0.653 OA
ENDROOT
BRANCH   1   3
HETATM    3  O   UNK N   1      34.538  12.962  13.933  0.00  0.00    -0.314 OA
BRANCH   3   4
HETATM    4  C   UNK N   1      34.336  11.635  14.320  0.00  0.00     0.216 C 
BRANCH   4   5
HETATM    5  C   UNK N   1      34.682  11.445  15.759  0.00  0.00    -0.034 A 
HETATM    6  C   UNK N   1      34.960  12.552  16.566  0.00  0.00     0.012 A 
HETATM    7  C   UNK N   1      35.232  12.375  17.927  0.00  0.00     0.037 A 
HETATM    8  C   UNK N   1      35.231  11.089  18.490  0.00  0.00     0.102 A 
HETATM    9  C   UNK N   1      34.960   9.982  17.672  0.00  0.00     0.037 A 
HETATM   10  C   UNK N   1      34.678  10.162  16.315  0.00  0.00     0.012 A 
BRANCH   8  11
HETATM   11  N   UNK N   1      35.487  10.915  19.879  0.00  0.00    -0.116 N 
HETATM   12  O   UNK N   1      36.607  10.920  20.292  0.00  0.00    -0.532 OA
HETATM   13  O   UNK N   1      34.490  10.715  20.715  0.00  0.00    -0.532 OA
ENDBRANCH   8  11
ENDBRANCH   4   5
ENDBRANCH   3   4
ENDBRANCH   1   3
BRANCH   1  14
HETATM   14  O   UNK N   1      34.285  12.132  11.271  0.00  0.00    -0.329 OA
HETATM   15  H   UNK N   1      34.175  11.169  11.234  0.00  0.00     0.220 HD
ENDBRANCH   1  14
BRANCH   1  16
HETATM   16  C   UNK N   1      36.215  14.396  11.828  0.00  0.00     0.126 C 
BRANCH  16  17
HETATM   17  C   UNK N   1      35.182  15.470  11.527  0.00  0.00     0.021 C 
BRANCH  17  18
HETATM   18  C   UNK N   1      35.307  16.008  10.116  0.00  0.00     0.103 C 
BRANCH  18  19
HETATM   19  C   UNK N   1      34.236  15.425   9.244  0.00  0.00     0.218 C 
HETATM   20  O   UNK N   1      34.153  14.214   9.130  0.00  0.00    -0.274 OA
HETATM   21  N   UNK N   1      33.353  16.214   8.582  0.00  0.00    -0.351 N 
HETATM   22  H   UNK N   1      32.691  15.781   7.997  0.00  0.00     0.163 HD
BRANCH  21  23
HETATM   23  C   UNK N   1      33.327  17.658   8.687  0.00  0.00     0.232 C 
BRANCH  23  24
HETATM   24  C   UNK N   1      34.410  18.295   7.875  0.00  0.00     0.158 C 
HETATM   25  O   UNK N   1      34.496  18.052   6.683  0.00  0.00    -0.649 OA
BRANCH  24  26
HETATM   26  O   UNK N   1      35.242  19.191   8.436  0.00  0.00    -0.775 OA
HETATM   27  H   UNK N   1      36.050  18.910   8.818  0.00  0.00     0.167 HD
ENDBRANCH  24  26
ENDBRANCH  23  24
ENDBRANCH  21  23
ENDBRANCH  18  19
ENDBRANCH  17  18
ENDBRANCH  16  17
ENDBRANCH   1  16
TORSDOF 12
ENDMDL
