REMARK  12 active torsions:
REMARK  status: ('A' for Active; 'I' for Inactive)
REMARK    1  A    between atoms: N_1  and  C_7 
REMARK    2  A    between atoms: C_4  and  C_10 
REMARK    3  A    between atoms: C_10  and  O_11 
REMARK    4  A    between atoms: P_12  and  O_11 
REMARK    5  A    between atoms: P_12  and  O_14 
REMARK    6  A    between atoms: P_12  and  C_15 
REMARK    7  A    between atoms: C_15  and  C_16 
REMARK    8  A    between atoms: C_16  and  C_17 
REMARK    9  A    between atoms: C_17  and  C_18 
REMARK       I    between atoms: C_18  and  N_20 
REMARK   10  A    between atoms: N_20  and  C_21 
REMARK   11  A    between atoms: C_21  and  C_22 
REMARK   12  A    between atoms: C_22  and  O_24 
ROOT
HETATM    1  P   UNK N   1       0.302  -1.296  -0.274  0.00  0.00     0.238 P 
HETATM    2  O   UNK N   1       0.870  -1.586  -1.689  0.00  0.00    -0.653 OA
ENDROOT
BRANCH   1   3
HETATM    3  O   UNK N   1      -1.233  -2.112  -0.246  0.00  0.00    -0.314 OA
BRANCH   3   4
HETATM    4  C   UNK N   1      -1.850  -1.637   0.914  0.00  0.00     0.216 C 
BRANCH   4   5
HETATM    5  C   UNK N   1      -3.007  -0.757   0.576  0.00  0.00    -0.034 A 
HETATM    6  C   UNK N   1      -4.247  -1.319   0.260  0.00  0.00     0.012 A 
HETATM    7  C   UNK N   1      -5.343  -0.491  -0.005  0.00  0.00     0.037 A 
HETATM    8  C   UNK N   1      -5.206   0.905   0.040  0.00  0.00     0.102 A 
HETATM    9  C   UNK N   1      -3.955   1.462   0.349  0.00  0.00     0.037 A 
HETATM   10  C   UNK N   1      -2.864   0.633   0.624  0.00  0.00     0.012 A 
BRANCH   8  11
HETATM   11  N   UNK N   1      -6.328   1.744  -0.209  0.00  0.00    -0.116 N 
HETATM   12  O   UNK N   1      -6.213   2.932  -0.176  0.00  0.00    -0.532 OA
HETATM   13  O   UNK N   1      -7.510   1.215  -0.447  0.00  0.00    -0.532 OA
ENDBRANCH   8  11
ENDBRANCH   4   5
ENDBRANCH   3   4
ENDBRANCH   1   3
BRANCH   1  14
HETATM   14  O   UNK N   1      -0.018   0.410  -0.309  0.00  0.00    -0.329 OA
HETATM   15  H   UNK N   1       0.718   1.041  -0.329  0.00  0.00     0.220 HD
ENDBRANCH   1  14
BRANCH   1  16
HETATM   16  C   UNK N   1       1.522  -1.825   1.031  0.00  0.00     0.126 C 
BRANCH  16  17
HETATM   17  C   UNK N   1       2.539  -0.724   1.283  0.00  0.00     0.021 C 
BRANCH  17  18
HETATM   18  C   UNK N   1       3.440  -0.490   0.087  0.00  0.00     0.103 C 
BRANCH  18  19
HETATM   19  C   UNK N   1       3.512   0.975  -0.226  0.00  0.00     0.218 C 
HETATM   20  O   UNK N   1       2.579   1.509  -0.802  0.00  0.00    -0.274 OA
HETATM   21  N   UNK N   1       4.590   1.722   0.121  0.00  0.00    -0.351 N 
HETATM   22  H   UNK N   1       4.600   2.671  -0.139  0.00  0.00     0.163 HD
BRANCH  21  23
HETATM   23  C   UNK N   1       5.727   1.204   0.851  0.00  0.00     0.232 C 
BRANCH  23  24
HETATM   24  C   UNK N   1       6.563   0.293   0.008  0.00  0.00     0.158 C 
HETATM   25  O   UNK N   1       7.576   0.717  -0.522  0.00  0.00    -0.649 OA
BRANCH  24  26
HETATM   26  O   UNK N   1       6.243  -1.009  -0.107  0.00  0.00    -0.775 OA
HETATM   27  H   UNK N   1       5.346  -1.269  -0.188  0.00  0.00     0.167 HD
ENDBRANCH  24  26
ENDBRANCH  23  24
ENDBRANCH  21  23
ENDBRANCH  18  19
ENDBRANCH  17  18
ENDBRANCH  16  17
ENDBRANCH   1  16
TORSDOF 12
