MODEL 1
REMARK VINA RESULT:      -6.9      0.000      0.000
REMARK  10 active torsions:
REMARK  status: ('A' for Active; 'I' for Inactive)
REMARK    1  A    between atoms: C_1  and  C_7 
REMARK    2  A    between atoms: C_4  and  N_15 
REMARK    3  A    between atoms: C_7  and  N_17 
REMARK    4  A    between atoms: C_8  and  C_9 
REMARK    5  A    between atoms: C_8  and  C_14 
REMARK    6  A    between atoms: C_9  and  C_10 
REMARK    7  A    between atoms: C_10  and  C_11 
REMARK       I    between atoms: C_11  and  N_16 
REMARK    8  A    between atoms: C_12  and  C_13 
REMARK    9  A    between atoms: C_12  and  N_16 
REMARK   10  A    between atoms: C_13  and  O_23 
REMARK       I    between atoms: C_14  and  N_17 
ROOT
HETATM    1  C   UNK N   1      28.288  18.574   5.338  0.00  0.00     0.217 C 
HETATM    2  N   UNK N   1      29.391  18.050   4.776  0.00  0.00    -0.357 N 
HETATM    3  O   UNK N   1      27.695  17.990   6.232  0.00  0.00    -0.274 OA
HETATM    4  H   UNK N   1      29.801  18.560   4.041  0.00  0.00     0.162 HD
ENDROOT
BRANCH   1   5
HETATM    5  C   UNK N   1      27.862  19.934   4.903  0.00  0.00     0.103 C 
BRANCH   5   6
HETATM    6  C   UNK N   1      26.981  19.898   3.679  0.00  0.00     0.018 C 
BRANCH   6   7
HETATM    7  C   UNK N   1      25.539  19.906   4.153  0.00  0.00     0.103 C 
BRANCH   7   8
HETATM    8  C   UNK N   1      24.578  20.276   3.054  0.00  0.00     0.218 C 
HETATM    9  N   UNK N   1      23.308  19.813   3.070  0.00  0.00    -0.351 N 
HETATM   10  H   UNK N   1      22.696  20.074   2.345  0.00  0.00     0.163 HD
HETATM   11  O   UNK N   1      24.937  21.001   2.139  0.00  0.00    -0.274 OA
BRANCH   9  12
HETATM   12  C   UNK N   1      22.820  18.948   4.119  0.00  0.00     0.232 C 
BRANCH  12  13
HETATM   13  C   UNK N   1      21.325  18.971   4.185  0.00  0.00     0.158 C 
HETATM   14  O   UNK N   1      20.687  17.934   4.280  0.00  0.00    -0.649 OA
BRANCH  13  15
HETATM   15  O   UNK N   1      20.679  20.150   4.136  0.00  0.00    -0.775 OA
HETATM   16  H   UNK N   1      21.075  20.917   4.499  0.00  0.00     0.167 HD
ENDBRANCH  13  15
ENDBRANCH  12  13
ENDBRANCH   9  12
ENDBRANCH   7   8
ENDBRANCH   6   7
ENDBRANCH   5   6
ENDBRANCH   1   5
BRANCH   2  17
HETATM   17  C   UNK N   1      30.032  16.809   5.147  0.00  0.00     0.161 C 
BRANCH  17  18
HETATM   18  C   UNK N   1      31.163  17.144   6.083  0.00  0.00    -0.040 A 
HETATM   19  C   UNK N   1      32.449  17.338   5.558  0.00  0.00     0.011 A 
HETATM   20  C   UNK N   1      33.518  17.645   6.379  0.00  0.00     0.037 A 
HETATM   21  C   UNK N   1      33.334  17.771   7.753  0.00  0.00     0.102 A 
HETATM   22  C   UNK N   1      32.047  17.586   8.300  0.00  0.00     0.037 A 
HETATM   23  C   UNK N   1      30.961  17.270   7.464  0.00  0.00     0.011 A 
BRANCH  21  24
HETATM   24  N   UNK N   1      34.451  18.082   8.573  0.00  0.00    -0.116 N 
HETATM   25  O   UNK N   1      34.723  17.403   9.513  0.00  0.00    -0.532 OA
HETATM   26  O   UNK N   1      35.201  19.130   8.290  0.00  0.00    -0.532 OA
ENDBRANCH  21  24
ENDBRANCH  17  18
ENDBRANCH   2  17
TORSDOF 10
ENDMDL
MODEL 2
REMARK VINA RESULT:      -6.7     10.834     13.008
REMARK  10 active torsions:
REMARK  status: ('A' for Active; 'I' for Inactive)
REMARK    1  A    between atoms: C_1  and  C_7 
REMARK    2  A    between atoms: C_4  and  N_15 
REMARK    3  A    between atoms: C_7  and  N_17 
REMARK    4  A    between atoms: C_8  and  C_9 
REMARK    5  A    between atoms: C_8  and  C_14 
REMARK    6  A    between atoms: C_9  and  C_10 
REMARK    7  A    between atoms: C_10  and  C_11 
REMARK       I    between atoms: C_11  and  N_16 
REMARK    8  A    between atoms: C_12  and  C_13 
REMARK    9  A    between atoms: C_12  and  N_16 
REMARK   10  A    between atoms: C_13  and  O_23 
REMARK       I    between atoms: C_14  and  N_17 
ROOT
HETATM    1  C   UNK N   1      26.132  24.587  -7.353  0.00  0.00     0.217 C 
HETATM    2  N   UNK N   1      27.415  24.201  -7.461  0.00  0.00    -0.357 N 
HETATM    3  O   UNK N   1      25.235  23.771  -7.212  0.00  0.00    -0.274 OA
HETATM    4  H   UNK N   1      28.083  24.911  -7.602  0.00  0.00     0.162 HD
ENDROOT
BRANCH   1   5
HETATM    5  C   UNK N   1      25.843  26.049  -7.316  0.00  0.00     0.103 C 
BRANCH   5   6
HETATM    6  C   UNK N   1      25.356  26.506  -5.965  0.00  0.00     0.018 C 
BRANCH   6   7
HETATM    7  C   UNK N   1      26.573  26.912  -5.153  0.00  0.00     0.103 C 
BRANCH   7   8
HETATM    8  C   UNK N   1      26.353  26.749  -3.672  0.00  0.00     0.218 C 
HETATM    9  N   UNK N   1      26.253  27.832  -2.870  0.00  0.00    -0.351 N 
HETATM   10  H   UNK N   1      26.102  27.700  -1.907  0.00  0.00     0.163 HD
HETATM   11  O   UNK N   1      26.261  25.633  -3.182  0.00  0.00    -0.274 OA
BRANCH   9  12
HETATM   12  C   UNK N   1      26.358  29.178  -3.384  0.00  0.00     0.232 C 
BRANCH  12  13
HETATM   13  C   UNK N   1      27.587  29.857  -2.866  0.00  0.00     0.158 C 
HETATM   14  O   UNK N   1      27.506  30.884  -2.209  0.00  0.00    -0.649 OA
BRANCH  13  15
HETATM   15  O   UNK N   1      28.796  29.330  -3.132  0.00  0.00    -0.775 OA
HETATM   16  H   UNK N   1      29.393  29.785  -3.693  0.00  0.00     0.167 HD
ENDBRANCH  13  15
ENDBRANCH  12  13
ENDBRANCH   9  12
ENDBRANCH   7   8
ENDBRANCH   6   7
ENDBRANCH   5   6
ENDBRANCH   1   5
BRANCH   2  17
HETATM   17  C   UNK N   1      27.908  22.844  -7.390  0.00  0.00     0.161 C 
BRANCH  17  18
HETATM   18  C   UNK N   1      28.685  22.710  -6.108  0.00  0.00    -0.040 A 
HETATM   19  C   UNK N   1      28.469  23.638  -5.078  0.00  0.00     0.011 A 
HETATM   20  C   UNK N   1      29.161  23.556  -3.885  0.00  0.00     0.037 A 
HETATM   21  C   UNK N   1      30.091  22.541  -3.681  0.00  0.00     0.102 A 
HETATM   22  C   UNK N   1      30.319  21.595  -4.702  0.00  0.00     0.037 A 
HETATM   23  C   UNK N   1      29.616  21.681  -5.917  0.00  0.00     0.011 A 
BRANCH  21  24
HETATM   24  N   UNK N   1      30.792  22.483  -2.447  0.00  0.00    -0.116 N 
HETATM   25  O   UNK N   1      31.813  21.877  -2.355  0.00  0.00    -0.532 OA
HETATM   26  O   UNK N   1      30.312  23.112  -1.391  0.00  0.00    -0.532 OA
ENDBRANCH  21  24
ENDBRANCH  17  18
ENDBRANCH   2  17
TORSDOF 10
ENDMDL
MODEL 3
REMARK VINA RESULT:      -6.6      2.294     10.235
REMARK  10 active torsions:
REMARK  status: ('A' for Active; 'I' for Inactive)
REMARK    1  A    between atoms: C_1  and  C_7 
REMARK    2  A    between atoms: C_4  and  N_15 
REMARK    3  A    between atoms: C_7  and  N_17 
REMARK    4  A    between atoms: C_8  and  C_9 
REMARK    5  A    between atoms: C_8  and  C_14 
REMARK    6  A    between atoms: C_9  and  C_10 
REMARK    7  A    between atoms: C_10  and  C_11 
REMARK       I    between atoms: C_11  and  N_16 
REMARK    8  A    between atoms: C_12  and  C_13 
REMARK    9  A    between atoms: C_12  and  N_16 
REMARK   10  A    between atoms: C_13  and  O_23 
REMARK       I    between atoms: C_14  and  N_17 
ROOT
HETATM    1  C   UNK N   1      30.947  17.545   7.353  0.00  0.00     0.217 C 
HETATM    2  N   UNK N   1      29.733  17.647   6.787  0.00  0.00    -0.357 N 
HETATM    3  O   UNK N   1      31.160  17.969   8.478  0.00  0.00    -0.274 OA
HETATM    4  H   UNK N   1      29.641  17.310   5.867  0.00  0.00     0.162 HD
ENDROOT
BRANCH   1   5
HETATM    5  C   UNK N   1      32.007  16.813   6.604  0.00  0.00     0.103 C 
BRANCH   5   6
HETATM    6  C   UNK N   1      33.275  17.618   6.464  0.00  0.00     0.018 C 
BRANCH   6   7
HETATM    7  C   UNK N   1      34.316  16.995   7.376  0.00  0.00     0.103 C 
BRANCH   7   8
HETATM    8  C   UNK N   1      34.710  17.910   8.504  0.00  0.00     0.218 C 
HETATM    9  N   UNK N   1      34.879  17.423   9.755  0.00  0.00    -0.351 N 
HETATM   10  H   UNK N   1      35.144  18.039  10.474  0.00  0.00     0.163 HD
HETATM   11  O   UNK N   1      34.886  19.102   8.299  0.00  0.00    -0.274 OA
BRANCH   9  12
HETATM   12  C   UNK N   1      34.682  16.026  10.066  0.00  0.00     0.232 C 
BRANCH  12  13
HETATM   13  C   UNK N   1      35.977  15.368  10.427  0.00  0.00     0.158 C 
HETATM   14  O   UNK N   1      36.110  14.158  10.336  0.00  0.00    -0.649 OA
BRANCH  13  15
HETATM   15  O   UNK N   1      37.004  16.121  10.860  0.00  0.00    -0.775 OA
HETATM   16  H   UNK N   1      37.044  16.389  11.757  0.00  0.00     0.167 HD
ENDBRANCH  13  15
ENDBRANCH  12  13
ENDBRANCH   9  12
ENDBRANCH   7   8
ENDBRANCH   6   7
ENDBRANCH   5   6
ENDBRANCH   1   5
BRANCH   2  17
HETATM   17  C   UNK N   1      28.548  18.204   7.401  0.00  0.00     0.161 C 
BRANCH  17  18
HETATM   18  C   UNK N   1      27.691  18.771   6.300  0.00  0.00    -0.040 A 
HETATM   19  C   UNK N   1      27.437  20.151   6.275  0.00  0.00     0.011 A 
HETATM   20  C   UNK N   1      26.654  20.716   5.286  0.00  0.00     0.037 A 
HETATM   21  C   UNK N   1      26.102  19.919   4.287  0.00  0.00     0.102 A 
HETATM   22  C   UNK N   1      26.350  18.531   4.292  0.00  0.00     0.037 A 
HETATM   23  C   UNK N   1      27.144  17.957   5.301  0.00  0.00     0.011 A 
BRANCH  21  24
HETATM   24  N   UNK N   1      25.297  20.525   3.286  0.00  0.00    -0.116 N 
HETATM   25  O   UNK N   1      25.777  20.889   2.258  0.00  0.00    -0.532 OA
HETATM   26  O   UNK N   1      24.003  20.680   3.490  0.00  0.00    -0.532 OA
ENDBRANCH  21  24
ENDBRANCH  17  18
ENDBRANCH   2  17
TORSDOF 10
ENDMDL
MODEL 4
REMARK VINA RESULT:      -6.6     10.784     14.953
REMARK  10 active torsions:
REMARK  status: ('A' for Active; 'I' for Inactive)
REMARK    1  A    between atoms: C_1  and  C_7 
REMARK    2  A    between atoms: C_4  and  N_15 
REMARK    3  A    between atoms: C_7  and  N_17 
REMARK    4  A    between atoms: C_8  and  C_9 
REMARK    5  A    between atoms: C_8  and  C_14 
REMARK    6  A    between atoms: C_9  and  C_10 
REMARK    7  A    between atoms: C_10  and  C_11 
REMARK       I    between atoms: C_11  and  N_16 
REMARK    8  A    between atoms: C_12  and  C_13 
REMARK    9  A    between atoms: C_12  and  N_16 
REMARK   10  A    between atoms: C_13  and  O_23 
REMARK       I    between atoms: C_14  and  N_17 
ROOT
HETATM    1  C   UNK N   1      26.157  23.563  -8.081  0.00  0.00     0.217 C 
HETATM    2  N   UNK N   1      26.700  24.782  -8.235  0.00  0.00    -0.357 N 
HETATM    3  O   UNK N   1      24.945  23.407  -8.065  0.00  0.00    -0.274 OA
HETATM    4  H   UNK N   1      27.683  24.838  -8.209  0.00  0.00     0.162 HD
ENDROOT
BRANCH   1   5
HETATM    5  C   UNK N   1      27.075  22.392  -8.021  0.00  0.00     0.103 C 
BRANCH   5   6
HETATM    6  C   UNK N   1      28.492  22.786  -7.686  0.00  0.00     0.018 C 
BRANCH   6   7
HETATM    7  C   UNK N   1      28.749  22.389  -6.244  0.00  0.00     0.103 C 
BRANCH   7   8
HETATM    8  C   UNK N   1      28.879  23.583  -5.336  0.00  0.00     0.218 C 
HETATM    9  N   UNK N   1      29.517  23.476  -4.149  0.00  0.00    -0.351 N 
HETATM   10  H   UNK N   1      29.596  24.272  -3.577  0.00  0.00     0.163 HD
HETATM   11  O   UNK N   1      28.412  24.663  -5.667  0.00  0.00    -0.274 OA
BRANCH   9  12
HETATM   12  C   UNK N   1      30.087  22.229  -3.696  0.00  0.00     0.232 C 
BRANCH  12  13
HETATM   13  C   UNK N   1      30.867  22.421  -2.433  0.00  0.00     0.158 C 
HETATM   14  O   UNK N   1      30.413  23.080  -1.511  0.00  0.00    -0.649 OA
BRANCH  13  15
HETATM   15  O   UNK N   1      32.085  21.861  -2.315  0.00  0.00    -0.775 OA
HETATM   16  H   UNK N   1      32.165  20.963  -2.060  0.00  0.00     0.167 HD
ENDBRANCH  13  15
ENDBRANCH  12  13
ENDBRANCH   9  12
ENDBRANCH   7   8
ENDBRANCH   6   7
ENDBRANCH   5   6
ENDBRANCH   1   5
BRANCH   2  17
HETATM   17  C   UNK N   1      25.980  26.020  -8.438  0.00  0.00     0.161 C 
BRANCH  17  18
HETATM   18  C   UNK N   1      26.062  26.807  -7.157  0.00  0.00    -0.040 A 
HETATM   19  C   UNK N   1      27.136  27.690  -6.966  0.00  0.00     0.011 A 
HETATM   20  C   UNK N   1      27.254  28.431  -5.806  0.00  0.00     0.037 A 
HETATM   21  C   UNK N   1      26.300  28.316  -4.798  0.00  0.00     0.102 A 
HETATM   22  C   UNK N   1      25.211  27.438  -4.973  0.00  0.00     0.037 A 
HETATM   23  C   UNK N   1      25.093  26.681  -6.153  0.00  0.00     0.011 A 
BRANCH  21  24
HETATM   24  N   UNK N   1      26.449  29.086  -3.614  0.00  0.00    -0.116 N 
HETATM   25  O   UNK N   1      26.659  28.558  -2.568  0.00  0.00    -0.532 OA
HETATM   26  O   UNK N   1      26.363  30.401  -3.673  0.00  0.00    -0.532 OA
ENDBRANCH  21  24
ENDBRANCH  17  18
ENDBRANCH   2  17
TORSDOF 10
ENDMDL
MODEL 5
REMARK VINA RESULT:      -6.6     10.809     13.004
REMARK  10 active torsions:
REMARK  status: ('A' for Active; 'I' for Inactive)
REMARK    1  A    between atoms: C_1  and  C_7 
REMARK    2  A    between atoms: C_4  and  N_15 
REMARK    3  A    between atoms: C_7  and  N_17 
REMARK    4  A    between atoms: C_8  and  C_9 
REMARK    5  A    between atoms: C_8  and  C_14 
REMARK    6  A    between atoms: C_9  and  C_10 
REMARK    7  A    between atoms: C_10  and  C_11 
REMARK       I    between atoms: C_11  and  N_16 
REMARK    8  A    between atoms: C_12  and  C_13 
REMARK    9  A    between atoms: C_12  and  N_16 
REMARK   10  A    between atoms: C_13  and  O_23 
REMARK       I    between atoms: C_14  and  N_17 
ROOT
HETATM    1  C   UNK N   1      26.152  24.747  -7.246  0.00  0.00     0.217 C 
HETATM    2  N   UNK N   1      27.407  24.272  -7.328  0.00  0.00    -0.357 N 
HETATM    3  O   UNK N   1      25.198  23.996  -7.119  0.00  0.00    -0.274 OA
HETATM    4  H   UNK N   1      28.125  24.932  -7.459  0.00  0.00     0.162 HD
ENDROOT
BRANCH   1   5
HETATM    5  C   UNK N   1      25.966  26.225  -7.219  0.00  0.00     0.103 C 
BRANCH   5   6
HETATM    6  C   UNK N   1      27.131  26.964  -7.829  0.00  0.00     0.018 C 
BRANCH   6   7
HETATM    7  C   UNK N   1      27.705  27.876  -6.760  0.00  0.00     0.103 C 
BRANCH   7   8
HETATM    8  C   UNK N   1      28.613  27.143  -5.810  0.00  0.00     0.218 C 
HETATM    9  N   UNK N   1      28.463  27.281  -4.474  0.00  0.00    -0.351 N 
HETATM   10  H   UNK N   1      29.064  26.786  -3.872  0.00  0.00     0.163 HD
HETATM   11  O   UNK N   1      29.494  26.412  -6.239  0.00  0.00    -0.274 OA
BRANCH   9  12
HETATM   12  C   UNK N   1      27.446  28.132  -3.901  0.00  0.00     0.232 C 
BRANCH  12  13
HETATM   13  C   UNK N   1      26.357  27.322  -3.272  0.00  0.00     0.158 C 
HETATM   14  O   UNK N   1      25.371  27.861  -2.793  0.00  0.00    -0.649 OA
BRANCH  13  15
HETATM   15  O   UNK N   1      26.467  25.982  -3.232  0.00  0.00    -0.775 OA
HETATM   16  H   UNK N   1      26.083  25.459  -3.908  0.00  0.00     0.167 HD
ENDBRANCH  13  15
ENDBRANCH  12  13
ENDBRANCH   9  12
ENDBRANCH   7   8
ENDBRANCH   6   7
ENDBRANCH   5   6
ENDBRANCH   1   5
BRANCH   2  17
HETATM   17  C   UNK N   1      27.802  22.884  -7.244  0.00  0.00     0.161 C 
BRANCH  17  18
HETATM   18  C   UNK N   1      28.639  22.725  -6.003  0.00  0.00    -0.040 A 
HETATM   19  C   UNK N   1      28.377  23.543  -4.893  0.00  0.00     0.011 A 
HETATM   20  C   UNK N   1      29.121  23.435  -3.733  0.00  0.00     0.037 A 
HETATM   21  C   UNK N   1      30.151  22.502  -3.644  0.00  0.00     0.102 A 
HETATM   22  C   UNK N   1      30.426  21.666  -4.747  0.00  0.00     0.037 A 
HETATM   23  C   UNK N   1      29.670  21.780  -5.928  0.00  0.00     0.011 A 
BRANCH  21  24
HETATM   24  N   UNK N   1      30.903  22.415  -2.442  0.00  0.00    -0.116 N 
HETATM   25  O   UNK N   1      31.917  21.792  -2.403  0.00  0.00    -0.532 OA
HETATM   26  O   UNK N   1      30.479  23.037  -1.358  0.00  0.00    -0.532 OA
ENDBRANCH  21  24
ENDBRANCH  17  18
ENDBRANCH   2  17
TORSDOF 10
ENDMDL
MODEL 6
REMARK VINA RESULT:      -6.6      5.168      7.917
REMARK  10 active torsions:
REMARK  status: ('A' for Active; 'I' for Inactive)
REMARK    1  A    between atoms: C_1  and  C_7 
REMARK    2  A    between atoms: C_4  and  N_15 
REMARK    3  A    between atoms: C_7  and  N_17 
REMARK    4  A    between atoms: C_8  and  C_9 
REMARK    5  A    between atoms: C_8  and  C_14 
REMARK    6  A    between atoms: C_9  and  C_10 
REMARK    7  A    between atoms: C_10  and  C_11 
REMARK       I    between atoms: C_11  and  N_16 
REMARK    8  A    between atoms: C_12  and  C_13 
REMARK    9  A    between atoms: C_12  and  N_16 
REMARK   10  A    between atoms: C_13  and  O_23 
REMARK       I    between atoms: C_14  and  N_17 
ROOT
HETATM    1  C   UNK N   1      34.592  18.175   8.406  0.00  0.00     0.217 C 
HETATM    2  N   UNK N   1      34.583  17.172   9.301  0.00  0.00    -0.357 N 
HETATM    3  O   UNK N   1      35.306  19.153   8.560  0.00  0.00    -0.274 OA
HETATM    4  H   UNK N   1      33.961  16.428   9.128  0.00  0.00     0.162 HD
ENDROOT
BRANCH   1   5
HETATM    5  C   UNK N   1      33.773  18.017   7.172  0.00  0.00     0.103 C 
BRANCH   5   6
HETATM    6  C   UNK N   1      33.057  16.691   7.120  0.00  0.00     0.018 C 
BRANCH   6   7
HETATM    7  C   UNK N   1      31.597  16.945   7.450  0.00  0.00     0.103 C 
BRANCH   7   8
HETATM    8  C   UNK N   1      31.237  16.492   8.840  0.00  0.00     0.218 C 
HETATM    9  N   UNK N   1      30.319  17.169   9.565  0.00  0.00    -0.351 N 
HETATM   10  H   UNK N   1      30.095  16.850  10.468  0.00  0.00     0.163 HD
HETATM   11  O   UNK N   1      31.770  15.505   9.324  0.00  0.00    -0.274 OA
BRANCH   9  12
HETATM   12  C   UNK N   1      29.656  18.347   9.055  0.00  0.00     0.232 C 
BRANCH  12  13
HETATM   13  C   UNK N   1      28.169  18.179   9.076  0.00  0.00     0.158 C 
HETATM   14  O   UNK N   1      27.659  17.171   9.540  0.00  0.00    -0.649 OA
BRANCH  13  15
HETATM   15  O   UNK N   1      27.385  19.151   8.575  0.00  0.00    -0.775 OA
HETATM   16  H   UNK N   1      27.596  19.543   7.750  0.00  0.00     0.167 HD
ENDBRANCH  13  15
ENDBRANCH  12  13
ENDBRANCH   9  12
ENDBRANCH   7   8
ENDBRANCH   6   7
ENDBRANCH   5   6
ENDBRANCH   1   5
BRANCH   2  17
HETATM   17  C   UNK N   1      35.398  17.080  10.491  0.00  0.00     0.161 C 
BRANCH  17  18
HETATM   18  C   UNK N   1      35.358  15.650  10.959  0.00  0.00    -0.040 A 
HETATM   19  C   UNK N   1      35.831  15.339  12.244  0.00  0.00     0.011 A 
HETATM   20  C   UNK N   1      35.817  14.040  12.715  0.00  0.00     0.037 A 
HETATM   21  C   UNK N   1      35.326  13.009  11.919  0.00  0.00     0.102 A 
HETATM   22  C   UNK N   1      34.841  13.302  10.627  0.00  0.00     0.037 A 
HETATM   23  C   UNK N   1      34.860  14.624  10.147  0.00  0.00     0.011 A 
BRANCH  21  24
HETATM   24  N   UNK N   1      35.327  11.683  12.427  0.00  0.00    -0.116 N 
HETATM   25  O   UNK N   1      34.354  11.228  12.942  0.00  0.00    -0.532 OA
HETATM   26  O   UNK N   1      36.414  10.942  12.323  0.00  0.00    -0.532 OA
ENDBRANCH  21  24
ENDBRANCH  17  18
ENDBRANCH   2  17
TORSDOF 10
ENDMDL
MODEL 7
REMARK VINA RESULT:      -6.5      8.394     11.567
REMARK  10 active torsions:
REMARK  status: ('A' for Active; 'I' for Inactive)
REMARK    1  A    between atoms: C_1  and  C_7 
REMARK    2  A    between atoms: C_4  and  N_15 
REMARK    3  A    between atoms: C_7  and  N_17 
REMARK    4  A    between atoms: C_8  and  C_9 
REMARK    5  A    between atoms: C_8  and  C_14 
REMARK    6  A    between atoms: C_9  and  C_10 
REMARK    7  A    between atoms: C_10  and  C_11 
REMARK       I    between atoms: C_11  and  N_16 
REMARK    8  A    between atoms: C_12  and  C_13 
REMARK    9  A    between atoms: C_12  and  N_16 
REMARK   10  A    between atoms: C_13  and  O_23 
REMARK       I    between atoms: C_14  and  N_17 
ROOT
HETATM    1  C   UNK N   1      20.595  14.354   5.662  0.00  0.00     0.217 C 
HETATM    2  N   UNK N   1      20.941  14.863   4.467  0.00  0.00    -0.357 N 
HETATM    3  O   UNK N   1      19.427  14.309   6.017  0.00  0.00    -0.274 OA
HETATM    4  H   UNK N   1      21.902  14.895   4.259  0.00  0.00     0.162 HD
ENDROOT
BRANCH   1   5
HETATM    5  C   UNK N   1      21.670  13.761   6.506  0.00  0.00     0.103 C 
BRANCH   5   6
HETATM    6  C   UNK N   1      21.126  12.846   7.574  0.00  0.00     0.018 C 
BRANCH   6   7
HETATM    7  C   UNK N   1      21.942  13.076   8.833  0.00  0.00     0.103 C 
BRANCH   7   8
HETATM    8  C   UNK N   1      21.158  12.784  10.085  0.00  0.00     0.218 C 
HETATM    9  N   UNK N   1      21.690  12.019  11.065  0.00  0.00    -0.351 N 
HETATM   10  H   UNK N   1      21.161  11.849  11.877  0.00  0.00     0.163 HD
HETATM   11  O   UNK N   1      20.033  13.240  10.228  0.00  0.00    -0.274 OA
BRANCH   9  12
HETATM   12  C   UNK N   1      23.011  11.446  10.957  0.00  0.00     0.232 C 
BRANCH  12  13
HETATM   13  C   UNK N   1      23.925  11.998  12.006  0.00  0.00     0.158 C 
HETATM   14  O   UNK N   1      23.571  12.063  13.173  0.00  0.00    -0.649 OA
BRANCH  13  15
HETATM   15  O   UNK N   1      25.150  12.430  11.656  0.00  0.00    -0.775 OA
HETATM   16  H   UNK N   1      25.246  13.059  10.968  0.00  0.00     0.167 HD
ENDBRANCH  13  15
ENDBRANCH  12  13
ENDBRANCH   9  12
ENDBRANCH   7   8
ENDBRANCH   6   7
ENDBRANCH   5   6
ENDBRANCH   1   5
BRANCH   2  17
HETATM   17  C   UNK N   1      20.036  15.367   3.459  0.00  0.00     0.161 C 
BRANCH  17  18
HETATM   18  C   UNK N   1      20.412  16.799   3.186  0.00  0.00    -0.040 A 
HETATM   19  C   UNK N   1      20.090  17.365   1.943  0.00  0.00     0.011 A 
HETATM   20  C   UNK N   1      20.418  18.674   1.647  0.00  0.00     0.037 A 
HETATM   21  C   UNK N   1      21.076  19.463   2.587  0.00  0.00     0.102 A 
HETATM   22  C   UNK N   1      21.403  18.914   3.845  0.00  0.00     0.037 A 
HETATM   23  C   UNK N   1      21.072  17.580   4.143  0.00  0.00     0.011 A 
BRANCH  21  24
HETATM   24  N   UNK N   1      21.405  20.804   2.255  0.00  0.00    -0.116 N 
HETATM   25  O   UNK N   1      20.783  21.396   1.430  0.00  0.00    -0.532 OA
HETATM   26  O   UNK N   1      22.405  21.406   2.871  0.00  0.00    -0.532 OA
ENDBRANCH  21  24
ENDBRANCH  17  18
ENDBRANCH   2  17
TORSDOF 10
ENDMDL
MODEL 8
REMARK VINA RESULT:      -6.5      4.316      6.959
REMARK  10 active torsions:
REMARK  status: ('A' for Active; 'I' for Inactive)
REMARK    1  A    between atoms: C_1  and  C_7 
REMARK    2  A    between atoms: C_4  and  N_15 
REMARK    3  A    between atoms: C_7  and  N_17 
REMARK    4  A    between atoms: C_8  and  C_9 
REMARK    5  A    between atoms: C_8  and  C_14 
REMARK    6  A    between atoms: C_9  and  C_10 
REMARK    7  A    between atoms: C_10  and  C_11 
REMARK       I    between atoms: C_11  and  N_16 
REMARK    8  A    between atoms: C_12  and  C_13 
REMARK    9  A    between atoms: C_12  and  N_16 
REMARK   10  A    between atoms: C_13  and  O_23 
REMARK       I    between atoms: C_14  and  N_17 
ROOT
HETATM    1  C   UNK N   1      21.508  20.151   2.081  0.00  0.00     0.217 C 
HETATM    2  N   UNK N   1      22.564  20.288   2.901  0.00  0.00    -0.357 N 
HETATM    3  O   UNK N   1      21.540  20.567   0.933  0.00  0.00    -0.274 OA
HETATM    4  H   UNK N   1      22.458  19.955   3.822  0.00  0.00     0.162 HD
ENDROOT
BRANCH   1   5
HETATM    5  C   UNK N   1      20.328  19.392   2.582  0.00  0.00     0.103 C 
BRANCH   5   6
HETATM    6  C   UNK N   1      20.632  18.619   3.841  0.00  0.00     0.018 C 
BRANCH   6   7
HETATM    7  C   UNK N   1      20.969  17.196   3.435  0.00  0.00     0.103 C 
BRANCH   7   8
HETATM    8  C   UNK N   1      19.766  16.291   3.470  0.00  0.00     0.218 C 
HETATM    9  N   UNK N   1      19.434  15.551   2.388  0.00  0.00    -0.351 N 
HETATM   10  H   UNK N   1      18.648  14.961   2.437  0.00  0.00     0.163 HD
HETATM   11  O   UNK N   1      19.081  16.214   4.479  0.00  0.00    -0.274 OA
BRANCH   9  12
HETATM   12  C   UNK N   1      20.198  15.598   1.163  0.00  0.00     0.232 C 
BRANCH  12  13
HETATM   13  C   UNK N   1      19.617  16.589   0.204  0.00  0.00     0.158 C 
HETATM   14  O   UNK N   1      20.327  17.410  -0.355  0.00  0.00    -0.649 OA
BRANCH  13  15
HETATM   15  O   UNK N   1      18.294  16.574  -0.043  0.00  0.00    -0.775 OA
HETATM   16  H   UNK N   1      17.983  16.509  -0.924  0.00  0.00     0.167 HD
ENDBRANCH  13  15
ENDBRANCH  12  13
ENDBRANCH   9  12
ENDBRANCH   7   8
ENDBRANCH   6   7
ENDBRANCH   5   6
ENDBRANCH   1   5
BRANCH   2  17
HETATM   17  C   UNK N   1      23.840  20.877   2.561  0.00  0.00     0.161 C 
BRANCH  17  18
HETATM   18  C   UNK N   1      24.903  20.119   3.309  0.00  0.00    -0.040 A 
HETATM   19  C   UNK N   1      26.241  20.529   3.199  0.00  0.00     0.011 A 
HETATM   20  C   UNK N   1      27.251  19.862   3.865  0.00  0.00     0.037 A 
HETATM   21  C   UNK N   1      26.957  18.764   4.668  0.00  0.00     0.102 A 
HETATM   22  C   UNK N   1      25.618  18.339   4.798  0.00  0.00     0.037 A 
HETATM   23  C   UNK N   1      24.591  19.016   4.116  0.00  0.00     0.011 A 
BRANCH  21  24
HETATM   24  N   UNK N   1      28.015  18.094   5.338  0.00  0.00    -0.116 N 
HETATM   25  O   UNK N   1      29.148  18.273   5.016  0.00  0.00    -0.532 OA
HETATM   26  O   UNK N   1      27.744  17.271   6.332  0.00  0.00    -0.532 OA
ENDBRANCH  21  24
ENDBRANCH  17  18
ENDBRANCH   2  17
TORSDOF 10
ENDMDL
MODEL 9
REMARK VINA RESULT:      -6.4      8.528     12.849
REMARK  10 active torsions:
REMARK  status: ('A' for Active; 'I' for Inactive)
REMARK    1  A    between atoms: C_1  and  C_7 
REMARK    2  A    between atoms: C_4  and  N_15 
REMARK    3  A    between atoms: C_7  and  N_17 
REMARK    4  A    between atoms: C_8  and  C_9 
REMARK    5  A    between atoms: C_8  and  C_14 
REMARK    6  A    between atoms: C_9  and  C_10 
REMARK    7  A    between atoms: C_10  and  C_11 
REMARK       I    between atoms: C_11  and  N_16 
REMARK    8  A    between atoms: C_12  and  C_13 
REMARK    9  A    between atoms: C_12  and  N_16 
REMARK   10  A    between atoms: C_13  and  O_23 
REMARK       I    between atoms: C_14  and  N_17 
ROOT
HETATM    1  C   UNK N   1      36.056  13.101  12.419  0.00  0.00     0.217 C 
HETATM    2  N   UNK N   1      35.657  13.661  13.574  0.00  0.00    -0.357 N 
HETATM    3  O   UNK N   1      37.229  12.824  12.223  0.00  0.00    -0.274 OA
HETATM    4  H   UNK N   1      34.701  13.885  13.652  0.00  0.00     0.162 HD
ENDROOT
BRANCH   1   5
HETATM    5  C   UNK N   1      35.012  12.742  11.419  0.00  0.00     0.103 C 
BRANCH   5   6
HETATM    6  C   UNK N   1      34.305  13.952  10.863  0.00  0.00     0.018 C 
BRANCH   6   7
HETATM    7  C   UNK N   1      35.333  14.775  10.106  0.00  0.00     0.103 C 
BRANCH   7   8
HETATM    8  C   UNK N   1      35.570  16.119  10.741  0.00  0.00     0.218 C 
HETATM    9  N   UNK N   1      34.978  17.227  10.242  0.00  0.00    -0.351 N 
HETATM   10  H   UNK N   1      35.143  18.093  10.678  0.00  0.00     0.163 HD
HETATM   11  O   UNK N   1      36.298  16.220  11.718  0.00  0.00    -0.274 OA
BRANCH   9  12
HETATM   12  C   UNK N   1      34.111  17.179   9.087  0.00  0.00     0.232 C 
BRANCH  12  13
HETATM   13  C   UNK N   1      34.573  18.127   8.026  0.00  0.00     0.158 C 
HETATM   14  O   UNK N   1      34.460  17.847   6.843  0.00  0.00    -0.649 OA
BRANCH  13  15
HETATM   15  O   UNK N   1      35.123  19.302   8.382  0.00  0.00    -0.775 OA
HETATM   16  H   UNK N   1      35.526  19.847   7.735  0.00  0.00     0.167 HD
ENDBRANCH  13  15
ENDBRANCH  12  13
ENDBRANCH   9  12
ENDBRANCH   7   8
ENDBRANCH   6   7
ENDBRANCH   5   6
ENDBRANCH   1   5
BRANCH   2  17
HETATM   17  C   UNK N   1      36.496  13.966  14.711  0.00  0.00     0.161 C 
BRANCH  17  18
HETATM   18  C   UNK N   1      36.083  13.056  15.837  0.00  0.00    -0.040 A 
HETATM   19  C   UNK N   1      36.324  11.678  15.725  0.00  0.00     0.011 A 
HETATM   20  C   UNK N   1      35.960  10.804  16.731  0.00  0.00     0.037 A 
HETATM   21  C   UNK N   1      35.344  11.279  17.885  0.00  0.00     0.102 A 
HETATM   22  C   UNK N   1      35.098  12.661  18.020  0.00  0.00     0.037 A 
HETATM   23  C   UNK N   1      35.466  13.550  16.994  0.00  0.00     0.011 A 
BRANCH  21  24
HETATM   24  N   UNK N   1      34.976  10.358  18.902  0.00  0.00    -0.116 N 
HETATM   25  O   UNK N   1      34.806  10.724  20.022  0.00  0.00    -0.532 OA
HETATM   26  O   UNK N   1      34.813   9.083  18.603  0.00  0.00    -0.532 OA
ENDBRANCH  21  24
ENDBRANCH  17  18
ENDBRANCH   2  17
TORSDOF 10
ENDMDL
