REMARK  4 active torsions:
REMARK  status: ('A' for Active; 'I' for Inactive)
REMARK    1  A    between atoms: C_1  and  O_12 
REMARK    2  A    between atoms: C_4  and  N_8 
REMARK    3  A    between atoms: P_11  and  O_12 
REMARK    4  A    between atoms: P_11  and  O_14 
ROOT
HETATM    1  C   UNK N   1       0.640  -0.436  -0.042  0.00  0.00     0.079 A 
HETATM    2  C   UNK N   1       0.710  -1.813   0.191  0.00  0.00     0.040 A 
HETATM    3  C   UNK N   1      -0.456  -2.587   0.207  0.00  0.00     0.039 A 
HETATM    4  C   UNK N   1      -1.710  -1.987   0.003  0.00  0.00     0.103 A 
HETATM    5  C   UNK N   1      -1.778  -0.606  -0.220  0.00  0.00     0.039 A 
HETATM    6  C   UNK N   1      -0.614   0.162  -0.250  0.00  0.00     0.040 A 
ENDROOT
BRANCH   1   7
HETATM    7  O   UNK N   1       1.788   0.290  -0.065  0.00  0.00    -0.277 OA
BRANCH   7   8
HETATM    8  P   UNK N   1       1.896   1.945  -0.561  0.00  0.00     0.239 P 
HETATM    9  C   UNK N   1       2.806   3.388   0.170  0.00  0.00     0.142 C 
HETATM   10  O   UNK N   1       1.037   2.272   0.690  0.00  0.00    -0.653 OA
BRANCH   8  11
HETATM   11  O   UNK N   1       3.441   1.590   0.147  0.00  0.00    -0.329 OA
HETATM   12  H   UNK N   1       3.700   0.743   0.543  0.00  0.00     0.220 HD
ENDBRANCH   8  11
ENDBRANCH   7   8
ENDBRANCH   1   7
BRANCH   4  13
HETATM   13  N   UNK N   1      -2.899  -2.767   0.016  0.00  0.00    -0.116 N 
HETATM   14  O   UNK N   1      -2.844  -3.950   0.157  0.00  0.00    -0.532 OA
HETATM   15  O   UNK N   1      -4.072  -2.186  -0.136  0.00  0.00    -0.532 OA
ENDBRANCH   4  13
TORSDOF 4
