MODEL 1
REMARK VINA RESULT:      -5.5      0.000      0.000
REMARK  4 active torsions:
REMARK  status: ('A' for Active; 'I' for Inactive)
REMARK    1  A    between atoms: C_1  and  O_12 
REMARK    2  A    between atoms: C_4  and  N_8 
REMARK    3  A    between atoms: P_11  and  O_12 
REMARK    4  A    between atoms: P_11  and  O_14 
ROOT
HETATM    1  C   UNK N   1      34.535  15.102  11.082  0.00  0.00     0.079 A 
HETATM    2  C   UNK N   1      33.735  15.030   9.938  0.00  0.00     0.040 A 
HETATM    3  C   UNK N   1      33.798  16.037   8.967  0.00  0.00     0.039 A 
HETATM    4  C   UNK N   1      34.655  17.137   9.140  0.00  0.00     0.103 A 
HETATM    5  C   UNK N   1      35.447  17.212  10.292  0.00  0.00     0.039 A 
HETATM    6  C   UNK N   1      35.395  16.200  11.251  0.00  0.00     0.040 A 
ENDROOT
BRANCH   1   7
HETATM    7  O   UNK N   1      34.464  14.105  12.002  0.00  0.00    -0.277 OA
BRANCH   7   8
HETATM    8  P   UNK N   1      35.721  13.711  13.125  0.00  0.00     0.239 P 
HETATM    9  C   UNK N   1      36.488  12.085  13.587  0.00  0.00     0.142 C 
HETATM   10  O   UNK N   1      34.608  13.059  13.989  0.00  0.00    -0.653 OA
BRANCH   8  11
HETATM   11  O   UNK N   1      35.896  12.559  11.837  0.00  0.00    -0.329 OA
HETATM   12  H   UNK N   1      35.883  11.594  11.936  0.00  0.00     0.220 HD
ENDBRANCH   8  11
ENDBRANCH   7   8
ENDBRANCH   1   7
BRANCH   4  13
HETATM   13  N   UNK N   1      34.725  18.164   8.158  0.00  0.00    -0.116 N 
HETATM   14  O   UNK N   1      35.102  19.256   8.452  0.00  0.00    -0.532 OA
HETATM   15  O   UNK N   1      34.366  17.914   6.915  0.00  0.00    -0.532 OA
ENDBRANCH   4  13
TORSDOF 4
ENDMDL
MODEL 2
REMARK VINA RESULT:      -5.2      4.982      7.292
REMARK  4 active torsions:
REMARK  status: ('A' for Active; 'I' for Inactive)
REMARK    1  A    between atoms: C_1  and  O_12 
REMARK    2  A    between atoms: C_4  and  N_8 
REMARK    3  A    between atoms: P_11  and  O_12 
REMARK    4  A    between atoms: P_11  and  O_14 
ROOT
HETATM    1  C   UNK N   1      31.486  17.158   6.208  0.00  0.00     0.079 A 
HETATM    2  C   UNK N   1      31.297  17.393   7.573  0.00  0.00     0.040 A 
HETATM    3  C   UNK N   1      32.378  17.761   8.383  0.00  0.00     0.039 A 
HETATM    4  C   UNK N   1      33.666  17.885   7.836  0.00  0.00     0.103 A 
HETATM    5  C   UNK N   1      33.854  17.640   6.470  0.00  0.00     0.039 A 
HETATM    6  C   UNK N   1      32.774  17.287   5.661  0.00  0.00     0.040 A 
ENDROOT
BRANCH   1   7
HETATM    7  O   UNK N   1      30.418  16.814   5.442  0.00  0.00    -0.277 OA
BRANCH   7   8
HETATM    8  P   UNK N   1      30.512  15.900   3.975  0.00  0.00     0.239 P 
HETATM    9  C   UNK N   1      29.292  15.661   2.598  0.00  0.00     0.142 C 
HETATM   10  O   UNK N   1      29.474  14.943   4.622  0.00  0.00    -0.653 OA
BRANCH   8  11
HETATM   11  O   UNK N   1      29.533  17.278   3.579  0.00  0.00    -0.329 OA
HETATM   12  H   UNK N   1      29.861  18.124   3.237  0.00  0.00     0.220 HD
ENDBRANCH   8  11
ENDBRANCH   7   8
ENDBRANCH   1   7
BRANCH   4  13
HETATM   13  N   UNK N   1      34.768  18.261   8.652  0.00  0.00    -0.116 N 
HETATM   14  O   UNK N   1      35.341  19.289   8.458  0.00  0.00    -0.532 OA
HETATM   15  O   UNK N   1      35.170  17.469   9.625  0.00  0.00    -0.532 OA
ENDBRANCH   4  13
TORSDOF 4
ENDMDL
MODEL 3
REMARK VINA RESULT:      -5.1     12.441     14.733
REMARK  4 active torsions:
REMARK  status: ('A' for Active; 'I' for Inactive)
REMARK    1  A    between atoms: C_1  and  O_12 
REMARK    2  A    between atoms: C_4  and  N_8 
REMARK    3  A    between atoms: P_11  and  O_12 
REMARK    4  A    between atoms: P_11  and  O_14 
ROOT
HETATM    1  C   UNK N   1      43.768  23.260   2.956  0.00  0.00     0.079 A 
HETATM    2  C   UNK N   1      44.279  22.209   3.724  0.00  0.00     0.040 A 
HETATM    3  C   UNK N   1      43.555  21.020   3.863  0.00  0.00     0.039 A 
HETATM    4  C   UNK N   1      42.302  20.873   3.245  0.00  0.00     0.103 A 
HETATM    5  C   UNK N   1      41.788  21.931   2.485  0.00  0.00     0.039 A 
HETATM    6  C   UNK N   1      42.517  23.111   2.335  0.00  0.00     0.040 A 
ENDROOT
BRANCH   1   7
HETATM    7  O   UNK N   1      44.496  24.400   2.826  0.00  0.00    -0.277 OA
BRANCH   7   8
HETATM    8  P   UNK N   1      45.517  24.767   1.477  0.00  0.00     0.239 P 
HETATM    9  C   UNK N   1      47.113  25.708   1.367  0.00  0.00     0.142 C 
HETATM   10  O   UNK N   1      45.041  26.235   1.644  0.00  0.00    -0.653 OA
BRANCH   8  11
HETATM   11  O   UNK N   1      46.602  24.586   2.821  0.00  0.00    -0.329 OA
HETATM   12  H   UNK N   1      46.366  24.692   3.756  0.00  0.00     0.220 HD
ENDBRANCH   8  11
ENDBRANCH   7   8
ENDBRANCH   1   7
BRANCH   4  13
HETATM   13  N   UNK N   1      41.562  19.667   3.381  0.00  0.00    -0.116 N 
HETATM   14  O   UNK N   1      40.471  19.678   3.864  0.00  0.00    -0.532 OA
HETATM   15  O   UNK N   1      42.081  18.524   2.980  0.00  0.00    -0.532 OA
ENDBRANCH   4  13
TORSDOF 4
ENDMDL
MODEL 4
REMARK VINA RESULT:      -5.1      5.050      7.376
REMARK  4 active torsions:
REMARK  status: ('A' for Active; 'I' for Inactive)
REMARK    1  A    between atoms: C_1  and  O_12 
REMARK    2  A    between atoms: C_4  and  N_8 
REMARK    3  A    between atoms: P_11  and  O_12 
REMARK    4  A    between atoms: P_11  and  O_14 
ROOT
HETATM    1  C   UNK N   1      31.399  17.090   6.283  0.00  0.00     0.079 A 
HETATM    2  C   UNK N   1      32.667  17.194   5.703  0.00  0.00     0.040 A 
HETATM    3  C   UNK N   1      33.772  17.559   6.481  0.00  0.00     0.039 A 
HETATM    4  C   UNK N   1      33.617  17.836   7.850  0.00  0.00     0.103 A 
HETATM    5  C   UNK N   1      32.344  17.740   8.426  0.00  0.00     0.039 A 
HETATM    6  C   UNK N   1      31.246  17.363   7.653  0.00  0.00     0.040 A 
ENDROOT
BRANCH   1   7
HETATM    7  O   UNK N   1      30.346  16.722   5.508  0.00  0.00    -0.277 OA
BRANCH   7   8
HETATM    8  P   UNK N   1      28.924  17.678   5.262  0.00  0.00     0.239 P 
HETATM    9  C   UNK N   1      27.164  17.195   4.922  0.00  0.00     0.142 C 
HETATM   10  O   UNK N   1      28.993  17.218   3.781  0.00  0.00    -0.653 OA
BRANCH   8  11
HETATM   11  O   UNK N   1      28.363  16.241   6.058  0.00  0.00    -0.329 OA
HETATM   12  H   UNK N   1      28.922  15.513   6.371  0.00  0.00     0.220 HD
ENDBRANCH   8  11
ENDBRANCH   7   8
ENDBRANCH   1   7
BRANCH   4  13
HETATM   13  N   UNK N   1      34.735  18.205   8.648  0.00  0.00    -0.116 N 
HETATM   14  O   UNK N   1      35.131  17.478   9.505  0.00  0.00    -0.532 OA
HETATM   15  O   UNK N   1      35.336  19.361   8.448  0.00  0.00    -0.532 OA
ENDBRANCH   4  13
TORSDOF 4
ENDMDL
MODEL 5
REMARK VINA RESULT:      -5.0     20.211     21.341
REMARK  4 active torsions:
REMARK  status: ('A' for Active; 'I' for Inactive)
REMARK    1  A    between atoms: C_1  and  O_12 
REMARK    2  A    between atoms: C_4  and  N_8 
REMARK    3  A    between atoms: P_11  and  O_12 
REMARK    4  A    between atoms: P_11  and  O_14 
ROOT
HETATM    1  C   UNK N   1      25.447  25.316  -5.302  0.00  0.00     0.079 A 
HETATM    2  C   UNK N   1      24.985  26.560  -5.742  0.00  0.00     0.040 A 
HETATM    3  C   UNK N   1      25.351  27.729  -5.064  0.00  0.00     0.039 A 
HETATM    4  C   UNK N   1      26.174  27.663  -3.928  0.00  0.00     0.103 A 
HETATM    5  C   UNK N   1      26.627  26.415  -3.484  0.00  0.00     0.039 A 
HETATM    6  C   UNK N   1      26.274  25.252  -4.169  0.00  0.00     0.040 A 
ENDROOT
BRANCH   1   7
HETATM    7  O   UNK N   1      25.087  24.198  -5.986  0.00  0.00    -0.277 OA
BRANCH   7   8
HETATM    8  P   UNK N   1      26.162  23.250  -6.956  0.00  0.00     0.239 P 
HETATM    9  C   UNK N   1      25.928  22.434  -8.607  0.00  0.00     0.142 C 
HETATM   10  O   UNK N   1      25.259  22.039  -6.596  0.00  0.00    -0.653 OA
BRANCH   8  11
HETATM   11  O   UNK N   1      25.173  24.109  -8.096  0.00  0.00    -0.329 OA
HETATM   12  H   UNK N   1      24.473  24.742  -7.872  0.00  0.00     0.220 HD
ENDBRANCH   8  11
ENDBRANCH   7   8
ENDBRANCH   1   7
BRANCH   4  13
HETATM   13  N   UNK N   1      26.552  28.847  -3.235  0.00  0.00    -0.116 N 
HETATM   14  O   UNK N   1      27.162  28.779  -2.212  0.00  0.00    -0.532 OA
HETATM   15  O   UNK N   1      26.222  30.028  -3.717  0.00  0.00    -0.532 OA
ENDBRANCH   4  13
TORSDOF 4
ENDMDL
MODEL 6
REMARK VINA RESULT:      -5.0      5.463      9.005
REMARK  4 active torsions:
REMARK  status: ('A' for Active; 'I' for Inactive)
REMARK    1  A    between atoms: C_1  and  O_12 
REMARK    2  A    between atoms: C_4  and  N_8 
REMARK    3  A    between atoms: P_11  and  O_12 
REMARK    4  A    between atoms: P_11  and  O_14 
ROOT
HETATM    1  C   UNK N   1      35.077  12.793  16.187  0.00  0.00     0.079 A 
HETATM    2  C   UNK N   1      35.032  13.599  17.328  0.00  0.00     0.040 A 
HETATM    3  C   UNK N   1      35.191  13.034  18.599  0.00  0.00     0.039 A 
HETATM    4  C   UNK N   1      35.384  11.650  18.742  0.00  0.00     0.103 A 
HETATM    5  C   UNK N   1      35.418  10.843  17.598  0.00  0.00     0.039 A 
HETATM    6  C   UNK N   1      35.274  11.409  16.331  0.00  0.00     0.040 A 
ENDROOT
BRANCH   1   7
HETATM    7  O   UNK N   1      34.932  13.368  14.965  0.00  0.00    -0.277 OA
BRANCH   7   8
HETATM    8  P   UNK N   1      35.602  12.742  13.497  0.00  0.00     0.239 P 
HETATM    9  C   UNK N   1      36.730  13.508  12.237  0.00  0.00     0.142 C 
HETATM   10  O   UNK N   1      34.650  13.723  12.761  0.00  0.00    -0.653 OA
BRANCH   8  11
HETATM   11  O   UNK N   1      36.816  13.817  14.117  0.00  0.00    -0.329 OA
HETATM   12  H   UNK N   1      36.777  14.786  14.096  0.00  0.00     0.220 HD
ENDBRANCH   8  11
ENDBRANCH   7   8
ENDBRANCH   1   7
BRANCH   4  13
HETATM   13  N   UNK N   1      35.548  11.069  20.030  0.00  0.00    -0.116 N 
HETATM   14  O   UNK N   1      36.639  10.870  20.468  0.00  0.00    -0.532 OA
HETATM   15  O   UNK N   1      34.492  10.737  20.745  0.00  0.00    -0.532 OA
ENDBRANCH   4  13
TORSDOF 4
ENDMDL
MODEL 7
REMARK VINA RESULT:      -4.9     12.138     14.326
REMARK  4 active torsions:
REMARK  status: ('A' for Active; 'I' for Inactive)
REMARK    1  A    between atoms: C_1  and  O_12 
REMARK    2  A    between atoms: C_4  and  N_8 
REMARK    3  A    between atoms: P_11  and  O_12 
REMARK    4  A    between atoms: P_11  and  O_14 
ROOT
HETATM    1  C   UNK N   1      23.676  19.976   3.368  0.00  0.00     0.079 A 
HETATM    2  C   UNK N   1      23.936  18.882   4.198  0.00  0.00     0.040 A 
HETATM    3  C   UNK N   1      25.254  18.497   4.468  0.00  0.00     0.039 A 
HETATM    4  C   UNK N   1      26.330  19.197   3.897  0.00  0.00     0.103 A 
HETATM    5  C   UNK N   1      26.067  20.287   3.057  0.00  0.00     0.039 A 
HETATM    6  C   UNK N   1      24.753  20.678   2.800  0.00  0.00     0.040 A 
ENDROOT
BRANCH   1   7
HETATM    7  O   UNK N   1      22.388  20.337   3.132  0.00  0.00    -0.277 OA
BRANCH   7   8
HETATM    8  P   UNK N   1      21.007  19.374   3.536  0.00  0.00     0.239 P 
HETATM    9  C   UNK N   1      19.380  19.140   2.675  0.00  0.00     0.142 C 
HETATM   10  O   UNK N   1      20.284  20.715   3.835  0.00  0.00    -0.653 OA
BRANCH   8  11
HETATM   11  O   UNK N   1      21.059  19.373   1.801  0.00  0.00    -0.329 OA
HETATM   12  H   UNK N   1      21.111  18.585   1.237  0.00  0.00     0.220 HD
ENDBRANCH   8  11
ENDBRANCH   7   8
ENDBRANCH   1   7
BRANCH   4  13
HETATM   13  N   UNK N   1      27.672  18.813   4.168  0.00  0.00    -0.116 N 
HETATM   14  O   UNK N   1      28.376  19.506   4.837  0.00  0.00    -0.532 OA
HETATM   15  O   UNK N   1      28.151  17.689   3.673  0.00  0.00    -0.532 OA
ENDBRANCH   4  13
TORSDOF 4
ENDMDL
MODEL 8
REMARK VINA RESULT:      -4.8     16.064     18.450
REMARK  4 active torsions:
REMARK  status: ('A' for Active; 'I' for Inactive)
REMARK    1  A    between atoms: C_1  and  O_12 
REMARK    2  A    between atoms: C_4  and  N_8 
REMARK    3  A    between atoms: P_11  and  O_12 
REMARK    4  A    between atoms: P_11  and  O_14 
ROOT
HETATM    1  C   UNK N   1      28.520  24.258  -3.626  0.00  0.00     0.079 A 
HETATM    2  C   UNK N   1      29.198  25.436  -3.954  0.00  0.00     0.040 A 
HETATM    3  C   UNK N   1      28.490  26.628  -4.147  0.00  0.00     0.039 A 
HETATM    4  C   UNK N   1      27.091  26.651  -4.027  0.00  0.00     0.103 A 
HETATM    5  C   UNK N   1      26.413  25.467  -3.708  0.00  0.00     0.039 A 
HETATM    6  C   UNK N   1      27.121  24.283  -3.502  0.00  0.00     0.040 A 
ENDROOT
BRANCH   1   7
HETATM    7  O   UNK N   1      29.233  23.118  -3.432  0.00  0.00    -0.277 OA
BRANCH   7   8
HETATM    8  P   UNK N   1      30.956  23.046  -3.288  0.00  0.00     0.239 P 
HETATM    9  C   UNK N   1      32.095  21.646  -2.855  0.00  0.00     0.142 C 
HETATM   10  O   UNK N   1      30.724  22.898  -1.761  0.00  0.00    -0.653 OA
BRANCH   8  11
HETATM   11  O   UNK N   1      30.493  21.480  -3.876  0.00  0.00    -0.329 OA
HETATM   12  H   UNK N   1      30.819  21.061  -4.688  0.00  0.00     0.220 HD
ENDBRANCH   8  11
ENDBRANCH   7   8
ENDBRANCH   1   7
BRANCH   4  13
HETATM   13  N   UNK N   1      26.364  27.858  -4.220  0.00  0.00    -0.116 N 
HETATM   14  O   UNK N   1      26.173  28.279  -5.319  0.00  0.00    -0.532 OA
HETATM   15  O   UNK N   1      25.904  28.526  -3.181  0.00  0.00    -0.532 OA
ENDBRANCH   4  13
TORSDOF 4
ENDMDL
MODEL 9
REMARK VINA RESULT:      -4.7     16.179     18.834
REMARK  4 active torsions:
REMARK  status: ('A' for Active; 'I' for Inactive)
REMARK    1  A    between atoms: C_1  and  O_12 
REMARK    2  A    between atoms: C_4  and  N_8 
REMARK    3  A    between atoms: P_11  and  O_12 
REMARK    4  A    between atoms: P_11  and  O_14 
ROOT
HETATM    1  C   UNK N   1      27.702  24.062  -3.721  0.00  0.00     0.079 A 
HETATM    2  C   UNK N   1      28.048  23.662  -2.427  0.00  0.00     0.040 A 
HETATM    3  C   UNK N   1      29.185  22.875  -2.211  0.00  0.00     0.039 A 
HETATM    4  C   UNK N   1      29.982  22.466  -3.294  0.00  0.00     0.103 A 
HETATM    5  C   UNK N   1      29.627  22.860  -4.590  0.00  0.00     0.039 A 
HETATM    6  C   UNK N   1      28.502  23.656  -4.802  0.00  0.00     0.040 A 
ENDROOT
BRANCH   1   7
HETATM    7  O   UNK N   1      26.600  24.837  -3.901  0.00  0.00    -0.277 OA
BRANCH   7   8
HETATM    8  P   UNK N   1      26.287  25.789  -5.312  0.00  0.00     0.239 P 
HETATM    9  C   UNK N   1      24.969  27.043  -5.678  0.00  0.00     0.142 C 
HETATM   10  O   UNK N   1      25.034  24.895  -5.515  0.00  0.00    -0.653 OA
BRANCH   8  11
HETATM   11  O   UNK N   1      25.801  26.792  -3.981  0.00  0.00    -0.329 OA
HETATM   12  H   UNK N   1      24.917  27.169  -3.851  0.00  0.00     0.220 HD
ENDBRANCH   8  11
ENDBRANCH   7   8
ENDBRANCH   1   7
BRANCH   4  13
HETATM   13  N   UNK N   1      31.140  21.668  -3.083  0.00  0.00    -0.116 N 
HETATM   14  O   UNK N   1      31.859  21.880  -2.156  0.00  0.00    -0.532 OA
HETATM   15  O   UNK N   1      31.430  20.690  -3.918  0.00  0.00    -0.532 OA
ENDBRANCH   4  13
TORSDOF 4
ENDMDL
