MODEL 1
REMARK VINA RESULT:      -6.5      0.000      0.000
REMARK  4 active torsions:
REMARK  status: ('A' for Active; 'I' for Inactive)
REMARK    1  A    between atoms: C_1  and  S_20 
REMARK    2  A    between atoms: C_4  and  N_21 
REMARK    3  A    between atoms: C_13  and  C_19 
REMARK    4  A    between atoms: C_19  and  S_20 
ROOT
HETATM    1  S   UNK N   1      28.239  17.035   6.672  0.00  0.00    -0.083 SA
ENDROOT
BRANCH   1   2
HETATM    2  C   UNK N   1      27.538  18.627   6.199  0.00  0.00     0.147 A 
HETATM    3  N   UNK N   1      27.374  18.935   4.885  0.00  0.00    -0.323 N 
HETATM    4  C   UNK N   1      26.803  20.107   4.506  0.00  0.00     0.103 A 
ATOM      5  HN  UNK N   1      27.686  18.276   4.172  1.00  0.00     0.169 HD
HETATM    6  C   UNK N   1      26.355  21.004   5.471  0.00  0.00     0.090 A 
HETATM    7  C   UNK N   1      26.516  20.670   6.813  0.00  0.00     0.108 A 
HETATM    8  N   UNK N   1      27.103  19.490   7.157  0.00  0.00    -0.327 N 
HETATM    9 Cl   UNK N   1      25.938  21.760   8.056  0.00  0.00    -0.064 Cl
ATOM     10  HN  UNK N   1      27.218  19.251   8.141  1.00  0.00     0.169 HD
BRANCH   4  11
HETATM   11  N   UNK N   1      26.655  20.408   3.139  0.00  0.00    -0.385 N 
HETATM   12  H   UNK N   1      26.289  21.275   2.853  0.00  0.00     0.157 HD
HETATM   13  H   UNK N   1      26.921  19.743   2.461  0.00  0.00     0.157 HD
ENDBRANCH   4  11
ENDBRANCH   1   2
BRANCH   1  14
HETATM   14  C   UNK N   1      29.313  16.784   5.204  0.00  0.00     0.101 C 
HETATM   15  C   UNK N   1      29.173  15.349   4.708  0.00  0.00     0.028 C 
BRANCH  14  16
HETATM   16  C   UNK N   1      30.753  17.073   5.571  0.00  0.00     0.024 A 
HETATM   17  N   UNK N   1      31.712  17.192   4.589  0.00  0.00    -0.365 N 
HETATM   18  C   UNK N   1      33.022  17.453   4.879  0.00  0.00     0.126 A 
ATOM     19  HN  UNK N   1      31.436  17.080   3.614  1.00  0.00     0.165 HD
HETATM   20  C   UNK N   1      33.376  17.597   6.211  0.00  0.00     0.100 A 
HETATM   21  C   UNK N   1      32.455  17.489   7.201  0.00  0.00     0.003 A 
HETATM   22  O   UNK N   1      34.556  17.840   6.717  0.00  0.00    -0.321 OA
HETATM   23  C   UNK N   1      31.117  17.229   6.927  0.00  0.00     0.040 A 
HETATM   24  C   UNK N   1      33.112  17.675   8.394  0.00  0.00     0.039 A 
HETATM   25  C   UNK N   1      34.445  17.895   8.034  0.00  0.00     0.143 A 
ENDBRANCH  14  16
ENDBRANCH   1  14
TORSDOF 4
ENDMDL
MODEL 2
REMARK VINA RESULT:      -6.4      1.449      2.032
REMARK  4 active torsions:
REMARK  status: ('A' for Active; 'I' for Inactive)
REMARK    1  A    between atoms: C_1  and  S_20 
REMARK    2  A    between atoms: C_4  and  N_21 
REMARK    3  A    between atoms: C_13  and  C_19 
REMARK    4  A    between atoms: C_19  and  S_20 
ROOT
HETATM    1  S   UNK N   1      28.336  16.767   5.628  0.00  0.00    -0.083 SA
ENDROOT
BRANCH   1   2
HETATM    2  C   UNK N   1      27.458  18.340   5.550  0.00  0.00     0.147 A 
HETATM    3  N   UNK N   1      27.190  19.027   6.692  0.00  0.00    -0.323 N 
HETATM    4  C   UNK N   1      26.574  20.236   6.655  0.00  0.00     0.103 A 
ATOM      5  HN  UNK N   1      27.455  18.627   7.592  1.00  0.00     0.169 HD
HETATM    6  C   UNK N   1      26.228  20.801   5.430  0.00  0.00     0.090 A 
HETATM    7  C   UNK N   1      26.521  20.093   4.267  0.00  0.00     0.108 A 
HETATM    8  N   UNK N   1      27.130  18.878   4.344  0.00  0.00    -0.327 N 
HETATM    9 Cl   UNK N   1      26.127  20.783   2.707  0.00  0.00    -0.064 Cl
ATOM     10  HN  UNK N   1      27.342  18.364   3.489  1.00  0.00     0.169 HD
BRANCH   4  11
HETATM   11  N   UNK N   1      26.298  20.923   7.853  0.00  0.00    -0.385 N 
HETATM   12  H   UNK N   1      25.481  20.727   8.365  0.00  0.00     0.157 HD
HETATM   13  H   UNK N   1      26.928  21.605   8.181  0.00  0.00     0.157 HD
ENDBRANCH   4  11
ENDBRANCH   1   2
BRANCH   1  14
HETATM   14  C   UNK N   1      29.556  17.091   4.295  0.00  0.00     0.101 C 
HETATM   15  C   UNK N   1      29.552  15.932   3.305  0.00  0.00     0.028 C 
BRANCH  14  16
HETATM   16  C   UNK N   1      30.934  17.262   4.896  0.00  0.00     0.024 A 
HETATM   17  N   UNK N   1      32.037  17.408   4.084  0.00  0.00    -0.365 N 
HETATM   18  C   UNK N   1      33.297  17.565   4.588  0.00  0.00     0.126 A 
ATOM     19  HN  UNK N   1      31.909  17.398   3.072  1.00  0.00     0.165 HD
HETATM   20  C   UNK N   1      33.450  17.570   5.964  0.00  0.00     0.100 A 
HETATM   21  C   UNK N   1      32.385  17.432   6.793  0.00  0.00     0.003 A 
HETATM   22  O   UNK N   1      34.548  17.698   6.661  0.00  0.00    -0.321 OA
HETATM   23  C   UNK N   1      31.093  17.277   6.300  0.00  0.00     0.040 A 
HETATM   24  C   UNK N   1      32.859  17.474   8.083  0.00  0.00     0.039 A 
HETATM   25  C   UNK N   1      34.240  17.645   7.946  0.00  0.00     0.143 A 
ENDBRANCH  14  16
ENDBRANCH   1  14
TORSDOF 4
ENDMDL
MODEL 3
REMARK VINA RESULT:      -6.3      3.330      4.718
REMARK  4 active torsions:
REMARK  status: ('A' for Active; 'I' for Inactive)
REMARK    1  A    between atoms: C_1  and  S_20 
REMARK    2  A    between atoms: C_4  and  N_21 
REMARK    3  A    between atoms: C_13  and  C_19 
REMARK    4  A    between atoms: C_19  and  S_20 
ROOT
HETATM    1  S   UNK N   1      26.706  19.472   4.448  0.00  0.00    -0.083 SA
ENDROOT
BRANCH   1   2
HETATM    2  C   UNK N   1      24.944  19.098   4.381  0.00  0.00     0.147 A 
HETATM    3  N   UNK N   1      24.402  18.213   5.259  0.00  0.00    -0.323 N 
HETATM    4  C   UNK N   1      23.070  17.952   5.260  0.00  0.00     0.103 A 
ATOM      5  HN  UNK N   1      25.006  17.736   5.929  1.00  0.00     0.169 HD
HETATM    6  C   UNK N   1      22.234  18.613   4.365  0.00  0.00     0.090 A 
HETATM    7  C   UNK N   1      22.799  19.527   3.480  0.00  0.00     0.108 A 
HETATM    8  N   UNK N   1      24.141  19.756   3.500  0.00  0.00    -0.327 N 
HETATM    9 Cl   UNK N   1      21.775  20.400   2.359  0.00  0.00    -0.064 Cl
ATOM     10  HN  UNK N   1      24.550  20.426   2.850  1.00  0.00     0.169 HD
BRANCH   4  11
HETATM   11  N   UNK N   1      22.535  17.023   6.173  0.00  0.00    -0.385 N 
HETATM   12  H   UNK N   1      22.889  16.106   6.219  0.00  0.00     0.157 HD
HETATM   13  H   UNK N   1      21.800  17.294   6.771  0.00  0.00     0.157 HD
ENDBRANCH   4  11
ENDBRANCH   1   2
BRANCH   1  14
HETATM   14  C   UNK N   1      26.778  20.047   6.190  0.00  0.00     0.101 C 
HETATM   15  C   UNK N   1      27.210  21.509   6.229  0.00  0.00     0.028 C 
BRANCH  14  16
HETATM   16  C   UNK N   1      27.753  19.191   6.969  0.00  0.00     0.024 A 
HETATM   17  N   UNK N   1      27.697  19.146   8.345  0.00  0.00    -0.365 N 
HETATM   18  C   UNK N   1      28.559  18.386   9.084  0.00  0.00     0.126 A 
ATOM     19  HN  UNK N   1      26.990  19.699   8.828  1.00  0.00     0.165 HD
HETATM   20  C   UNK N   1      29.515  17.645   8.408  0.00  0.00     0.100 A 
HETATM   21  C   UNK N   1      29.595  17.665   7.054  0.00  0.00     0.003 A 
HETATM   22  O   UNK N   1      30.436  16.861   8.902  0.00  0.00    -0.321 OA
HETATM   23  C   UNK N   1      28.724  18.427   6.283  0.00  0.00     0.040 A 
HETATM   24  C   UNK N   1      30.634  16.841   6.692  0.00  0.00     0.039 A 
HETATM   25  C   UNK N   1      31.137  16.354   7.902  0.00  0.00     0.143 A 
ENDBRANCH  14  16
ENDBRANCH   1  14
TORSDOF 4
ENDMDL
MODEL 4
REMARK VINA RESULT:      -6.3     13.525     15.610
REMARK  4 active torsions:
REMARK  status: ('A' for Active; 'I' for Inactive)
REMARK    1  A    between atoms: C_1  and  S_20 
REMARK    2  A    between atoms: C_4  and  N_21 
REMARK    3  A    between atoms: C_13  and  C_19 
REMARK    4  A    between atoms: C_19  and  S_20 
ROOT
HETATM    1  S   UNK N   1      35.671  10.030  19.025  0.00  0.00    -0.083 SA
ENDROOT
BRANCH   1   2
HETATM    2  C   UNK N   1      34.231   9.815  20.089  0.00  0.00     0.147 A 
HETATM    3  N   UNK N   1      34.116  10.539  21.233  0.00  0.00    -0.323 N 
HETATM    4  C   UNK N   1      33.018  10.431  22.024  0.00  0.00     0.103 A 
ATOM      5  HN  UNK N   1      34.867  11.174  21.503  1.00  0.00     0.169 HD
HETATM    6  C   UNK N   1      31.978   9.583  21.654  0.00  0.00     0.090 A 
HETATM    7  C   UNK N   1      32.102   8.858  20.472  0.00  0.00     0.108 A 
HETATM    8  N   UNK N   1      33.222   8.984  19.709  0.00  0.00    -0.327 N 
HETATM    9 Cl   UNK N   1      30.801   7.803  19.958  0.00  0.00    -0.064 Cl
ATOM     10  HN  UNK N   1      33.308   8.450  18.844  1.00  0.00     0.169 HD
BRANCH   4  11
HETATM   11  N   UNK N   1      32.929  11.183  23.211  0.00  0.00    -0.385 N 
HETATM   12  H   UNK N   1      33.545  11.933  23.376  0.00  0.00     0.157 HD
HETATM   13  H   UNK N   1      32.244  10.957  23.882  0.00  0.00     0.157 HD
ENDBRANCH   4  11
ENDBRANCH   1   2
BRANCH   1  14
HETATM   14  C   UNK N   1      34.933   9.396  17.468  0.00  0.00     0.101 C 
HETATM   15  C   UNK N   1      35.716   8.178  16.990  0.00  0.00     0.028 C 
BRANCH  14  16
HETATM   16  C   UNK N   1      34.958  10.482  16.414  0.00  0.00     0.024 A 
HETATM   17  N   UNK N   1      34.040  10.479  15.386  0.00  0.00    -0.365 N 
HETATM   18  C   UNK N   1      34.030  11.441  14.416  0.00  0.00     0.126 A 
ATOM     19  HN  UNK N   1      33.346   9.733  15.348  1.00  0.00     0.165 HD
HETATM   20  C   UNK N   1      34.985  12.442  14.484  0.00  0.00     0.100 A 
HETATM   21  C   UNK N   1      35.901  12.476  15.484  0.00  0.00     0.003 A 
HETATM   22  O   UNK N   1      35.167  13.449  13.672  0.00  0.00    -0.321 OA
HETATM   23  C   UNK N   1      35.926  11.510  16.484  0.00  0.00     0.040 A 
HETATM   24  C   UNK N   1      36.700  13.574  15.271  0.00  0.00     0.039 A 
HETATM   25  C   UNK N   1      36.193  14.161  14.107  0.00  0.00     0.143 A 
ENDBRANCH  14  16
ENDBRANCH   1  14
TORSDOF 4
ENDMDL
MODEL 5
REMARK VINA RESULT:      -6.3      2.765      3.968
REMARK  4 active torsions:
REMARK  status: ('A' for Active; 'I' for Inactive)
REMARK    1  A    between atoms: C_1  and  S_20 
REMARK    2  A    between atoms: C_4  and  N_21 
REMARK    3  A    between atoms: C_13  and  C_19 
REMARK    4  A    between atoms: C_19  and  S_20 
ROOT
HETATM    1  S   UNK N   1      31.027  16.243   5.818  0.00  0.00    -0.083 SA
ENDROOT
BRANCH   1   2
HETATM    2  C   UNK N   1      29.667  17.388   6.119  0.00  0.00     0.147 A 
HETATM    3  N   UNK N   1      29.216  17.592   7.385  0.00  0.00    -0.323 N 
HETATM    4  C   UNK N   1      28.227  18.485   7.641  0.00  0.00     0.103 A 
ATOM      5  HN  UNK N   1      29.627  17.064   8.155  1.00  0.00     0.169 HD
HETATM    6  C   UNK N   1      27.675  19.226   6.600  0.00  0.00     0.090 A 
HETATM    7  C   UNK N   1      28.155  19.018   5.310  0.00  0.00     0.108 A 
HETATM    8  N   UNK N   1      29.141  18.106   5.088  0.00  0.00    -0.327 N 
HETATM    9 Cl   UNK N   1      27.505  19.952   3.978  0.00  0.00    -0.064 Cl
ATOM     10  HN  UNK N   1      29.490  17.957   4.142  1.00  0.00     0.169 HD
BRANCH   4  11
HETATM   11  N   UNK N   1      27.770  18.669   8.960  0.00  0.00    -0.385 N 
HETATM   12  H   UNK N   1      27.765  17.920   9.598  0.00  0.00     0.157 HD
HETATM   13  H   UNK N   1      27.452  19.557   9.247  0.00  0.00     0.157 HD
ENDBRANCH   4  11
ENDBRANCH   1   2
BRANCH   1  14
HETATM   14  C   UNK N   1      32.372  17.243   6.568  0.00  0.00     0.101 C 
HETATM   15  C   UNK N   1      33.494  17.435   5.554  0.00  0.00     0.028 C 
BRANCH  14  16
HETATM   16  C   UNK N   1      32.897  16.545   7.804  0.00  0.00     0.024 A 
HETATM   17  N   UNK N   1      32.327  15.367   8.235  0.00  0.00    -0.365 N 
HETATM   18  C   UNK N   1      32.771  14.707   9.346  0.00  0.00     0.126 A 
ATOM     19  HN  UNK N   1      31.546  14.976   7.709  1.00  0.00     0.165 HD
HETATM   20  C   UNK N   1      33.830  15.259  10.049  0.00  0.00     0.100 A 
HETATM   21  C   UNK N   1      34.415  16.415   9.650  0.00  0.00     0.003 A 
HETATM   22  O   UNK N   1      34.409  14.811  11.131  0.00  0.00    -0.321 OA
HETATM   23  C   UNK N   1      33.981  17.100   8.520  0.00  0.00     0.040 A 
HETATM   24  C   UNK N   1      35.418  16.699  10.546  0.00  0.00     0.039 A 
HETATM   25  C   UNK N   1      35.375  15.649  11.469  0.00  0.00     0.143 A 
ENDBRANCH  14  16
ENDBRANCH   1  14
TORSDOF 4
ENDMDL
MODEL 6
REMARK VINA RESULT:      -6.3      2.013      2.873
REMARK  4 active torsions:
REMARK  status: ('A' for Active; 'I' for Inactive)
REMARK    1  A    between atoms: C_1  and  S_20 
REMARK    2  A    between atoms: C_4  and  N_21 
REMARK    3  A    between atoms: C_13  and  C_19 
REMARK    4  A    between atoms: C_19  and  S_20 
ROOT
HETATM    1  S   UNK N   1      29.851  16.511   4.107  0.00  0.00    -0.083 SA
ENDROOT
BRANCH   1   2
HETATM    2  C   UNK N   1      28.734  17.793   4.705  0.00  0.00     0.147 A 
HETATM    3  N   UNK N   1      28.607  18.017   6.040  0.00  0.00    -0.323 N 
HETATM    4  C   UNK N   1      27.810  19.009   6.512  0.00  0.00     0.103 A 
ATOM      5  HN  UNK N   1      29.119  17.430   6.698  1.00  0.00     0.169 HD
HETATM    6  C   UNK N   1      27.124  19.830   5.621  0.00  0.00     0.090 A 
HETATM    7  C   UNK N   1      27.273  19.599   4.256  0.00  0.00     0.108 A 
HETATM    8  N   UNK N   1      28.073  18.587   3.819  0.00  0.00    -0.327 N 
HETATM    9 Cl   UNK N   1      26.449  20.629   3.104  0.00  0.00    -0.064 Cl
ATOM     10  HN  UNK N   1      28.179  18.422   2.819  1.00  0.00     0.169 HD
BRANCH   4  11
HETATM   11  N   UNK N   1      27.687  19.214   7.899  0.00  0.00    -0.385 N 
HETATM   12  H   UNK N   1      26.817  19.448   8.296  0.00  0.00     0.157 HD
HETATM   13  H   UNK N   1      28.479  19.122   8.478  0.00  0.00     0.157 HD
ENDBRANCH   4  11
ENDBRANCH   1   2
BRANCH   1  14
HETATM   14  C   UNK N   1      31.432  17.405   4.376  0.00  0.00     0.101 C 
HETATM   15  C   UNK N   1      32.408  17.066   3.256  0.00  0.00     0.028 C 
BRANCH  14  16
HETATM   16  C   UNK N   1      32.016  17.014   5.717  0.00  0.00     0.024 A 
HETATM   17  N   UNK N   1      31.490  15.956   6.425  0.00  0.00    -0.365 N 
HETATM   18  C   UNK N   1      31.989  15.572   7.638  0.00  0.00     0.126 A 
ATOM     19  HN  UNK N   1      30.702  15.443   6.032  1.00  0.00     0.165 HD
HETATM   20  C   UNK N   1      33.057  16.286   8.156  0.00  0.00     0.100 A 
HETATM   21  C   UNK N   1      33.600  17.332   7.483  0.00  0.00     0.003 A 
HETATM   22  O   UNK N   1      33.685  16.105   9.288  0.00  0.00    -0.321 OA
HETATM   23  C   UNK N   1      33.111  17.735   6.245  0.00  0.00     0.040 A 
HETATM   24  C   UNK N   1      34.626  17.827   8.252  0.00  0.00     0.039 A 
HETATM   25  C   UNK N   1      34.641  17.014   9.389  0.00  0.00     0.143 A 
ENDBRANCH  14  16
ENDBRANCH   1  14
TORSDOF 4
ENDMDL
MODEL 7
REMARK VINA RESULT:      -6.2      7.302     10.055
REMARK  4 active torsions:
REMARK  status: ('A' for Active; 'I' for Inactive)
REMARK    1  A    between atoms: C_1  and  S_20 
REMARK    2  A    between atoms: C_4  and  N_21 
REMARK    3  A    between atoms: C_13  and  C_19 
REMARK    4  A    between atoms: C_19  and  S_20 
ROOT
HETATM    1  S   UNK N   1      36.535  13.317  10.549  0.00  0.00    -0.083 SA
ENDROOT
BRANCH   1   2
HETATM    2  C   UNK N   1      36.187  13.172  12.312  0.00  0.00     0.147 A 
HETATM    3  N   UNK N   1      36.827  13.977  13.201  0.00  0.00    -0.323 N 
HETATM    4  C   UNK N   1      36.545  13.920  14.527  0.00  0.00     0.103 A 
ATOM      5  HN  UNK N   1      37.531  14.634  12.866  1.00  0.00     0.169 HD
HETATM    6  C   UNK N   1      35.571  13.041  14.992  0.00  0.00     0.090 A 
HETATM    7  C   UNK N   1      34.913  12.232  14.069  0.00  0.00     0.108 A 
HETATM    8  N   UNK N   1      35.229  12.309  12.747  0.00  0.00    -0.327 N 
HETATM    9 Cl   UNK N   1      33.661  11.135  14.612  0.00  0.00    -0.064 Cl
ATOM     10  HN  UNK N   1      34.744  11.714  12.076  1.00  0.00     0.169 HD
BRANCH   4  11
HETATM   11  N   UNK N   1      37.230  14.756  15.429  0.00  0.00    -0.385 N 
HETATM   12  H   UNK N   1      37.924  15.377  15.108  0.00  0.00     0.157 HD
HETATM   13  H   UNK N   1      37.013  14.721  16.389  0.00  0.00     0.157 HD
ENDBRANCH   4  11
ENDBRANCH   1   2
BRANCH   1  14
HETATM   14  C   UNK N   1      34.869  12.868   9.923  0.00  0.00     0.101 C 
HETATM   15  C   UNK N   1      35.006  11.916   8.740  0.00  0.00     0.028 C 
BRANCH  14  16
HETATM   16  C   UNK N   1      34.128  14.120   9.505  0.00  0.00     0.024 A 
HETATM   17  N   UNK N   1      32.751  14.159   9.538  0.00  0.00    -0.365 N 
HETATM   18  C   UNK N   1      32.045  15.269   9.169  0.00  0.00     0.126 A 
ATOM     19  HN  UNK N   1      32.242  13.332   9.847  1.00  0.00     0.165 HD
HETATM   20  C   UNK N   1      32.756  16.381   8.748  0.00  0.00     0.100 A 
HETATM   21  C   UNK N   1      34.112  16.376   8.707  0.00  0.00     0.003 A 
HETATM   22  O   UNK N   1      32.298  17.537   8.347  0.00  0.00    -0.321 OA
HETATM   23  C   UNK N   1      34.850  15.259   9.083  0.00  0.00     0.040 A 
HETATM   24  C   UNK N   1      34.514  17.609   8.248  0.00  0.00     0.039 A 
HETATM   25  C   UNK N   1      33.323  18.311   8.034  0.00  0.00     0.143 A 
ENDBRANCH  14  16
ENDBRANCH   1  14
TORSDOF 4
ENDMDL
MODEL 8
REMARK VINA RESULT:      -6.2      6.460      9.314
REMARK  4 active torsions:
REMARK  status: ('A' for Active; 'I' for Inactive)
REMARK    1  A    between atoms: C_1  and  S_20 
REMARK    2  A    between atoms: C_4  and  N_21 
REMARK    3  A    between atoms: C_13  and  C_19 
REMARK    4  A    between atoms: C_19  and  S_20 
ROOT
HETATM    1  S   UNK N   1      35.320  16.084  10.557  0.00  0.00    -0.083 SA
ENDROOT
BRANCH   1   2
HETATM    2  C   UNK N   1      35.419  14.887  11.902  0.00  0.00     0.147 A 
HETATM    3  N   UNK N   1      34.830  13.669  11.773  0.00  0.00    -0.323 N 
HETATM    4  C   UNK N   1      34.933  12.734  12.752  0.00  0.00     0.103 A 
ATOM      5  HN  UNK N   1      34.301  13.453  10.928  1.00  0.00     0.169 HD
HETATM    6  C   UNK N   1      35.670  13.010  13.900  0.00  0.00     0.090 A 
HETATM    7  C   UNK N   1      36.279  14.256  14.013  0.00  0.00     0.108 A 
HETATM    8  N   UNK N   1      36.146  15.174  13.016  0.00  0.00    -0.327 N 
HETATM    9 Cl   UNK N   1      37.239  14.630  15.430  0.00  0.00    -0.064 Cl
ATOM     10  HN  UNK N   1      36.595  16.085  13.104  1.00  0.00     0.169 HD
BRANCH   4  11
HETATM   11  N   UNK N   1      34.304  11.483  12.599  0.00  0.00    -0.385 N 
HETATM   12  H   UNK N   1      34.118  11.122  11.702  0.00  0.00     0.157 HD
HETATM   13  H   UNK N   1      34.048  10.965  13.397  0.00  0.00     0.157 HD
ENDBRANCH   4  11
ENDBRANCH   1   2
BRANCH   1  14
HETATM   14  C   UNK N   1      34.533  14.996   9.305  0.00  0.00     0.101 C 
HETATM   15  C   UNK N   1      35.559  14.611   8.245  0.00  0.00     0.028 C 
BRANCH  14  16
HETATM   16  C   UNK N   1      33.364  15.715   8.667  0.00  0.00     0.024 A 
HETATM   17  N   UNK N   1      33.034  16.995   9.059  0.00  0.00    -0.365 N 
HETATM   18  C   UNK N   1      31.987  17.678   8.508  0.00  0.00     0.126 A 
ATOM     19  HN  UNK N   1      33.590  17.446   9.785  1.00  0.00     0.165 HD
HETATM   20  C   UNK N   1      31.243  17.044   7.526  0.00  0.00     0.100 A 
HETATM   21  C   UNK N   1      31.543  15.786   7.116  0.00  0.00     0.003 A 
HETATM   22  O   UNK N   1      30.206  17.496   6.872  0.00  0.00    -0.321 OA
HETATM   23  C   UNK N   1      32.608  15.075   7.660  0.00  0.00     0.040 A 
HETATM   24  C   UNK N   1      30.630  15.441   6.148  0.00  0.00     0.039 A 
HETATM   25  C   UNK N   1      29.801  16.561   6.028  0.00  0.00     0.143 A 
ENDBRANCH  14  16
ENDBRANCH   1  14
TORSDOF 4
ENDMDL
MODEL 9
REMARK VINA RESULT:      -6.1      3.307      4.348
REMARK  4 active torsions:
REMARK  status: ('A' for Active; 'I' for Inactive)
REMARK    1  A    between atoms: C_1  and  S_20 
REMARK    2  A    between atoms: C_4  and  N_21 
REMARK    3  A    between atoms: C_13  and  C_19 
REMARK    4  A    between atoms: C_19  and  S_20 
ROOT
HETATM    1  S   UNK N   1      26.361  19.764   4.030  0.00  0.00    -0.083 SA
ENDROOT
BRANCH   1   2
HETATM    2  C   UNK N   1      24.605  19.375   4.164  0.00  0.00     0.147 A 
HETATM    3  N   UNK N   1      23.712  19.961   3.324  0.00  0.00    -0.323 N 
HETATM    4  C   UNK N   1      22.392  19.647   3.373  0.00  0.00     0.103 A 
ATOM      5  HN  UNK N   1      24.038  20.650   2.645  1.00  0.00     0.169 HD
HETATM    6  C   UNK N   1      21.940  18.693   4.280  0.00  0.00     0.090 A 
HETATM    7  C   UNK N   1      22.868  18.089   5.125  0.00  0.00     0.108 A 
HETATM    8  N   UNK N   1      24.182  18.437   5.055  0.00  0.00    -0.327 N 
HETATM    9 Cl   UNK N   1      22.341  16.864   6.260  0.00  0.00    -0.064 Cl
ATOM     10  HN  UNK N   1      24.857  17.992   5.676  1.00  0.00     0.169 HD
BRANCH   4  11
HETATM   11  N   UNK N   1      21.486  20.277   2.499  0.00  0.00    -0.385 N 
HETATM   12  H   UNK N   1      21.778  20.586   1.611  0.00  0.00     0.157 HD
HETATM   13  H   UNK N   1      20.551  20.410   2.779  0.00  0.00     0.157 HD
ENDBRANCH   4  11
ENDBRANCH   1   2
BRANCH   1  14
HETATM   14  C   UNK N   1      26.705  20.004   5.817  0.00  0.00     0.101 C 
HETATM   15  C   UNK N   1      27.091  21.457   6.073  0.00  0.00     0.028 C 
BRANCH  14  16
HETATM   16  C   UNK N   1      27.822  19.080   6.250  0.00  0.00     0.024 A 
HETATM   17  N   UNK N   1      28.460  18.278   5.329  0.00  0.00    -0.365 N 
HETATM   18  C   UNK N   1      29.473  17.431   5.680  0.00  0.00     0.126 A 
ATOM     19  HN  UNK N   1      28.166  18.317   4.354  1.00  0.00     0.165 HD
HETATM   20  C   UNK N   1      29.854  17.390   7.011  0.00  0.00     0.100 A 
HETATM   21  C   UNK N   1      29.249  18.169   7.942  0.00  0.00     0.003 A 
HETATM   22  O   UNK N   1      30.783  16.660   7.569  0.00  0.00    -0.321 OA
HETATM   23  C   UNK N   1      28.220  19.042   7.605  0.00  0.00     0.040 A 
HETATM   24  C   UNK N   1      29.842  17.898   9.152  0.00  0.00     0.039 A 
HETATM   25  C   UNK N   1      30.812  16.933   8.863  0.00  0.00     0.143 A 
ENDBRANCH  14  16
ENDBRANCH   1  14
TORSDOF 4
ENDMDL
