MODEL 1
REMARK VINA RESULT:      -7.2      0.000      0.000
REMARK  7 active torsions:
REMARK  status: ('A' for Active; 'I' for Inactive)
REMARK    1  A    between atoms: C_1  and  O_7 
REMARK    2  A    between atoms: C_2  and  O_12 
REMARK    3  A    between atoms: S_4  and  N_6 
REMARK    4  A    between atoms: S_4  and  O_7 
REMARK    5  A    between atoms: C_23  and  O_26 
REMARK    6  A    between atoms: O_26  and  S_27 
REMARK    7  A    between atoms: S_27  and  N_30 
ROOT
HETATM    1  C   UNK N   1      36.396  13.434  12.598  0.00  0.00     0.124 A 
HETATM    2  C   UNK N   1      35.832  12.156  12.481  0.00  0.00     0.103 A 
HETATM    3  C   UNK N   1      35.324  11.511  13.624  0.00  0.00     0.047 A 
HETATM    4  C   UNK N   1      35.388  12.127  14.888  0.00  0.00    -0.044 A 
HETATM    5  C   UNK N   1      35.970  13.413  14.993  0.00  0.00    -0.049 A 
HETATM    6  C   UNK N   1      36.467  14.042  13.859  0.00  0.00     0.049 A 
HETATM    7  C   UNK N   1      34.820  11.436  16.117  0.00  0.00     0.024 C 
HETATM    8  C   UNK N   1      35.554  11.959  17.378  0.00  0.00    -0.001 C 
HETATM    9  C   UNK N   1      35.365  13.465  17.473  0.00  0.00     0.010 C 
HETATM   10  C   UNK N   1      36.070  14.154  16.304  0.00  0.00     0.039 C 
HETATM   11  C   UNK N   1      34.913   9.889  16.020  0.00  0.00     0.010 C 
HETATM   12  C   UNK N   1      34.510   9.165  17.329  0.00  0.00     0.013 C 
HETATM   13  C   UNK N   1      35.338   9.722  18.492  0.00  0.00    -0.012 C 
HETATM   14  C   UNK N   1      35.045  11.215  18.626  0.00  0.00     0.001 C 
HETATM   15  C   UNK N   1      36.828   9.445  18.196  0.00  0.00     0.018 C 
HETATM   16  C   UNK N   1      35.075   9.192  19.908  0.00  0.00     0.152 C 
HETATM   17  C   UNK N   1      35.578  10.330  20.812  0.00  0.00     0.034 C 
HETATM   18  C   UNK N   1      35.719  11.584  19.935  0.00  0.00     0.008 C 
ENDROOT
BRANCH   1  19
HETATM   19  O   UNK N   1      36.828  14.087  11.496  0.00  0.00    -0.214 OA
BRANCH  19  20
HETATM   20  S   UNK N   1      35.832  15.152  10.612  0.00  0.00     0.360 S 
HETATM   21  O   UNK N   1      36.382  16.585  10.664  0.00  0.00    -0.176 OA
HETATM   22  O   UNK N   1      35.847  14.753   9.130  0.00  0.00    -0.176 OA
BRANCH  20  23
HETATM   23  N   UNK N   1      34.151  15.154  11.157  0.00  0.00    -0.305 N 
HETATM   24  H   UNK N   1      33.318  14.567  11.127  0.00  0.00     0.171 HD
HETATM   25  H   UNK N   1      33.951  16.016  11.664  0.00  0.00     0.171 HD
ENDBRANCH  20  23
ENDBRANCH  19  20
ENDBRANCH   1  19
BRANCH   2  26
HETATM   26  O   UNK N   1      35.759  11.578  11.253  0.00  0.00    -0.353 OA
HETATM   27  C   UNK N   1      34.586  11.462  10.542  0.00  0.00     0.210 C 
ENDBRANCH   2  26
BRANCH  16  28
HETATM   28  O   UNK N   1      33.699   8.963  20.184  0.00  0.00    -0.254 OA
BRANCH  28  29
HETATM   29  S   UNK N   1      33.514   8.720  21.904  0.00  0.00     0.355 S 
HETATM   30  O   UNK N   1      32.282   7.918  22.346  0.00  0.00    -0.176 OA
HETATM   31  O   UNK N   1      33.750   7.340  21.277  0.00  0.00    -0.176 OA
BRANCH  29  32
HETATM   32  N   UNK N   1      32.063   9.467  21.223  0.00  0.00    -0.306 N 
HETATM   33  H   UNK N   1      31.789  10.415  21.483  0.00  0.00     0.171 HD
HETATM   34  H   UNK N   1      31.491   8.944  20.561  0.00  0.00     0.171 HD
ENDBRANCH  29  32
ENDBRANCH  28  29
ENDBRANCH  16  28
TORSDOF 7
ENDMDL
MODEL 2
REMARK VINA RESULT:      -7.1      9.897     13.799
REMARK  7 active torsions:
REMARK  status: ('A' for Active; 'I' for Inactive)
REMARK    1  A    between atoms: C_1  and  O_7 
REMARK    2  A    between atoms: C_2  and  O_12 
REMARK    3  A    between atoms: S_4  and  N_6 
REMARK    4  A    between atoms: S_4  and  O_7 
REMARK    5  A    between atoms: C_23  and  O_26 
REMARK    6  A    between atoms: O_26  and  S_27 
REMARK    7  A    between atoms: S_27  and  N_30 
ROOT
HETATM    1  C   UNK N   1      25.615  18.246   4.147  0.00  0.00     0.124 A 
HETATM    2  C   UNK N   1      26.122  16.977   3.831  0.00  0.00     0.103 A 
HETATM    3  C   UNK N   1      27.198  16.453   4.570  0.00  0.00     0.047 A 
HETATM    4  C   UNK N   1      27.784  17.192   5.615  0.00  0.00    -0.044 A 
HETATM    5  C   UNK N   1      27.270  18.477   5.916  0.00  0.00    -0.049 A 
HETATM    6  C   UNK N   1      26.206  18.984   5.182  0.00  0.00     0.049 A 
HETATM    7  C   UNK N   1      28.934  16.614   6.425  0.00  0.00     0.024 C 
HETATM    8  C   UNK N   1      29.778  17.776   7.009  0.00  0.00    -0.001 C 
HETATM    9  C   UNK N   1      28.888  18.645   7.884  0.00  0.00     0.010 C 
HETATM   10  C   UNK N   1      27.826  19.334   7.026  0.00  0.00     0.039 C 
HETATM   11  C   UNK N   1      29.817  15.648   5.589  0.00  0.00     0.010 C 
HETATM   12  C   UNK N   1      31.095  15.187   6.331  0.00  0.00     0.013 C 
HETATM   13  C   UNK N   1      31.876  16.416   6.810  0.00  0.00    -0.012 C 
HETATM   14  C   UNK N   1      30.991  17.210   7.769  0.00  0.00     0.001 C 
HETATM   15  C   UNK N   1      32.279  17.242   5.569  0.00  0.00     0.018 C 
HETATM   16  C   UNK N   1      33.161  16.206   7.622  0.00  0.00     0.152 C 
HETATM   17  C   UNK N   1      33.302  17.520   8.409  0.00  0.00     0.034 C 
HETATM   18  C   UNK N   1      31.945  18.239   8.348  0.00  0.00     0.008 C 
ENDROOT
BRANCH   1  19
HETATM   19  O   UNK N   1      24.541  18.730   3.484  0.00  0.00    -0.214 OA
BRANCH  19  20
HETATM   20  S   UNK N   1      22.946  18.526   4.052  0.00  0.00     0.360 S 
HETATM   21  O   UNK N   1      22.095  19.769   3.751  0.00  0.00    -0.176 OA
HETATM   22  O   UNK N   1      22.279  17.371   3.294  0.00  0.00    -0.176 OA
BRANCH  20  23
HETATM   23  N   UNK N   1      22.858  18.166   5.779  0.00  0.00    -0.305 N 
HETATM   24  H   UNK N   1      23.472  17.988   6.574  0.00  0.00     0.171 HD
HETATM   25  H   UNK N   1      21.883  18.124   6.077  0.00  0.00     0.171 HD
ENDBRANCH  20  23
ENDBRANCH  19  20
ENDBRANCH   1  19
BRANCH   2  26
HETATM   26  O   UNK N   1      25.538  16.265   2.832  0.00  0.00    -0.353 OA
HETATM   27  C   UNK N   1      26.251  15.524   1.918  0.00  0.00     0.210 C 
ENDBRANCH   2  26
BRANCH  16  28
HETATM   28  O   UNK N   1      33.081  15.127   8.545  0.00  0.00    -0.254 OA
BRANCH  28  29
HETATM   29  S   UNK N   1      34.239  15.407   9.824  0.00  0.00     0.355 S 
HETATM   30  O   UNK N   1      34.479  14.237  10.788  0.00  0.00    -0.176 OA
HETATM   31  O   UNK N   1      34.824  14.317   8.916  0.00  0.00    -0.176 OA
BRANCH  29  32
HETATM   32  N   UNK N   1      32.689  14.884  10.495  0.00  0.00    -0.306 N 
HETATM   33  H   UNK N   1      32.627  14.059  11.092  0.00  0.00     0.171 HD
HETATM   34  H   UNK N   1      31.844  15.414  10.282  0.00  0.00     0.171 HD
ENDBRANCH  29  32
ENDBRANCH  28  29
ENDBRANCH  16  28
TORSDOF 7
ENDMDL
MODEL 3
REMARK VINA RESULT:      -6.9      1.840      8.966
REMARK  7 active torsions:
REMARK  status: ('A' for Active; 'I' for Inactive)
REMARK    1  A    between atoms: C_1  and  O_7 
REMARK    2  A    between atoms: C_2  and  O_12 
REMARK    3  A    between atoms: S_4  and  N_6 
REMARK    4  A    between atoms: S_4  and  O_7 
REMARK    5  A    between atoms: C_23  and  O_26 
REMARK    6  A    between atoms: O_26  and  S_27 
REMARK    7  A    between atoms: S_27  and  N_30 
ROOT
HETATM    1  C   UNK N   1      35.383  10.259  20.165  0.00  0.00     0.124 A 
HETATM    2  C   UNK N   1      35.912   9.225  19.379  0.00  0.00     0.103 A 
HETATM    3  C   UNK N   1      36.242   9.472  18.034  0.00  0.00     0.047 A 
HETATM    4  C   UNK N   1      36.034  10.740  17.460  0.00  0.00    -0.044 A 
HETATM    5  C   UNK N   1      35.487  11.771  18.262  0.00  0.00    -0.049 A 
HETATM    6  C   UNK N   1      35.167  11.518  19.589  0.00  0.00     0.049 A 
HETATM    7  C   UNK N   1      36.411  11.008  16.012  0.00  0.00     0.024 C 
HETATM    8  C   UNK N   1      35.535  12.165  15.466  0.00  0.00    -0.001 C 
HETATM    9  C   UNK N   1      35.762  13.404  16.318  0.00  0.00     0.010 C 
HETATM   10  C   UNK N   1      35.241  13.164  17.736  0.00  0.00     0.039 C 
HETATM   11  C   UNK N   1      36.278   9.741  15.124  0.00  0.00     0.010 C 
HETATM   12  C   UNK N   1      36.480  10.025  13.615  0.00  0.00     0.013 C 
HETATM   13  C   UNK N   1      35.525  11.141  13.176  0.00  0.00    -0.012 C 
HETATM   14  C   UNK N   1      35.849  12.401  13.978  0.00  0.00     0.001 C 
HETATM   15  C   UNK N   1      34.078  10.656  13.414  0.00  0.00     0.018 C 
HETATM   16  C   UNK N   1      35.580  11.634  11.724  0.00  0.00     0.152 C 
HETATM   17  C   UNK N   1      35.002  13.057  11.810  0.00  0.00     0.034 C 
HETATM   18  C   UNK N   1      35.022  13.471  13.290  0.00  0.00     0.008 C 
ENDROOT
BRANCH   1  19
HETATM   19  O   UNK N   1      35.122  10.048  21.474  0.00  0.00    -0.214 OA
BRANCH  19  20
HETATM   20  S   UNK N   1      33.540   9.812  22.066  0.00  0.00     0.360 S 
HETATM   21  O   UNK N   1      32.610   9.305  20.954  0.00  0.00    -0.176 OA
HETATM   22  O   UNK N   1      33.555   8.708  23.132  0.00  0.00    -0.176 OA
BRANCH  20  23
HETATM   23  N   UNK N   1      32.841  11.261  22.794  0.00  0.00    -0.305 N 
HETATM   24  H   UNK N   1      33.128  12.163  23.173  0.00  0.00     0.171 HD
HETATM   25  H   UNK N   1      31.827  11.166  22.854  0.00  0.00     0.171 HD
ENDBRANCH  20  23
ENDBRANCH  19  20
ENDBRANCH   1  19
BRANCH   2  26
HETATM   26  O   UNK N   1      36.126   8.009  19.947  0.00  0.00    -0.353 OA
HETATM   27  C   UNK N   1      35.318   6.918  19.720  0.00  0.00     0.210 C 
ENDBRANCH   2  26
BRANCH  16  28
HETATM   28  O   UNK N   1      36.899  11.708  11.198  0.00  0.00    -0.254 OA
BRANCH  28  29
HETATM   29  S   UNK N   1      36.988  13.081  10.122  0.00  0.00     0.355 S 
HETATM   30  O   UNK N   1      38.299  13.245   9.340  0.00  0.00    -0.176 OA
HETATM   31  O   UNK N   1      37.037  11.821   9.248  0.00  0.00    -0.176 OA
BRANCH  29  32
HETATM   32  N   UNK N   1      38.342  13.096  11.260  0.00  0.00    -0.306 N 
HETATM   33  H   UNK N   1      38.288  12.594  12.146  0.00  0.00     0.171 HD
HETATM   34  H   UNK N   1      39.189  13.614  11.027  0.00  0.00     0.171 HD
ENDBRANCH  29  32
ENDBRANCH  28  29
ENDBRANCH  16  28
TORSDOF 7
ENDMDL
MODEL 4
REMARK VINA RESULT:      -6.8      8.699     11.889
REMARK  7 active torsions:
REMARK  status: ('A' for Active; 'I' for Inactive)
REMARK    1  A    between atoms: C_1  and  O_7 
REMARK    2  A    between atoms: C_2  and  O_12 
REMARK    3  A    between atoms: S_4  and  N_6 
REMARK    4  A    between atoms: S_4  and  O_7 
REMARK    5  A    between atoms: C_23  and  O_26 
REMARK    6  A    between atoms: O_26  and  S_27 
REMARK    7  A    between atoms: S_27  and  N_30 
ROOT
HETATM    1  C   UNK N   1      28.805  17.689   4.856  0.00  0.00     0.124 A 
HETATM    2  C   UNK N   1      28.619  17.147   6.136  0.00  0.00     0.103 A 
HETATM    3  C   UNK N   1      29.733  16.717   6.879  0.00  0.00     0.047 A 
HETATM    4  C   UNK N   1      31.033  16.810   6.350  0.00  0.00    -0.044 A 
HETATM    5  C   UNK N   1      31.206  17.348   5.052  0.00  0.00    -0.049 A 
HETATM    6  C   UNK N   1      30.100  17.771   4.327  0.00  0.00     0.049 A 
HETATM    7  C   UNK N   1      32.237  16.364   7.165  0.00  0.00     0.024 C 
HETATM    8  C   UNK N   1      33.382  15.962   6.200  0.00  0.00    -0.001 C 
HETATM    9  C   UNK N   1      33.737  17.155   5.327  0.00  0.00     0.010 C 
HETATM   10  C   UNK N   1      32.563  17.498   4.409  0.00  0.00     0.039 C 
HETATM   11  C   UNK N   1      31.893  15.202   8.137  0.00  0.00     0.010 C 
HETATM   12  C   UNK N   1      33.135  14.607   8.846  0.00  0.00     0.013 C 
HETATM   13  C   UNK N   1      34.171  14.193   7.795  0.00  0.00    -0.012 C 
HETATM   14  C   UNK N   1      34.583  15.435   7.005  0.00  0.00     0.001 C 
HETATM   15  C   UNK N   1      33.534  13.114   6.892  0.00  0.00     0.018 C 
HETATM   16  C   UNK N   1      35.515  13.622   8.265  0.00  0.00     0.152 C 
HETATM   17  C   UNK N   1      36.454  13.905   7.080  0.00  0.00     0.034 C 
HETATM   18  C   UNK N   1      35.764  14.946   6.186  0.00  0.00     0.008 C 
ENDROOT
BRANCH   1  19
HETATM   19  O   UNK N   1      27.747  18.162   4.161  0.00  0.00    -0.214 OA
BRANCH  19  20
HETATM   20  S   UNK N   1      26.969  19.626   4.560  0.00  0.00     0.360 S 
HETATM   21  O   UNK N   1      27.940  20.588   5.261  0.00  0.00    -0.176 OA
HETATM   22  O   UNK N   1      26.532  20.339   3.274  0.00  0.00    -0.176 OA
BRANCH  20  23
HETATM   23  N   UNK N   1      25.538  19.406   5.573  0.00  0.00    -0.305 N 
HETATM   24  H   UNK N   1      24.839  18.698   5.796  0.00  0.00     0.171 HD
HETATM   25  H   UNK N   1      25.353  20.256   6.103  0.00  0.00     0.171 HD
ENDBRANCH  20  23
ENDBRANCH  19  20
ENDBRANCH   1  19
BRANCH   2  26
HETATM   26  O   UNK N   1      27.361  17.078   6.645  0.00  0.00    -0.353 OA
HETATM   27  C   UNK N   1      26.632  15.912   6.699  0.00  0.00     0.210 C 
ENDBRANCH   2  26
BRANCH  16  28
HETATM   28  O   UNK N   1      36.033  14.266   9.423  0.00  0.00    -0.254 OA
BRANCH  28  29
HETATM   29  S   UNK N   1      36.973  13.103  10.327  0.00  0.00     0.355 S 
HETATM   30  O   UNK N   1      37.233  13.443  11.801  0.00  0.00    -0.176 OA
HETATM   31  O   UNK N   1      35.565  13.119  10.939  0.00  0.00    -0.176 OA
BRANCH  29  32
HETATM   32  N   UNK N   1      37.707  14.709  10.430  0.00  0.00    -0.306 N 
HETATM   33  H   UNK N   1      38.654  14.876  10.088  0.00  0.00     0.171 HD
HETATM   34  H   UNK N   1      37.177  15.480  10.835  0.00  0.00     0.171 HD
ENDBRANCH  29  32
ENDBRANCH  28  29
ENDBRANCH  16  28
TORSDOF 7
ENDMDL
MODEL 5
REMARK VINA RESULT:      -6.7      9.680     12.989
REMARK  7 active torsions:
REMARK  status: ('A' for Active; 'I' for Inactive)
REMARK    1  A    between atoms: C_1  and  O_7 
REMARK    2  A    between atoms: C_2  and  O_12 
REMARK    3  A    between atoms: S_4  and  N_6 
REMARK    4  A    between atoms: S_4  and  O_7 
REMARK    5  A    between atoms: C_23  and  O_26 
REMARK    6  A    between atoms: O_26  and  S_27 
REMARK    7  A    between atoms: S_27  and  N_30 
ROOT
HETATM    1  C   UNK N   1      27.632  15.672   3.068  0.00  0.00     0.124 A 
HETATM    2  C   UNK N   1      28.528  14.593   3.068  0.00  0.00     0.103 A 
HETATM    3  C   UNK N   1      29.534  14.523   4.049  0.00  0.00     0.047 A 
HETATM    4  C   UNK N   1      29.665  15.531   5.022  0.00  0.00    -0.044 A 
HETATM    5  C   UNK N   1      28.761  16.621   5.003  0.00  0.00    -0.049 A 
HETATM    6  C   UNK N   1      27.769  16.679   4.032  0.00  0.00     0.049 A 
HETATM    7  C   UNK N   1      30.741  15.442   6.093  0.00  0.00     0.024 C 
HETATM    8  C   UNK N   1      31.088  16.871   6.583  0.00  0.00    -0.001 C 
HETATM    9  C   UNK N   1      29.832  17.524   7.138  0.00  0.00     0.010 C 
HETATM   10  C   UNK N   1      28.817  17.740   6.014  0.00  0.00     0.039 C 
HETATM   11  C   UNK N   1      32.010  14.700   5.593  0.00  0.00     0.010 C 
HETATM   12  C   UNK N   1      33.188  14.752   6.597  0.00  0.00     0.013 C 
HETATM   13  C   UNK N   1      33.478  16.212   6.963  0.00  0.00    -0.012 C 
HETATM   14  C   UNK N   1      32.230  16.807   7.613  0.00  0.00     0.001 C 
HETATM   15  C   UNK N   1      33.876  16.961   5.673  0.00  0.00     0.018 C 
HETATM   16  C   UNK N   1      34.578  16.512   7.991  0.00  0.00     0.152 C 
HETATM   17  C   UNK N   1      34.181  17.893   8.541  0.00  0.00     0.034 C 
HETATM   18  C   UNK N   1      32.719  18.144   8.140  0.00  0.00     0.008 C 
ENDROOT
BRANCH   1  19
HETATM   19  O   UNK N   1      26.624  15.714   2.169  0.00  0.00    -0.214 OA
BRANCH  19  20
HETATM   20  S   UNK N   1      25.143  14.905   2.415  0.00  0.00     0.360 S 
HETATM   21  O   UNK N   1      24.164  15.784   3.207  0.00  0.00    -0.176 OA
HETATM   22  O   UNK N   1      24.470  14.649   1.060  0.00  0.00    -0.176 OA
BRANCH  20  23
HETATM   23  N   UNK N   1      25.322  13.350   3.235  0.00  0.00    -0.305 N 
HETATM   24  H   UNK N   1      24.929  12.409   3.223  0.00  0.00     0.171 HD
HETATM   25  H   UNK N   1      26.051  13.413   3.945  0.00  0.00     0.171 HD
ENDBRANCH  20  23
ENDBRANCH  19  20
ENDBRANCH   1  19
BRANCH   2  26
HETATM   26  O   UNK N   1      28.383  13.616   2.135  0.00  0.00    -0.353 OA
HETATM   27  C   UNK N   1      29.423  12.825   1.703  0.00  0.00     0.210 C 
ENDBRANCH   2  26
BRANCH  16  28
HETATM   28  O   UNK N   1      34.617  15.585   9.069  0.00  0.00    -0.254 OA
BRANCH  28  29
HETATM   29  S   UNK N   1      35.203  16.416  10.490  0.00  0.00     0.355 S 
HETATM   30  O   UNK N   1      35.575  15.530  11.687  0.00  0.00    -0.176 OA
HETATM   31  O   UNK N   1      36.364  15.568   9.953  0.00  0.00    -0.176 OA
BRANCH  29  32
HETATM   32  N   UNK N   1      33.824  15.386  10.898  0.00  0.00    -0.306 N 
HETATM   33  H   UNK N   1      33.715  15.003  11.836  0.00  0.00     0.171 HD
HETATM   34  H   UNK N   1      33.128  15.172  10.184  0.00  0.00     0.171 HD
ENDBRANCH  29  32
ENDBRANCH  28  29
ENDBRANCH  16  28
TORSDOF 7
ENDMDL
MODEL 6
REMARK VINA RESULT:      -6.4      1.896      9.374
REMARK  7 active torsions:
REMARK  status: ('A' for Active; 'I' for Inactive)
REMARK    1  A    between atoms: C_1  and  O_7 
REMARK    2  A    between atoms: C_2  and  O_12 
REMARK    3  A    between atoms: S_4  and  N_6 
REMARK    4  A    between atoms: S_4  and  O_7 
REMARK    5  A    between atoms: C_23  and  O_26 
REMARK    6  A    between atoms: O_26  and  S_27 
REMARK    7  A    between atoms: S_27  and  N_30 
ROOT
HETATM    1  C   UNK N   1      35.673   9.255  17.377  0.00  0.00     0.124 A 
HETATM    2  C   UNK N   1      35.960  10.597  17.663  0.00  0.00     0.103 A 
HETATM    3  C   UNK N   1      35.742  11.580  16.681  0.00  0.00     0.047 A 
HETATM    4  C   UNK N   1      35.253  11.233  15.408  0.00  0.00    -0.044 A 
HETATM    5  C   UNK N   1      34.979   9.873  15.129  0.00  0.00    -0.049 A 
HETATM    6  C   UNK N   1      35.196   8.910  16.105  0.00  0.00     0.049 A 
HETATM    7  C   UNK N   1      34.999  12.302  14.356  0.00  0.00     0.024 C 
HETATM    8  C   UNK N   1      35.106  11.663  12.948  0.00  0.00    -0.001 C 
HETATM    9  C   UNK N   1      34.084  10.542  12.833  0.00  0.00     0.010 C 
HETATM   10  C   UNK N   1      34.441   9.409  13.797  0.00  0.00     0.039 C 
HETATM   11  C   UNK N   1      35.967  13.508  14.496  0.00  0.00     0.010 C 
HETATM   12  C   UNK N   1      35.853  14.525  13.332  0.00  0.00     0.013 C 
HETATM   13  C   UNK N   1      36.032  13.792  11.998  0.00  0.00    -0.012 C 
HETATM   14  C   UNK N   1      34.927  12.745  11.868  0.00  0.00     0.001 C 
HETATM   15  C   UNK N   1      37.440  13.158  11.984  0.00  0.00     0.018 C 
HETATM   16  C   UNK N   1      35.906  14.589  10.693  0.00  0.00     0.152 C 
HETATM   17  C   UNK N   1      35.531  13.516   9.657  0.00  0.00     0.034 C 
HETATM   18  C   UNK N   1      35.066  12.273  10.432  0.00  0.00     0.008 C 
ENDROOT
BRANCH   1  19
HETATM   19  O   UNK N   1      35.820   8.312  18.334  0.00  0.00    -0.214 OA
BRANCH  19  20
HETATM   20  S   UNK N   1      34.534   7.822  19.341  0.00  0.00     0.360 S 
HETATM   21  O   UNK N   1      34.914   7.962  20.823  0.00  0.00    -0.176 OA
HETATM   22  O   UNK N   1      33.335   8.756  19.129  0.00  0.00    -0.176 OA
BRANCH  20  23
HETATM   23  N   UNK N   1      33.996   6.167  19.034  0.00  0.00    -0.305 N 
HETATM   24  H   UNK N   1      33.136   5.622  18.977  0.00  0.00     0.171 HD
HETATM   25  H   UNK N   1      34.800   5.567  18.856  0.00  0.00     0.171 HD
ENDBRANCH  20  23
ENDBRANCH  19  20
ENDBRANCH   1  19
BRANCH   2  26
HETATM   26  O   UNK N   1      36.414  10.924  18.901  0.00  0.00    -0.353 OA
HETATM   27  C   UNK N   1      35.634  11.542  19.852  0.00  0.00     0.210 C 
ENDBRANCH   2  26
BRANCH  16  28
HETATM   28  O   UNK N   1      34.880  15.573  10.724  0.00  0.00    -0.254 OA
BRANCH  28  29
HETATM   29  S   UNK N   1      34.921  16.461   9.220  0.00  0.00     0.355 S 
HETATM   30  O   UNK N   1      34.111  17.764   9.180  0.00  0.00    -0.176 OA
HETATM   31  O   UNK N   1      35.608  17.335  10.278  0.00  0.00    -0.176 OA
BRANCH  29  32
HETATM   32  N   UNK N   1      33.252  16.118   9.692  0.00  0.00    -0.306 N 
HETATM   33  H   UNK N   1      32.867  16.485  10.563  0.00  0.00     0.171 HD
HETATM   34  H   UNK N   1      32.665  15.545   9.087  0.00  0.00     0.171 HD
ENDBRANCH  29  32
ENDBRANCH  28  29
ENDBRANCH  16  28
TORSDOF 7
ENDMDL
MODEL 7
REMARK VINA RESULT:      -6.4      8.726     13.161
REMARK  7 active torsions:
REMARK  status: ('A' for Active; 'I' for Inactive)
REMARK    1  A    between atoms: C_1  and  O_7 
REMARK    2  A    between atoms: C_2  and  O_12 
REMARK    3  A    between atoms: S_4  and  N_6 
REMARK    4  A    between atoms: S_4  and  O_7 
REMARK    5  A    between atoms: C_23  and  O_26 
REMARK    6  A    between atoms: O_26  and  S_27 
REMARK    7  A    between atoms: S_27  and  N_30 
ROOT
HETATM    1  C   UNK N   1      35.372  14.452   8.199  0.00  0.00     0.124 A 
HETATM    2  C   UNK N   1      35.499  15.068   6.946  0.00  0.00     0.103 A 
HETATM    3  C   UNK N   1      34.454  15.871   6.455  0.00  0.00     0.047 A 
HETATM    4  C   UNK N   1      33.273  16.054   7.198  0.00  0.00    -0.044 A 
HETATM    5  C   UNK N   1      33.153  15.416   8.457  0.00  0.00    -0.049 A 
HETATM    6  C   UNK N   1      34.191  14.627   8.934  0.00  0.00     0.049 A 
HETATM    7  C   UNK N   1      32.155  16.939   6.673  0.00  0.00     0.024 C 
HETATM    8  C   UNK N   1      30.810  16.477   7.291  0.00  0.00    -0.001 C 
HETATM    9  C   UNK N   1      30.902  16.569   8.806  0.00  0.00     0.010 C 
HETATM   10  C   UNK N   1      31.930  15.564   9.329  0.00  0.00     0.039 C 
HETATM   11  C   UNK N   1      32.083  16.943   5.123  0.00  0.00     0.010 C 
HETATM   12  C   UNK N   1      30.845  17.689   4.566  0.00  0.00     0.013 C 
HETATM   13  C   UNK N   1      29.576  17.110   5.201  0.00  0.00    -0.012 C 
HETATM   14  C   UNK N   1      29.654  17.313   6.713  0.00  0.00     0.001 C 
HETATM   15  C   UNK N   1      29.486  15.617   4.818  0.00  0.00     0.018 C 
HETATM   16  C   UNK N   1      28.220  17.730   4.840  0.00  0.00     0.152 C 
HETATM   17  C   UNK N   1      27.332  17.364   6.041  0.00  0.00     0.034 C 
HETATM   18  C   UNK N   1      28.263  16.932   7.185  0.00  0.00     0.008 C 
ENDROOT
BRANCH   1  19
HETATM   19  O   UNK N   1      36.396  13.730   8.706  0.00  0.00    -0.214 OA
BRANCH  19  20
HETATM   20  S   UNK N   1      37.375  14.301   9.980  0.00  0.00     0.360 S 
HETATM   21  O   UNK N   1      37.673  13.179  10.986  0.00  0.00    -0.176 OA
HETATM   22  O   UNK N   1      38.738  14.732   9.422  0.00  0.00    -0.176 OA
BRANCH  20  23
HETATM   23  N   UNK N   1      36.678  15.679  10.837  0.00  0.00    -0.305 N 
HETATM   24  H   UNK N   1      36.791  16.689  10.917  0.00  0.00     0.171 HD
HETATM   25  H   UNK N   1      35.921  15.365  11.444  0.00  0.00     0.171 HD
ENDBRANCH  20  23
ENDBRANCH  19  20
ENDBRANCH   1  19
BRANCH   2  26
HETATM   26  O   UNK N   1      36.651  14.900   6.244  0.00  0.00    -0.353 OA
HETATM   27  C   UNK N   1      36.758  14.055   5.163  0.00  0.00     0.210 C 
ENDBRANCH   2  26
BRANCH  16  28
HETATM   28  O   UNK N   1      28.256  19.145   4.713  0.00  0.00    -0.254 OA
BRANCH  28  29
HETATM   29  S   UNK N   1      26.663  19.773   5.060  0.00  0.00     0.355 S 
HETATM   30  O   UNK N   1      26.454  21.272   4.805  0.00  0.00    -0.176 OA
HETATM   31  O   UNK N   1      26.880  19.905   3.547  0.00  0.00    -0.176 OA
BRANCH  29  32
HETATM   32  N   UNK N   1      27.894  20.686   5.942  0.00  0.00    -0.306 N 
HETATM   33  H   UNK N   1      28.620  21.203   5.445  0.00  0.00     0.171 HD
HETATM   34  H   UNK N   1      27.879  20.697   6.961  0.00  0.00     0.171 HD
ENDBRANCH  29  32
ENDBRANCH  28  29
ENDBRANCH  16  28
TORSDOF 7
ENDMDL
MODEL 8
REMARK VINA RESULT:      -6.4      5.103     11.263
REMARK  7 active torsions:
REMARK  status: ('A' for Active; 'I' for Inactive)
REMARK    1  A    between atoms: C_1  and  O_7 
REMARK    2  A    between atoms: C_2  and  O_12 
REMARK    3  A    between atoms: S_4  and  N_6 
REMARK    4  A    between atoms: S_4  and  O_7 
REMARK    5  A    between atoms: C_23  and  O_26 
REMARK    6  A    between atoms: O_26  and  S_27 
REMARK    7  A    between atoms: S_27  and  N_30 
ROOT
HETATM    1  C   UNK N   1      35.885  13.187  13.143  0.00  0.00     0.124 A 
HETATM    2  C   UNK N   1      35.854  12.218  12.130  0.00  0.00     0.103 A 
HETATM    3  C   UNK N   1      35.658  12.612  10.794  0.00  0.00     0.047 A 
HETATM    4  C   UNK N   1      35.478  13.968  10.461  0.00  0.00    -0.044 A 
HETATM    5  C   UNK N   1      35.500  14.935  11.495  0.00  0.00    -0.049 A 
HETATM    6  C   UNK N   1      35.696  14.535  12.810  0.00  0.00     0.049 A 
HETATM    7  C   UNK N   1      35.287  14.392   9.013  0.00  0.00     0.024 C 
HETATM    8  C   UNK N   1      34.498  15.726   8.975  0.00  0.00    -0.001 C 
HETATM    9  C   UNK N   1      35.273  16.783   9.747  0.00  0.00     0.010 C 
HETATM   10  C   UNK N   1      35.328  16.410  11.230  0.00  0.00     0.039 C 
HETATM   11  C   UNK N   1      34.577  13.301   8.167  0.00  0.00     0.010 C 
HETATM   12  C   UNK N   1      34.208  13.773   6.739  0.00  0.00     0.013 C 
HETATM   13  C   UNK N   1      33.383  15.063   6.829  0.00  0.00    -0.012 C 
HETATM   14  C   UNK N   1      34.229  16.133   7.516  0.00  0.00     0.001 C 
HETATM   15  C   UNK N   1      32.089  14.751   7.613  0.00  0.00     0.018 C 
HETATM   16  C   UNK N   1      32.943  15.751   5.530  0.00  0.00     0.152 C 
HETATM   17  C   UNK N   1      32.724  17.212   5.961  0.00  0.00     0.034 C 
HETATM   18  C   UNK N   1      33.410  17.397   7.323  0.00  0.00     0.008 C 
ENDROOT
BRANCH   1  19
HETATM   19  O   UNK N   1      36.135  12.824  14.420  0.00  0.00    -0.214 OA
BRANCH  19  20
HETATM   20  S   UNK N   1      34.920  12.228  15.458  0.00  0.00     0.360 S 
HETATM   21  O   UNK N   1      35.537  11.527  16.677  0.00  0.00    -0.176 OA
HETATM   22  O   UNK N   1      34.108  13.403  16.019  0.00  0.00    -0.176 OA
BRANCH  20  23
HETATM   23  N   UNK N   1      33.797  11.123  14.659  0.00  0.00    -0.305 N 
HETATM   24  H   UNK N   1      33.250  10.285  14.856  0.00  0.00     0.171 HD
HETATM   25  H   UNK N   1      33.649  11.415  13.693  0.00  0.00     0.171 HD
ENDBRANCH  20  23
ENDBRANCH  19  20
ENDBRANCH   1  19
BRANCH   2  26
HETATM   26  O   UNK N   1      36.047  10.914  12.460  0.00  0.00    -0.353 OA
HETATM   27  C   UNK N   1      35.946   9.883  11.554  0.00  0.00     0.210 C 
ENDBRANCH   2  26
BRANCH  16  28
HETATM   28  O   UNK N   1      33.930  15.720   4.507  0.00  0.00    -0.254 OA
BRANCH  28  29
HETATM   29  S   UNK N   1      33.379  14.650   3.240  0.00  0.00     0.355 S 
HETATM   30  O   UNK N   1      34.063  14.808   1.875  0.00  0.00    -0.176 OA
HETATM   31  O   UNK N   1      34.840  14.285   3.535  0.00  0.00    -0.176 OA
BRANCH  29  32
HETATM   32  N   UNK N   1      33.258  16.337   2.724  0.00  0.00    -0.306 N 
HETATM   33  H   UNK N   1      34.094  16.901   2.572  0.00  0.00     0.171 HD
HETATM   34  H   UNK N   1      32.339  16.753   2.576  0.00  0.00     0.171 HD
ENDBRANCH  29  32
ENDBRANCH  28  29
ENDBRANCH  16  28
TORSDOF 7
ENDMDL
MODEL 9
REMARK VINA RESULT:      -6.3      7.477     10.822
REMARK  7 active torsions:
REMARK  status: ('A' for Active; 'I' for Inactive)
REMARK    1  A    between atoms: C_1  and  O_7 
REMARK    2  A    between atoms: C_2  and  O_12 
REMARK    3  A    between atoms: S_4  and  N_6 
REMARK    4  A    between atoms: S_4  and  O_7 
REMARK    5  A    between atoms: C_23  and  O_26 
REMARK    6  A    between atoms: O_26  and  S_27 
REMARK    7  A    between atoms: S_27  and  N_30 
ROOT
HETATM    1  C   UNK N   1      29.478  17.612   5.718  0.00  0.00     0.124 A 
HETATM    2  C   UNK N   1      29.280  17.391   7.089  0.00  0.00     0.103 A 
HETATM    3  C   UNK N   1      30.359  16.977   7.891  0.00  0.00     0.047 A 
HETATM    4  C   UNK N   1      31.634  16.768   7.333  0.00  0.00    -0.044 A 
HETATM    5  C   UNK N   1      31.817  16.984   5.946  0.00  0.00    -0.049 A 
HETATM    6  C   UNK N   1      30.746  17.394   5.163  0.00  0.00     0.049 A 
HETATM    7  C   UNK N   1      32.803  16.341   8.207  0.00  0.00     0.024 C 
HETATM    8  C   UNK N   1      33.837  15.582   7.336  0.00  0.00    -0.001 C 
HETATM    9  C   UNK N   1      34.309  16.497   6.216  0.00  0.00     0.010 C 
HETATM   10  C   UNK N   1      33.150  16.797   5.264  0.00  0.00     0.039 C 
HETATM   11  C   UNK N   1      32.351  15.477   9.415  0.00  0.00     0.010 C 
HETATM   12  C   UNK N   1      33.532  14.879  10.219  0.00  0.00     0.013 C 
HETATM   13  C   UNK N   1      34.453  14.105   9.267  0.00  0.00    -0.012 C 
HETATM   14  C   UNK N   1      34.992  15.076   8.218  0.00  0.00     0.001 C 
HETATM   15  C   UNK N   1      33.634  12.959   8.635  0.00  0.00     0.018 C 
HETATM   16  C   UNK N   1      35.728  13.464   9.830  0.00  0.00     0.152 C 
HETATM   17  C   UNK N   1      36.640  13.348   8.597  0.00  0.00     0.034 C 
HETATM   18  C   UNK N   1      36.056  14.259   7.507  0.00  0.00     0.008 C 
ENDROOT
BRANCH   1  19
HETATM   19  O   UNK N   1      28.462  18.070   4.953  0.00  0.00    -0.214 OA
BRANCH  19  20
HETATM   20  S   UNK N   1      27.423  17.027   4.091  0.00  0.00     0.360 S 
HETATM   21  O   UNK N   1      26.697  16.068   5.045  0.00  0.00    -0.176 OA
HETATM   22  O   UNK N   1      26.323  17.852   3.411  0.00  0.00    -0.176 OA
BRANCH  20  23
HETATM   23  N   UNK N   1      28.251  16.090   2.843  0.00  0.00    -0.305 N 
HETATM   24  H   UNK N   1      29.071  16.143   2.239  0.00  0.00     0.171 HD
HETATM   25  H   UNK N   1      27.748  15.219   2.671  0.00  0.00     0.171 HD
ENDBRANCH  20  23
ENDBRANCH  19  20
ENDBRANCH   1  19
BRANCH   2  26
HETATM   26  O   UNK N   1      28.049  17.613   7.621  0.00  0.00    -0.353 OA
HETATM   27  C   UNK N   1      27.817  17.696   8.975  0.00  0.00     0.210 C 
ENDBRANCH   2  26
BRANCH  16  28
HETATM   28  O   UNK N   1      36.381  14.261  10.809  0.00  0.00    -0.254 OA
BRANCH  28  29
HETATM   29  S   UNK N   1      35.881  13.714  12.391  0.00  0.00     0.355 S 
HETATM   30  O   UNK N   1      36.801  14.090  13.561  0.00  0.00    -0.176 OA
HETATM   31  O   UNK N   1      35.823  15.247  12.405  0.00  0.00    -0.176 OA
BRANCH  29  32
HETATM   32  N   UNK N   1      37.523  13.163  12.035  0.00  0.00    -0.306 N 
HETATM   33  H   UNK N   1      38.185  13.766  11.548  0.00  0.00     0.171 HD
HETATM   34  H   UNK N   1      37.813  12.228  12.322  0.00  0.00     0.171 HD
ENDBRANCH  29  32
ENDBRANCH  28  29
ENDBRANCH  16  28
TORSDOF 7
ENDMDL
