MODEL 1
REMARK VINA RESULT:      -8.3      0.000      0.000
REMARK  5 active torsions:
REMARK  status: ('A' for Active; 'I' for Inactive)
REMARK    1  A    between atoms: O_2  and  C_5 
REMARK    2  A    between atoms: O_2  and  S_11 
REMARK    3  A    between atoms: N_7  and  S_11 
REMARK    4  A    between atoms: N_24  and  C_27 
REMARK    5  A    between atoms: C_27  and  C_28 
ROOT
HETATM    1  O   UNK N   1      36.439  14.941  13.946  0.00  0.00    -0.273 OA
HETATM    2  C   UNK N   1      33.473   9.652  21.521  0.00  0.00     0.091 A 
HETATM    3  C   UNK N   1      34.187  10.812  21.247  0.00  0.00     0.045 A 
HETATM    4  C   UNK N   1      34.751  11.002  19.994  0.00  0.00    -0.049 A 
HETATM    5  C   UNK N   1      34.565  10.048  18.970  0.00  0.00    -0.047 A 
HETATM    6  C   UNK N   1      33.813   8.896  19.234  0.00  0.00     0.011 A 
HETATM    7  C   UNK N   1      33.278   8.693  20.512  0.00  0.00     0.039 A 
HETATM    8  C   UNK N   1      35.599  12.202  19.755  0.00  0.00     0.039 C 
HETATM    9  C   UNK N   1      35.246  12.734  18.388  0.00  0.00     0.010 C 
HETATM   10  C   UNK N   1      35.646  11.719  17.299  0.00  0.00    -0.000 C 
HETATM   11  C   UNK N   1      35.300  10.237  17.664  0.00  0.00     0.024 C 
HETATM   12  C   UNK N   1      35.098  12.194  15.948  0.00  0.00     0.016 C 
HETATM   13  C   UNK N   1      35.361  11.166  14.844  0.00  0.00     0.042 C 
HETATM   14  C   UNK N   1      34.563   9.898  15.184  0.00  0.00     0.020 C 
HETATM   15  C   UNK N   1      35.018   9.253  16.506  0.00  0.00     0.011 C 
HETATM   16  C   UNK N   1      36.849  10.811  14.736  0.00  0.00     0.026 C 
HETATM   17  C   UNK N   1      35.843  13.490  15.637  0.00  0.00     0.109 C 
HETATM   18  C   UNK N   1      35.913  13.870  14.197  0.00  0.00     0.227 C 
HETATM   19  N   UNK N   1      35.398  13.061  13.197  0.00  0.00    -0.283 N 
HETATM   20  C   UNK N   1      34.986  11.783  13.506  0.00  0.00     0.235 C 
HETATM   21  O   UNK N   1      34.413  11.100  12.664  0.00  0.00    -0.272 OA
ENDROOT
BRANCH  19  22
HETATM   22  C   UNK N   1      35.293  13.497  11.795  0.00  0.00     0.174 C 
BRANCH  22  23
HETATM   23  C   UNK N   1      36.557  13.436  10.984  0.00  0.00    -0.024 A 
HETATM   24  C   UNK N   1      37.228  12.222  10.812  0.00  0.00     0.011 A 
HETATM   25  C   UNK N   1      38.446  12.196  10.131  0.00  0.00     0.018 A 
HETATM   26  C   UNK N   1      38.983  13.390   9.642  0.00  0.00     0.087 A 
HETATM   27  N   UNK N   1      38.312  14.562   9.813  0.00  0.00    -0.375 N 
HETATM   28  C   UNK N   1      37.120  14.607  10.464  0.00  0.00     0.096 A 
ATOM     29  HN  UNK N   1      38.713  15.424   9.444  1.00  0.00     0.164 HD
ENDBRANCH  22  23
ENDBRANCH  19  22
BRANCH   2  30
HETATM   30  O   UNK N   1      33.062   9.437  22.782  0.00  0.00    -0.217 OA
BRANCH  30  31
HETATM   31  S   UNK N   1      34.145   8.855  23.950  0.00  0.00     0.360 S 
HETATM   32  O   UNK N   1      33.337   8.249  25.110  0.00  0.00    -0.176 OA
HETATM   33  O   UNK N   1      34.946   7.679  23.372  0.00  0.00    -0.176 OA
BRANCH  31  34
HETATM   34  N   UNK N   1      35.253  10.063  24.598  0.00  0.00    -0.305 N 
HETATM   35  H   UNK N   1      35.282  10.495  25.521  0.00  0.00     0.171 HD
HETATM   36  H   UNK N   1      35.974  10.378  23.950  0.00  0.00     0.171 HD
ENDBRANCH  31  34
ENDBRANCH  30  31
ENDBRANCH   2  30
TORSDOF 5
ENDMDL
MODEL 2
REMARK VINA RESULT:      -8.2      3.073      4.506
REMARK  5 active torsions:
REMARK  status: ('A' for Active; 'I' for Inactive)
REMARK    1  A    between atoms: O_2  and  C_5 
REMARK    2  A    between atoms: O_2  and  S_11 
REMARK    3  A    between atoms: N_7  and  S_11 
REMARK    4  A    between atoms: N_24  and  C_27 
REMARK    5  A    between atoms: C_27  and  C_28 
ROOT
HETATM    1  O   UNK N   1      36.228  16.675  10.845  0.00  0.00    -0.273 OA
HETATM    2  C   UNK N   1      34.927  10.233  17.982  0.00  0.00     0.091 A 
HETATM    3  C   UNK N   1      35.355  11.541  17.794  0.00  0.00     0.045 A 
HETATM    4  C   UNK N   1      35.791  11.957  16.544  0.00  0.00    -0.049 A 
HETATM    5  C   UNK N   1      35.756  11.077  15.441  0.00  0.00    -0.047 A 
HETATM    6  C   UNK N   1      35.288   9.769  15.621  0.00  0.00     0.011 A 
HETATM    7  C   UNK N   1      34.886   9.344  16.893  0.00  0.00     0.039 A 
HETATM    8  C   UNK N   1      36.343  13.330  16.390  0.00  0.00     0.039 C 
HETATM    9  C   UNK N   1      35.804  13.887  15.095  0.00  0.00     0.010 C 
HETATM   10  C   UNK N   1      36.349  13.082  13.899  0.00  0.00    -0.000 C 
HETATM   11  C   UNK N   1      36.355  11.535  14.132  0.00  0.00     0.024 C 
HETATM   12  C   UNK N   1      35.634  13.538  12.622  0.00  0.00     0.016 C 
HETATM   13  C   UNK N   1      36.048  12.693  11.414  0.00  0.00     0.042 C 
HETATM   14  C   UNK N   1      35.565  11.255  11.661  0.00  0.00     0.020 C 
HETATM   15  C   UNK N   1      36.225  10.616  12.896  0.00  0.00     0.011 C 
HETATM   16  C   UNK N   1      37.569  12.686  11.217  0.00  0.00     0.026 C 
HETATM   17  C   UNK N   1      36.061  14.989  12.409  0.00  0.00     0.109 C 
HETATM   18  C   UNK N   1      35.963  15.497  11.011  0.00  0.00     0.227 C 
HETATM   19  N   UNK N   1      35.578  14.683   9.958  0.00  0.00    -0.283 N 
HETATM   20  C   UNK N   1      35.471  13.324  10.158  0.00  0.00     0.235 C 
HETATM   21  O   UNK N   1      35.012  12.606   9.276  0.00  0.00    -0.272 OA
ENDROOT
BRANCH  19  22
HETATM   22  C   UNK N   1      35.299  15.204   8.609  0.00  0.00     0.174 C 
BRANCH  22  23
HETATM   23  C   UNK N   1      34.105  16.106   8.480  0.00  0.00    -0.024 A 
HETATM   24  C   UNK N   1      34.247  17.399   7.970  0.00  0.00     0.011 A 
HETATM   25  C   UNK N   1      33.144  18.255   7.939  0.00  0.00     0.018 A 
HETATM   26  C   UNK N   1      31.915  17.808   8.431  0.00  0.00     0.087 A 
HETATM   27  N   UNK N   1      31.794  16.542   8.918  0.00  0.00    -0.375 N 
HETATM   28  C   UNK N   1      32.852  15.691   8.949  0.00  0.00     0.096 A 
ATOM     29  HN  UNK N   1      30.889  16.227   9.267  1.00  0.00     0.164 HD
ENDBRANCH  22  23
ENDBRANCH  19  22
BRANCH   2  30
HETATM   30  O   UNK N   1      34.646   9.825  19.231  0.00  0.00    -0.217 OA
BRANCH  30  31
HETATM   31  S   UNK N   1      35.898   9.459  20.315  0.00  0.00     0.360 S 
HETATM   32  O   UNK N   1      35.431   8.322  21.239  0.00  0.00    -0.176 OA
HETATM   33  O   UNK N   1      37.094   8.876  19.548  0.00  0.00    -0.176 OA
BRANCH  31  34
HETATM   34  N   UNK N   1      36.435  10.813  21.308  0.00  0.00    -0.305 N 
HETATM   35  H   UNK N   1      36.104  11.128  22.220  0.00  0.00     0.171 HD
HETATM   36  H   UNK N   1      37.192  11.367  20.908  0.00  0.00     0.171 HD
ENDBRANCH  31  34
ENDBRANCH  30  31
ENDBRANCH   2  30
TORSDOF 5
ENDMDL
MODEL 3
REMARK VINA RESULT:      -8.0      2.337      2.883
REMARK  5 active torsions:
REMARK  status: ('A' for Active; 'I' for Inactive)
REMARK    1  A    between atoms: O_2  and  C_5 
REMARK    2  A    between atoms: O_2  and  S_11 
REMARK    3  A    between atoms: N_7  and  S_11 
REMARK    4  A    between atoms: N_24  and  C_27 
REMARK    5  A    between atoms: C_27  and  C_28 
ROOT
HETATM    1  O   UNK N   1      36.432  15.196  13.528  0.00  0.00    -0.273 OA
HETATM    2  C   UNK N   1      33.927   8.493  20.080  0.00  0.00     0.091 A 
HETATM    3  C   UNK N   1      34.266   9.839  20.011  0.00  0.00     0.045 A 
HETATM    4  C   UNK N   1      34.971  10.322  18.917  0.00  0.00    -0.049 A 
HETATM    5  C   UNK N   1      35.305   9.469  17.843  0.00  0.00    -0.047 A 
HETATM    6  C   UNK N   1      34.929   8.120  17.896  0.00  0.00     0.011 A 
HETATM    7  C   UNK N   1      34.252   7.631  19.019  0.00  0.00     0.039 A 
HETATM    8  C   UNK N   1      35.414  11.743  18.912  0.00  0.00     0.039 C 
HETATM    9  C   UNK N   1      35.180  12.279  17.522  0.00  0.00     0.010 C 
HETATM   10  C   UNK N   1      36.089  11.556  16.509  0.00  0.00    -0.000 C 
HETATM   11  C   UNK N   1      36.178  10.011  16.735  0.00  0.00     0.024 C 
HETATM   12  C   UNK N   1      35.690  11.977  15.089  0.00  0.00     0.016 C 
HETATM   13  C   UNK N   1      36.480  11.201  14.031  0.00  0.00     0.042 C 
HETATM   14  C   UNK N   1      36.084   9.720  14.144  0.00  0.00     0.020 C 
HETATM   15  C   UNK N   1      36.458   9.114  15.509  0.00  0.00     0.011 C 
HETATM   16  C   UNK N   1      37.994  11.335  14.236  0.00  0.00     0.026 C 
HETATM   17  C   UNK N   1      36.022  13.465  14.995  0.00  0.00     0.109 C 
HETATM   18  C   UNK N   1      36.243  13.995  13.619  0.00  0.00     0.227 C 
HETATM   19  N   UNK N   1      36.222  13.175  12.502  0.00  0.00    -0.283 N 
HETATM   20  C   UNK N   1      36.192  11.808  12.668  0.00  0.00     0.235 C 
HETATM   21  O   UNK N   1      36.046  11.073  11.697  0.00  0.00    -0.272 OA
ENDROOT
BRANCH  19  22
HETATM   22  C   UNK N   1      36.255  13.702  11.128  0.00  0.00     0.174 C 
BRANCH  22  23
HETATM   23  C   UNK N   1      34.923  13.939  10.476  0.00  0.00    -0.024 A 
HETATM   24  C   UNK N   1      34.559  13.225   9.331  0.00  0.00     0.011 A 
HETATM   25  C   UNK N   1      33.356  13.519   8.686  0.00  0.00     0.018 A 
HETATM   26  C   UNK N   1      32.539  14.535   9.189  0.00  0.00     0.087 A 
HETATM   27  N   UNK N   1      32.906  15.215  10.309  0.00  0.00    -0.375 N 
HETATM   28  C   UNK N   1      34.068  14.938  10.957  0.00  0.00     0.096 A 
ATOM     29  HN  UNK N   1      32.296  15.949  10.670  1.00  0.00     0.164 HD
ENDBRANCH  22  23
ENDBRANCH  19  22
BRANCH   2  30
HETATM   30  O   UNK N   1      33.371   8.032  21.214  0.00  0.00    -0.217 OA
BRANCH  30  31
HETATM   31  S   UNK N   1      31.828   7.328  21.187  0.00  0.00     0.360 S 
HETATM   32  O   UNK N   1      31.954   5.890  20.657  0.00  0.00    -0.176 OA
HETATM   33  O   UNK N   1      31.304   7.174  22.622  0.00  0.00    -0.176 OA
BRANCH  31  34
HETATM   34  N   UNK N   1      30.639   8.191  20.213  0.00  0.00    -0.305 N 
HETATM   35  H   UNK N   1      30.713   9.086  19.731  0.00  0.00     0.171 HD
HETATM   36  H   UNK N   1      29.738   7.722  20.117  0.00  0.00     0.171 HD
ENDBRANCH  31  34
ENDBRANCH  30  31
ENDBRANCH   2  30
TORSDOF 5
ENDMDL
MODEL 4
REMARK VINA RESULT:      -8.0      6.135     11.556
REMARK  5 active torsions:
REMARK  status: ('A' for Active; 'I' for Inactive)
REMARK    1  A    between atoms: O_2  and  C_5 
REMARK    2  A    between atoms: O_2  and  S_11 
REMARK    3  A    between atoms: N_7  and  S_11 
REMARK    4  A    between atoms: N_24  and  C_27 
REMARK    5  A    between atoms: C_27  and  C_28 
ROOT
HETATM    1  O   UNK N   1      36.421  10.700  11.575  0.00  0.00    -0.273 OA
HETATM    2  C   UNK N   1      30.602  17.026   7.075  0.00  0.00     0.091 A 
HETATM    3  C   UNK N   1      31.064  15.723   6.940  0.00  0.00     0.045 A 
HETATM    4  C   UNK N   1      32.228  15.328   7.583  0.00  0.00    -0.049 A 
HETATM    5  C   UNK N   1      32.926  16.224   8.421  0.00  0.00    -0.047 A 
HETATM    6  C   UNK N   1      32.439  17.527   8.589  0.00  0.00     0.011 A 
HETATM    7  C   UNK N   1      31.285  17.931   7.906  0.00  0.00     0.039 A 
HETATM    8  C   UNK N   1      32.762  13.960   7.341  0.00  0.00     0.039 C 
HETATM    9  C   UNK N   1      33.231  13.421   8.670  0.00  0.00     0.010 C 
HETATM   10  C   UNK N   1      34.424  14.246   9.190  0.00  0.00    -0.000 C 
HETATM   11  C   UNK N   1      34.252  15.789   9.000  0.00  0.00     0.024 C 
HETATM   12  C   UNK N   1      34.749  13.806  10.623  0.00  0.00     0.016 C 
HETATM   13  C   UNK N   1      35.852  14.671  11.239  0.00  0.00     0.042 C 
HETATM   14  C   UNK N   1      35.307  16.103  11.366  0.00  0.00     0.020 C 
HETATM   15  C   UNK N   1      34.966  16.726  10.000  0.00  0.00     0.011 C 
HETATM   16  C   UNK N   1      37.116  14.689  10.372  0.00  0.00     0.026 C 
HETATM   17  C   UNK N   1      35.229  12.361  10.508  0.00  0.00     0.109 C 
HETATM   18  C   UNK N   1      36.096  11.874  11.620  0.00  0.00     0.227 C 
HETATM   19  N   UNK N   1      36.500  12.702  12.654  0.00  0.00    -0.283 N 
HETATM   20  C   UNK N   1      36.268  14.057  12.566  0.00  0.00     0.235 C 
HETATM   21  O   UNK N   1      36.504  14.786  13.523  0.00  0.00    -0.272 OA
ENDROOT
BRANCH  19  22
HETATM   22  C   UNK N   1      37.199  12.200  13.849  0.00  0.00     0.174 C 
BRANCH  22  23
HETATM   23  C   UNK N   1      36.332  11.635  14.937  0.00  0.00    -0.024 A 
HETATM   24  C   UNK N   1      35.944  12.431  16.017  0.00  0.00     0.011 A 
HETATM   25  C   UNK N   1      35.211  11.868  17.064  0.00  0.00     0.018 A 
HETATM   26  C   UNK N   1      34.887  10.509  17.020  0.00  0.00     0.087 A 
HETATM   27  N   UNK N   1      35.267   9.750  15.955  0.00  0.00    -0.375 N 
HETATM   28  C   UNK N   1      35.972  10.281  14.923  0.00  0.00     0.096 A 
ATOM     29  HN  UNK N   1      35.017   8.762  15.933  1.00  0.00     0.164 HD
ENDBRANCH  22  23
ENDBRANCH  19  22
BRANCH   2  30
HETATM   30  O   UNK N   1      29.554  17.413   6.328  0.00  0.00    -0.217 OA
BRANCH  30  31
HETATM   31  S   UNK N   1      28.099  17.875   7.066  0.00  0.00     0.360 S 
HETATM   32  O   UNK N   1      27.965  17.123   8.401  0.00  0.00    -0.176 OA
HETATM   33  O   UNK N   1      28.164  19.359   7.456  0.00  0.00    -0.176 OA
BRANCH  31  34
HETATM   34  N   UNK N   1      26.654  17.580   6.101  0.00  0.00    -0.305 N 
HETATM   35  H   UNK N   1      26.564  17.307   5.123  0.00  0.00     0.171 HD
HETATM   36  H   UNK N   1      25.771  17.702   6.598  0.00  0.00     0.171 HD
ENDBRANCH  31  34
ENDBRANCH  30  31
ENDBRANCH   2  30
TORSDOF 5
ENDMDL
MODEL 5
REMARK VINA RESULT:      -7.8      8.657     12.798
REMARK  5 active torsions:
REMARK  status: ('A' for Active; 'I' for Inactive)
REMARK    1  A    between atoms: O_2  and  C_5 
REMARK    2  A    between atoms: O_2  and  S_11 
REMARK    3  A    between atoms: N_7  and  S_11 
REMARK    4  A    between atoms: N_24  and  C_27 
REMARK    5  A    between atoms: C_27  and  C_28 
ROOT
HETATM    1  O   UNK N   1      28.559  17.578   3.689  0.00  0.00    -0.273 OA
HETATM    2  C   UNK N   1      35.531  15.846  10.211  0.00  0.00     0.091 A 
HETATM    3  C   UNK N   1      34.562  16.798   9.916  0.00  0.00     0.045 A 
HETATM    4  C   UNK N   1      34.036  16.878   8.635  0.00  0.00    -0.049 A 
HETATM    5  C   UNK N   1      34.435  15.967   7.634  0.00  0.00    -0.047 A 
HETATM    6  C   UNK N   1      35.384  14.982   7.942  0.00  0.00     0.011 A 
HETATM    7  C   UNK N   1      35.939  14.931   9.226  0.00  0.00     0.039 A 
HETATM    8  C   UNK N   1      33.077  17.971   8.313  0.00  0.00     0.039 C 
HETATM    9  C   UNK N   1      31.983  17.372   7.465  0.00  0.00     0.010 C 
HETATM   10  C   UNK N   1      32.551  16.905   6.111  0.00  0.00    -0.000 C 
HETATM   11  C   UNK N   1      33.928  16.171   6.226  0.00  0.00     0.024 C 
HETATM   12  C   UNK N   1      31.468  16.124   5.356  0.00  0.00     0.016 C 
HETATM   13  C   UNK N   1      32.008  15.532   4.052  0.00  0.00     0.042 C 
HETATM   14  C   UNK N   1      33.079  14.492   4.419  0.00  0.00     0.020 C 
HETATM   15  C   UNK N   1      34.280  15.117   5.152  0.00  0.00     0.011 C 
HETATM   16  C   UNK N   1      32.635  16.605   3.154  0.00  0.00     0.026 C 
HETATM   17  C   UNK N   1      30.371  17.142   5.047  0.00  0.00     0.109 C 
HETATM   18  C   UNK N   1      29.484  16.811   3.896  0.00  0.00     0.227 C 
HETATM   19  N   UNK N   1      29.687  15.688   3.109  0.00  0.00    -0.283 N 
HETATM   20  C   UNK N   1      30.845  14.957   3.260  0.00  0.00     0.235 C 
HETATM   21  O   UNK N   1      30.984  13.894   2.665  0.00  0.00    -0.272 OA
ENDROOT
BRANCH  19  22
HETATM   22  C   UNK N   1      28.722  15.247   2.088  0.00  0.00     0.174 C 
BRANCH  22  23
HETATM   23  C   UNK N   1      27.703  14.236   2.531  0.00  0.00    -0.024 A 
HETATM   24  C   UNK N   1      27.676  12.962   1.958  0.00  0.00     0.011 A 
HETATM   25  C   UNK N   1      26.669  12.064   2.316  0.00  0.00     0.018 A 
HETATM   26  C   UNK N   1      25.693  12.460   3.235  0.00  0.00     0.087 A 
HETATM   27  N   UNK N   1      25.740  13.703   3.789  0.00  0.00    -0.375 N 
HETATM   28  C   UNK N   1      26.717  14.588   3.460  0.00  0.00     0.096 A 
ATOM     29  HN  UNK N   1      25.026  13.975   4.464  1.00  0.00     0.164 HD
ENDBRANCH  22  23
ENDBRANCH  19  22
BRANCH   2  30
HETATM   30  O   UNK N   1      36.120  15.888  11.419  0.00  0.00    -0.217 OA
BRANCH  30  31
HETATM   31  S   UNK N   1      36.165  14.504  12.398  0.00  0.00     0.360 S 
HETATM   32  O   UNK N   1      36.437  14.938  13.848  0.00  0.00    -0.176 OA
HETATM   33  O   UNK N   1      34.776  13.851  12.437  0.00  0.00    -0.176 OA
BRANCH  31  34
HETATM   34  N   UNK N   1      37.369  13.305  11.929  0.00  0.00    -0.305 N 
HETATM   35  H   UNK N   1      37.658  12.448  12.400  0.00  0.00     0.171 HD
HETATM   36  H   UNK N   1      37.851  13.499  11.051  0.00  0.00     0.171 HD
ENDBRANCH  31  34
ENDBRANCH  30  31
ENDBRANCH   2  30
TORSDOF 5
ENDMDL
MODEL 6
REMARK VINA RESULT:      -7.8      1.513      1.851
REMARK  5 active torsions:
REMARK  status: ('A' for Active; 'I' for Inactive)
REMARK    1  A    between atoms: O_2  and  C_5 
REMARK    2  A    between atoms: O_2  and  S_11 
REMARK    3  A    between atoms: N_7  and  S_11 
REMARK    4  A    between atoms: N_24  and  C_27 
REMARK    5  A    between atoms: C_27  and  C_28 
ROOT
HETATM    1  O   UNK N   1      35.872  15.270  12.797  0.00  0.00    -0.273 OA
HETATM    2  C   UNK N   1      34.313   9.467  20.415  0.00  0.00     0.091 A 
HETATM    3  C   UNK N   1      34.755  10.753  20.130  0.00  0.00     0.045 A 
HETATM    4  C   UNK N   1      35.231  11.059  18.863  0.00  0.00    -0.049 A 
HETATM    5  C   UNK N   1      35.225  10.088  17.838  0.00  0.00    -0.047 A 
HETATM    6  C   UNK N   1      34.743   8.802  18.116  0.00  0.00     0.011 A 
HETATM    7  C   UNK N   1      34.299   8.489  19.406  0.00  0.00     0.039 A 
HETATM    8  C   UNK N   1      35.797  12.412  18.609  0.00  0.00     0.039 C 
HETATM    9  C   UNK N   1      35.301  12.857  17.255  0.00  0.00     0.010 C 
HETATM   10  C   UNK N   1      35.877  11.952  16.150  0.00  0.00    -0.000 C 
HETATM   11  C   UNK N   1      35.866  10.430  16.514  0.00  0.00     0.024 C 
HETATM   12  C   UNK N   1      35.204  12.299  14.817  0.00  0.00     0.016 C 
HETATM   13  C   UNK N   1      35.649  11.352  13.699  0.00  0.00     0.042 C 
HETATM   14  C   UNK N   1      35.149   9.942  14.053  0.00  0.00     0.020 C 
HETATM   15  C   UNK N   1      35.768   9.409  15.358  0.00  0.00     0.011 C 
HETATM   16  C   UNK N   1      37.175  11.323  13.550  0.00  0.00     0.026 C 
HETATM   17  C   UNK N   1      35.647  13.725  14.494  0.00  0.00     0.109 C 
HETATM   18  C   UNK N   1      35.594  14.111  13.055  0.00  0.00     0.227 C 
HETATM   19  N   UNK N   1      35.237  13.211  12.064  0.00  0.00    -0.283 N 
HETATM   20  C   UNK N   1      35.115  11.875  12.376  0.00  0.00     0.235 C 
HETATM   21  O   UNK N   1      34.678  11.086  11.545  0.00  0.00    -0.272 OA
ENDROOT
BRANCH  19  22
HETATM   22  C   UNK N   1      35.002  13.616  10.668  0.00  0.00     0.174 C 
BRANCH  22  23
HETATM   23  C   UNK N   1      36.169  13.477   9.732  0.00  0.00    -0.024 A 
HETATM   24  C   UNK N   1      37.473  13.683  10.191  0.00  0.00     0.011 A 
HETATM   25  C   UNK N   1      38.538  13.637   9.291  0.00  0.00     0.018 A 
HETATM   26  C   UNK N   1      38.282  13.396   7.938  0.00  0.00     0.087 A 
HETATM   27  N   UNK N   1      37.007  13.190   7.510  0.00  0.00    -0.375 N 
HETATM   28  C   UNK N   1      35.957  13.222   8.372  0.00  0.00     0.096 A 
ATOM     29  HN  UNK N   1      36.836  13.008   6.521  1.00  0.00     0.164 HD
ENDBRANCH  22  23
ENDBRANCH  19  22
BRANCH   2  30
HETATM   30  O   UNK N   1      33.992   9.169  21.686  0.00  0.00    -0.217 OA
BRANCH  30  31
HETATM   31  S   UNK N   1      32.429   9.473  22.269  0.00  0.00     0.360 S 
HETATM   32  O   UNK N   1      31.576  10.034  21.119  0.00  0.00    -0.176 OA
HETATM   33  O   UNK N   1      31.751   8.150  22.652  0.00  0.00    -0.176 OA
BRANCH  31  34
HETATM   34  N   UNK N   1      32.352  10.592  23.630  0.00  0.00    -0.305 N 
HETATM   35  H   UNK N   1      32.146  11.590  23.645  0.00  0.00     0.171 HD
HETATM   36  H   UNK N   1      32.545  10.176  24.541  0.00  0.00     0.171 HD
ENDBRANCH  31  34
ENDBRANCH  30  31
ENDBRANCH   2  30
TORSDOF 5
ENDMDL
MODEL 7
REMARK VINA RESULT:      -7.6     22.671     25.891
REMARK  5 active torsions:
REMARK  status: ('A' for Active; 'I' for Inactive)
REMARK    1  A    between atoms: O_2  and  C_5 
REMARK    2  A    between atoms: O_2  and  S_11 
REMARK    3  A    between atoms: N_7  and  S_11 
REMARK    4  A    between atoms: N_24  and  C_27 
REMARK    5  A    between atoms: C_27  and  C_28 
ROOT
HETATM    1  O   UNK N   1      26.982  24.360  -2.791  0.00  0.00    -0.273 OA
HETATM    2  C   UNK N   1      35.313  19.837  -4.854  0.00  0.00     0.091 A 
HETATM    3  C   UNK N   1      34.365  19.910  -3.842  0.00  0.00     0.045 A 
HETATM    4  C   UNK N   1      33.522  21.009  -3.758  0.00  0.00    -0.049 A 
HETATM    5  C   UNK N   1      33.581  22.036  -4.725  0.00  0.00    -0.047 A 
HETATM    6  C   UNK N   1      34.511  21.943  -5.769  0.00  0.00     0.011 A 
HETATM    7  C   UNK N   1      35.385  20.851  -5.825  0.00  0.00     0.039 A 
HETATM    8  C   UNK N   1      32.585  21.118  -2.607  0.00  0.00     0.039 C 
HETATM    9  C   UNK N   1      31.268  21.617  -3.146  0.00  0.00     0.010 C 
HETATM   10  C   UNK N   1      31.423  23.050  -3.692  0.00  0.00    -0.000 C 
HETATM   11  C   UNK N   1      32.731  23.269  -4.523  0.00  0.00     0.024 C 
HETATM   12  C   UNK N   1      30.129  23.454  -4.410  0.00  0.00     0.016 C 
HETATM   13  C   UNK N   1      30.263  24.825  -5.078  0.00  0.00     0.042 C 
HETATM   14  C   UNK N   1      31.323  24.706  -6.185  0.00  0.00     0.020 C 
HETATM   15  C   UNK N   1      32.714  24.346  -5.631  0.00  0.00     0.011 C 
HETATM   16  C   UNK N   1      30.696  25.907  -4.080  0.00  0.00     0.026 C 
HETATM   17  C   UNK N   1      29.059  23.510  -3.323  0.00  0.00     0.109 C 
HETATM   18  C   UNK N   1      27.877  24.370  -3.619  0.00  0.00     0.227 C 
HETATM   19  N   UNK N   1      27.789  25.128  -4.776  0.00  0.00    -0.283 N 
HETATM   20  C   UNK N   1      28.896  25.254  -5.586  0.00  0.00     0.235 C 
HETATM   21  O   UNK N   1      28.803  25.814  -6.673  0.00  0.00    -0.272 OA
ENDROOT
BRANCH  19  22
HETATM   22  C   UNK N   1      26.561  25.836  -5.172  0.00  0.00     0.174 C 
BRANCH  22  23
HETATM   23  C   UNK N   1      26.458  27.274  -4.749  0.00  0.00    -0.024 A 
HETATM   24  C   UNK N   1      27.090  28.276  -5.491  0.00  0.00     0.011 A 
HETATM   25  C   UNK N   1      27.059  29.596  -5.037  0.00  0.00     0.018 A 
HETATM   26  C   UNK N   1      26.406  29.893  -3.837  0.00  0.00     0.087 A 
HETATM   27  N   UNK N   1      25.790  28.905  -3.131  0.00  0.00    -0.375 N 
HETATM   28  C   UNK N   1      25.801  27.616  -3.561  0.00  0.00     0.096 A 
ATOM     29  HN  UNK N   1      25.311  29.138  -2.262  1.00  0.00     0.164 HD
ENDBRANCH  22  23
ENDBRANCH  19  22
BRANCH   2  30
HETATM   30  O   UNK N   1      36.205  18.831  -4.823  0.00  0.00    -0.217 OA
BRANCH  30  31
HETATM   31  S   UNK N   1      35.948  17.429  -5.743  0.00  0.00     0.360 S 
HETATM   32  O   UNK N   1      35.554  16.285  -4.794  0.00  0.00    -0.176 OA
HETATM   33  O   UNK N   1      34.728  17.623  -6.654  0.00  0.00    -0.176 OA
BRANCH  31  34
HETATM   34  N   UNK N   1      37.331  16.915  -6.708  0.00  0.00    -0.305 N 
HETATM   35  H   UNK N   1      37.552  17.101  -7.686  0.00  0.00     0.171 HD
HETATM   36  H   UNK N   1      38.014  16.343  -6.212  0.00  0.00     0.171 HD
ENDBRANCH  31  34
ENDBRANCH  30  31
ENDBRANCH   2  30
TORSDOF 5
ENDMDL
MODEL 8
REMARK VINA RESULT:      -7.6     10.211     15.009
REMARK  5 active torsions:
REMARK  status: ('A' for Active; 'I' for Inactive)
REMARK    1  A    between atoms: O_2  and  C_5 
REMARK    2  A    between atoms: O_2  and  S_11 
REMARK    3  A    between atoms: N_7  and  S_11 
REMARK    4  A    between atoms: N_24  and  C_27 
REMARK    5  A    between atoms: C_27  and  C_28 
ROOT
HETATM    1  O   UNK N   1      32.911  15.093  10.101  0.00  0.00    -0.273 OA
HETATM    2  C   UNK N   1      26.532  20.072   4.749  0.00  0.00     0.091 A 
HETATM    3  C   UNK N   1      26.575  19.283   5.891  0.00  0.00     0.045 A 
HETATM    4  C   UNK N   1      27.632  18.405   6.089  0.00  0.00    -0.049 A 
HETATM    5  C   UNK N   1      28.696  18.340   5.164  0.00  0.00    -0.047 A 
HETATM    6  C   UNK N   1      28.671  19.165   4.031  0.00  0.00     0.011 A 
HETATM    7  C   UNK N   1      27.584  20.020   3.818  0.00  0.00     0.039 A 
HETATM    8  C   UNK N   1      27.606  17.494   7.266  0.00  0.00     0.039 C 
HETATM    9  C   UNK N   1      29.001  17.463   7.839  0.00  0.00     0.010 C 
HETATM   10  C   UNK N   1      29.977  16.818   6.835  0.00  0.00    -0.000 C 
HETATM   11  C   UNK N   1      29.759  17.284   5.358  0.00  0.00     0.024 C 
HETATM   12  C   UNK N   1      31.410  16.980   7.356  0.00  0.00     0.016 C 
HETATM   13  C   UNK N   1      32.437  16.463   6.345  0.00  0.00     0.042 C 
HETATM   14  C   UNK N   1      32.354  17.355   5.096  0.00  0.00     0.020 C 
HETATM   15  C   UNK N   1      30.978  17.278   4.408  0.00  0.00     0.011 C 
HETATM   16  C   UNK N   1      32.162  15.008   5.945  0.00  0.00     0.026 C 
HETATM   17  C   UNK N   1      31.477  16.147   8.634  0.00  0.00     0.109 C 
HETATM   18  C   UNK N   1      32.838  15.693   9.042  0.00  0.00     0.227 C 
HETATM   19  N   UNK N   1      33.961  15.947   8.272  0.00  0.00    -0.283 N 
HETATM   20  C   UNK N   1      33.808  16.459   7.002  0.00  0.00     0.235 C 
HETATM   21  O   UNK N   1      34.789  16.808   6.356  0.00  0.00    -0.272 OA
ENDROOT
BRANCH  19  22
HETATM   22  C   UNK N   1      35.328  15.670   8.742  0.00  0.00     0.174 C 
BRANCH  22  23
HETATM   23  C   UNK N   1      35.736  14.225   8.780  0.00  0.00    -0.024 A 
HETATM   24  C   UNK N   1      35.521  13.400   7.673  0.00  0.00     0.011 A 
HETATM   25  C   UNK N   1      35.824  12.040   7.755  0.00  0.00     0.018 A 
HETATM   26  C   UNK N   1      36.329  11.521   8.951  0.00  0.00     0.087 A 
HETATM   27  N   UNK N   1      36.539  12.341  10.017  0.00  0.00    -0.375 N 
HETATM   28  C   UNK N   1      36.259  13.669   9.954  0.00  0.00     0.096 A 
ATOM     29  HN  UNK N   1      36.915  11.950  10.880  1.00  0.00     0.164 HD
ENDBRANCH  22  23
ENDBRANCH  19  22
BRANCH   2  30
HETATM   30  O   UNK N   1      25.428  20.805   4.520  0.00  0.00    -0.217 OA
BRANCH  30  31
HETATM   31  S   UNK N   1      24.342  20.360   3.296  0.00  0.00     0.360 S 
HETATM   32  O   UNK N   1      23.270  21.456   3.169  0.00  0.00    -0.176 OA
HETATM   33  O   UNK N   1      25.063  20.356   1.940  0.00  0.00    -0.176 OA
BRANCH  31  34
HETATM   34  N   UNK N   1      23.542  18.810   3.546  0.00  0.00    -0.305 N 
HETATM   35  H   UNK N   1      23.922  17.923   3.877  0.00  0.00     0.171 HD
HETATM   36  H   UNK N   1      22.547  18.797   3.324  0.00  0.00     0.171 HD
ENDBRANCH  31  34
ENDBRANCH  30  31
ENDBRANCH   2  30
TORSDOF 5
ENDMDL
MODEL 9
REMARK VINA RESULT:      -7.5      2.434      3.625
REMARK  5 active torsions:
REMARK  status: ('A' for Active; 'I' for Inactive)
REMARK    1  A    between atoms: O_2  and  C_5 
REMARK    2  A    between atoms: O_2  and  S_11 
REMARK    3  A    between atoms: N_7  and  S_11 
REMARK    4  A    between atoms: N_24  and  C_27 
REMARK    5  A    between atoms: C_27  and  C_28 
ROOT
HETATM    1  O   UNK N   1      37.253  11.126  11.382  0.00  0.00    -0.273 OA
HETATM    2  C   UNK N   1      37.118   9.228  20.896  0.00  0.00     0.091 A 
HETATM    3  C   UNK N   1      37.256   8.568  19.681  0.00  0.00     0.045 A 
HETATM    4  C   UNK N   1      36.795   9.158  18.514  0.00  0.00    -0.049 A 
HETATM    5  C   UNK N   1      36.229  10.452  18.537  0.00  0.00    -0.047 A 
HETATM    6  C   UNK N   1      36.125  11.133  19.756  0.00  0.00     0.011 A 
HETATM    7  C   UNK N   1      36.558  10.516  20.936  0.00  0.00     0.039 A 
HETATM    8  C   UNK N   1      36.858   8.391  17.240  0.00  0.00     0.039 C 
HETATM    9  C   UNK N   1      37.307   9.347  16.163  0.00  0.00     0.010 C 
HETATM   10  C   UNK N   1      36.243  10.439  15.938  0.00  0.00    -0.000 C 
HETATM   11  C   UNK N   1      35.630  11.001  17.263  0.00  0.00     0.024 C 
HETATM   12  C   UNK N   1      36.810  11.502  14.989  0.00  0.00     0.016 C 
HETATM   13  C   UNK N   1      35.841  12.676  14.820  0.00  0.00     0.042 C 
HETATM   14  C   UNK N   1      35.709  13.375  16.182  0.00  0.00     0.020 C 
HETATM   15  C   UNK N   1      35.105  12.455  17.259  0.00  0.00     0.011 C 
HETATM   16  C   UNK N   1      34.456  12.211  14.356  0.00  0.00     0.026 C 
HETATM   17  C   UNK N   1      37.003  10.793  13.651  0.00  0.00     0.109 C 
HETATM   18  C   UNK N   1      37.023  11.673  12.447  0.00  0.00     0.227 C 
HETATM   19  N   UNK N   1      36.804  13.039  12.530  0.00  0.00    -0.283 N 
HETATM   20  C   UNK N   1      36.364  13.582  13.717  0.00  0.00     0.235 C 
HETATM   21  O   UNK N   1      36.287  14.799  13.847  0.00  0.00    -0.272 OA
ENDROOT
BRANCH  19  22
HETATM   22  C   UNK N   1      36.998  13.947  11.388  0.00  0.00     0.174 C 
BRANCH  22  23
HETATM   23  C   UNK N   1      35.751  14.499  10.759  0.00  0.00    -0.024 A 
HETATM   24  C   UNK N   1      34.846  13.648  10.119  0.00  0.00     0.011 A 
HETATM   25  C   UNK N   1      33.736  14.185   9.463  0.00  0.00     0.018 A 
HETATM   26  C   UNK N   1      33.554  15.571   9.448  0.00  0.00     0.087 A 
HETATM   27  N   UNK N   1      34.442  16.384  10.083  0.00  0.00    -0.375 N 
HETATM   28  C   UNK N   1      35.523  15.880  10.734  0.00  0.00     0.096 A 
ATOM     29  HN  UNK N   1      34.292  17.393  10.070  1.00  0.00     0.164 HD
ENDBRANCH  22  23
ENDBRANCH  19  22
BRANCH   2  30
HETATM   30  O   UNK N   1      37.446   8.570  22.022  0.00  0.00    -0.217 OA
BRANCH  30  31
HETATM   31  S   UNK N   1      38.522   9.260  23.135  0.00  0.00     0.360 S 
HETATM   32  O   UNK N   1      39.160   8.133  23.965  0.00  0.00    -0.176 OA
HETATM   33  O   UNK N   1      39.695   9.910  22.388  0.00  0.00    -0.176 OA
BRANCH  31  34
HETATM   34  N   UNK N   1      37.797  10.433  24.233  0.00  0.00    -0.305 N 
HETATM   35  H   UNK N   1      38.236  11.161  24.796  0.00  0.00     0.171 HD
HETATM   36  H   UNK N   1      36.783  10.374  24.320  0.00  0.00     0.171 HD
ENDBRANCH  31  34
ENDBRANCH  30  31
ENDBRANCH   2  30
TORSDOF 5
ENDMDL
