MODEL 1
REMARK VINA RESULT:      -5.2      0.000      0.000
REMARK  6 active torsions:
REMARK  status: ('A' for Active; 'I' for Inactive)
REMARK    1  A    between atoms: P_1  and  O_4 
REMARK    2  A    between atoms: C_5  and  O_4 
REMARK    3  A    between atoms: C_5  and  C_6 
REMARK    4  A    between atoms: C_5  and  C_8 
REMARK    5  A    between atoms: C_8  and  O_9 
REMARK    6  A    between atoms: O_9  and  C_14 
ROOT
HETATM    1  C   UNK N   1      28.731  24.008  -4.176  0.00  0.00     0.154 C 
ENDROOT
BRANCH   1   2
HETATM    2  O   UNK N   1      29.472  22.806  -4.032  0.00  0.00    -0.316 OA
BRANCH   2   3
HETATM    3  P   UNK N   1      31.061  23.074  -3.335  0.00  0.00     0.284 P 
HETATM    4  C   UNK N   1      31.029  21.215  -3.383  0.00  0.00     0.135 C 
HETATM    5  O   UNK N   1      30.897  22.829  -1.812  0.00  0.00    -0.274 OA
HETATM    6 Cl   UNK N   1      32.849  22.312  -4.175  0.00  0.00    -0.027 Cl
ENDBRANCH   2   3
ENDBRANCH   1   2
BRANCH   1   7
HETATM    7  C   UNK N   1      29.601  25.280  -4.084  0.00  0.00     0.030 C 
HETATM    8  C   UNK N   1      29.386  26.213  -5.265  0.00  0.00     0.007 C 
ENDBRANCH   1   7
BRANCH   1   9
HETATM    9  C   UNK N   1      27.722  24.006  -3.027  0.00  0.00     0.208 C 
BRANCH   9  10
HETATM   10  O   UNK N   1      26.434  24.263  -3.445  0.00  0.00    -0.349 OA
BRANCH  10  11
HETATM   11  C   UNK N   1      26.070  25.445  -4.000  0.00  0.00     0.068 A 
HETATM   12  C   UNK N   1      26.240  26.624  -3.266  0.00  0.00     0.037 A 
HETATM   13  C   UNK N   1      25.861  27.856  -3.811  0.00  0.00     0.003 A 
HETATM   14  C   UNK N   1      25.309  27.914  -5.095  0.00  0.00     0.000 A 
HETATM   15  C   UNK N   1      25.135  26.742  -5.835  0.00  0.00     0.003 A 
HETATM   16  C   UNK N   1      25.512  25.511  -5.291  0.00  0.00     0.037 A 
ENDBRANCH  10  11
ENDBRANCH   9  10
ENDBRANCH   1   9
TORSDOF 6
ENDMDL
MODEL 2
REMARK VINA RESULT:      -4.9     10.899     12.841
REMARK  6 active torsions:
REMARK  status: ('A' for Active; 'I' for Inactive)
REMARK    1  A    between atoms: P_1  and  O_4 
REMARK    2  A    between atoms: C_5  and  O_4 
REMARK    3  A    between atoms: C_5  and  C_6 
REMARK    4  A    between atoms: C_5  and  C_8 
REMARK    5  A    between atoms: C_8  and  O_9 
REMARK    6  A    between atoms: O_9  and  C_14 
ROOT
HETATM    1  C   UNK N   1      31.077  17.642   7.795  0.00  0.00     0.154 C 
ENDROOT
BRANCH   1   2
HETATM    2  O   UNK N   1      32.286  16.900   7.759  0.00  0.00    -0.316 OA
BRANCH   2   3
HETATM    3  P   UNK N   1      33.275  17.290   6.362  0.00  0.00     0.284 P 
HETATM    4  C   UNK N   1      34.281  15.915   7.107  0.00  0.00     0.135 C 
HETATM    5  O   UNK N   1      34.443  18.156   6.903  0.00  0.00    -0.274 OA
HETATM    6 Cl   UNK N   1      33.822  15.874   4.886  0.00  0.00    -0.027 Cl
ENDBRANCH   2   3
ENDBRANCH   1   2
BRANCH   1   7
HETATM    7  C   UNK N   1      30.199  17.326   9.024  0.00  0.00     0.030 C 
HETATM    8  C   UNK N   1      29.799  18.582   9.785  0.00  0.00     0.007 C 
ENDBRANCH   1   7
BRANCH   1   9
HETATM    9  C   UNK N   1      30.321  17.251   6.524  0.00  0.00     0.208 C 
BRANCH   9  10
HETATM   10  O   UNK N   1      28.962  17.460   6.624  0.00  0.00    -0.349 OA
BRANCH  10  11
HETATM   11  C   UNK N   1      28.350  18.543   6.086  0.00  0.00     0.068 A 
HETATM   12  C   UNK N   1      27.837  19.529   6.938  0.00  0.00     0.037 A 
HETATM   13  C   UNK N   1      27.189  20.651   6.410  0.00  0.00     0.003 A 
HETATM   14  C   UNK N   1      27.051  20.793   5.026  0.00  0.00     0.000 A 
HETATM   15  C   UNK N   1      27.559  19.815   4.168  0.00  0.00     0.003 A 
HETATM   16  C   UNK N   1      28.205  18.692   4.694  0.00  0.00     0.037 A 
ENDBRANCH  10  11
ENDBRANCH   9  10
ENDBRANCH   1   9
TORSDOF 6
ENDMDL
MODEL 3
REMARK VINA RESULT:      -4.8     10.992     12.229
REMARK  6 active torsions:
REMARK  status: ('A' for Active; 'I' for Inactive)
REMARK    1  A    between atoms: P_1  and  O_4 
REMARK    2  A    between atoms: C_5  and  O_4 
REMARK    3  A    between atoms: C_5  and  C_6 
REMARK    4  A    between atoms: C_5  and  C_8 
REMARK    5  A    between atoms: C_8  and  O_9 
REMARK    6  A    between atoms: O_9  and  C_14 
ROOT
HETATM    1  C   UNK N   1      31.417  16.828   5.086  0.00  0.00     0.154 C 
ENDROOT
BRANCH   1   2
HETATM    2  O   UNK N   1      31.757  17.392   6.343  0.00  0.00    -0.316 OA
BRANCH   2   3
HETATM    3  P   UNK N   1      33.315  16.836   6.931  0.00  0.00     0.284 P 
HETATM    4  C   UNK N   1      32.882  18.069   8.254  0.00  0.00     0.135 C 
HETATM    5  O   UNK N   1      34.332  17.937   6.530  0.00  0.00    -0.274 OA
HETATM    6 Cl   UNK N   1      33.609  16.007   8.857  0.00  0.00    -0.027 Cl
ENDBRANCH   2   3
ENDBRANCH   1   2
BRANCH   1   7
HETATM    7  C   UNK N   1      32.076  17.550   3.891  0.00  0.00     0.030 C 
HETATM    8  C   UNK N   1      32.829  16.590   2.982  0.00  0.00     0.007 C 
ENDBRANCH   1   7
BRANCH   1   9
HETATM    9  C   UNK N   1      29.897  16.961   4.977  0.00  0.00     0.208 C 
BRANCH   9  10
HETATM   10  O   UNK N   1      29.348  17.686   6.012  0.00  0.00    -0.349 OA
BRANCH  10  11
HETATM   11  C   UNK N   1      28.491  18.717   5.807  0.00  0.00     0.068 A 
HETATM   12  C   UNK N   1      27.994  19.420   6.911  0.00  0.00     0.037 A 
HETATM   13  C   UNK N   1      27.099  20.480   6.727  0.00  0.00     0.003 A 
HETATM   14  C   UNK N   1      26.698  20.843   5.438  0.00  0.00     0.000 A 
HETATM   15  C   UNK N   1      27.189  20.148   4.331  0.00  0.00     0.003 A 
HETATM   16  C   UNK N   1      28.081  19.087   4.512  0.00  0.00     0.037 A 
ENDBRANCH  10  11
ENDBRANCH   9  10
ENDBRANCH   1   9
TORSDOF 6
ENDMDL
MODEL 4
REMARK VINA RESULT:      -4.8     21.495     24.380
REMARK  6 active torsions:
REMARK  status: ('A' for Active; 'I' for Inactive)
REMARK    1  A    between atoms: P_1  and  O_4 
REMARK    2  A    between atoms: C_5  and  O_4 
REMARK    3  A    between atoms: C_5  and  C_6 
REMARK    4  A    between atoms: C_5  and  C_8 
REMARK    5  A    between atoms: C_8  and  O_9 
REMARK    6  A    between atoms: O_9  and  C_14 
ROOT
HETATM    1  C   UNK N   1      34.812  11.148  13.465  0.00  0.00     0.154 C 
ENDROOT
BRANCH   1   2
HETATM    2  O   UNK N   1      34.537  12.537  13.383  0.00  0.00    -0.316 OA
BRANCH   2   3
HETATM    3  P   UNK N   1      35.183  13.266  11.923  0.00  0.00     0.284 P 
HETATM    4  C   UNK N   1      36.102  14.240  13.213  0.00  0.00     0.135 C 
HETATM    5  O   UNK N   1      34.423  14.608  11.752  0.00  0.00    -0.274 OA
HETATM    6 Cl   UNK N   1      37.250  13.347  11.472  0.00  0.00    -0.027 Cl
ENDBRANCH   2   3
ENDBRANCH   1   2
BRANCH   1   7
HETATM    7  C   UNK N   1      33.805  10.276  12.685  0.00  0.00     0.030 C 
HETATM    8  C   UNK N   1      34.495   9.239  11.811  0.00  0.00     0.007 C 
ENDBRANCH   1   7
BRANCH   1   9
HETATM    9  C   UNK N   1      34.727  10.802  14.953  0.00  0.00     0.208 C 
BRANCH   9  10
HETATM   10  O   UNK N   1      35.756  11.350  15.689  0.00  0.00    -0.349 OA
BRANCH  10  11
HETATM   11  C   UNK N   1      35.584  11.813  16.951  0.00  0.00     0.068 A 
HETATM   12  C   UNK N   1      35.675  10.919  18.024  0.00  0.00     0.037 A 
HETATM   13  C   UNK N   1      35.489  11.369  19.335  0.00  0.00     0.003 A 
HETATM   14  C   UNK N   1      35.211  12.718  19.581  0.00  0.00     0.000 A 
HETATM   15  C   UNK N   1      35.118  13.617  18.516  0.00  0.00     0.003 A 
HETATM   16  C   UNK N   1      35.302  13.169  17.205  0.00  0.00     0.037 A 
ENDBRANCH  10  11
ENDBRANCH   9  10
ENDBRANCH   1   9
TORSDOF 6
ENDMDL
MODEL 5
REMARK VINA RESULT:      -4.8     12.582     14.280
REMARK  6 active torsions:
REMARK  status: ('A' for Active; 'I' for Inactive)
REMARK    1  A    between atoms: P_1  and  O_4 
REMARK    2  A    between atoms: C_5  and  O_4 
REMARK    3  A    between atoms: C_5  and  C_6 
REMARK    4  A    between atoms: C_5  and  C_8 
REMARK    5  A    between atoms: C_8  and  O_9 
REMARK    6  A    between atoms: O_9  and  C_14 
ROOT
HETATM    1  C   UNK N   1      31.287  18.142   8.252  0.00  0.00     0.154 C 
ENDROOT
BRANCH   1   2
HETATM    2  O   UNK N   1      32.538  17.860   8.861  0.00  0.00    -0.316 OA
BRANCH   2   3
HETATM    3  P   UNK N   1      33.872  17.936   7.723  0.00  0.00     0.284 P 
HETATM    4  C   UNK N   1      34.609  16.830   9.024  0.00  0.00     0.135 C 
HETATM    5  O   UNK N   1      34.876  18.957   8.319  0.00  0.00    -0.274 OA
HETATM    6 Cl   UNK N   1      34.757  16.224   6.844  0.00  0.00    -0.027 Cl
ENDBRANCH   2   3
ENDBRANCH   1   2
BRANCH   1   7
HETATM    7  C   UNK N   1      30.220  18.643   9.248  0.00  0.00     0.030 C 
HETATM    8  C   UNK N   1      28.856  18.016   8.995  0.00  0.00     0.007 C 
ENDBRANCH   1   7
BRANCH   1   9
HETATM    9  C   UNK N   1      30.823  16.818   7.643  0.00  0.00     0.208 C 
BRANCH   9  10
HETATM   10  O   UNK N   1      30.483  16.932   6.312  0.00  0.00    -0.349 OA
BRANCH  10  11
HETATM   11  C   UNK N   1      31.326  16.580   5.310  0.00  0.00     0.068 A 
HETATM   12  C   UNK N   1      31.801  17.569   4.440  0.00  0.00     0.037 A 
HETATM   13  C   UNK N   1      32.663  17.231   3.391  0.00  0.00     0.003 A 
HETATM   14  C   UNK N   1      33.055  15.902   3.207  0.00  0.00     0.000 A 
HETATM   15  C   UNK N   1      32.586  14.908   4.070  0.00  0.00     0.003 A 
HETATM   16  C   UNK N   1      31.723  15.244   5.117  0.00  0.00     0.037 A 
ENDBRANCH  10  11
ENDBRANCH   9  10
ENDBRANCH   1   9
TORSDOF 6
ENDMDL
MODEL 6
REMARK VINA RESULT:      -4.7     10.711     12.361
REMARK  6 active torsions:
REMARK  status: ('A' for Active; 'I' for Inactive)
REMARK    1  A    between atoms: P_1  and  O_4 
REMARK    2  A    between atoms: C_5  and  O_4 
REMARK    3  A    between atoms: C_5  and  C_6 
REMARK    4  A    between atoms: C_5  and  C_8 
REMARK    5  A    between atoms: C_8  and  O_9 
REMARK    6  A    between atoms: O_9  and  C_14 
ROOT
HETATM    1  C   UNK N   1      31.258  16.728   5.322  0.00  0.00     0.154 C 
ENDROOT
BRANCH   1   2
HETATM    2  O   UNK N   1      32.101  16.797   6.461  0.00  0.00    -0.316 OA
BRANCH   2   3
HETATM    3  P   UNK N   1      31.198  16.836   7.966  0.00  0.00     0.284 P 
HETATM    4  C   UNK N   1      32.724  17.771   8.471  0.00  0.00     0.135 C 
HETATM    5  O   UNK N   1      31.828  15.738   8.863  0.00  0.00    -0.274 OA
HETATM    6 Cl   UNK N   1      30.684  18.626   8.974  0.00  0.00    -0.027 Cl
ENDBRANCH   2   3
ENDBRANCH   1   2
BRANCH   1   7
HETATM    7  C   UNK N   1      31.650  17.721   4.207  0.00  0.00     0.030 C 
HETATM    8  C   UNK N   1      32.242  17.020   2.993  0.00  0.00     0.007 C 
ENDBRANCH   1   7
BRANCH   1   9
HETATM    9  C   UNK N   1      29.857  17.073   5.831  0.00  0.00     0.208 C 
BRANCH   9  10
HETATM   10  O   UNK N   1      29.085  17.710   4.883  0.00  0.00    -0.349 OA
BRANCH  10  11
HETATM   11  C   UNK N   1      28.290  18.767   5.180  0.00  0.00     0.068 A 
HETATM   12  C   UNK N   1      27.659  19.459   4.140  0.00  0.00     0.037 A 
HETATM   13  C   UNK N   1      26.843  20.561   4.418  0.00  0.00     0.003 A 
HETATM   14  C   UNK N   1      26.653  20.976   5.740  0.00  0.00     0.000 A 
HETATM   15  C   UNK N   1      27.279  20.292   6.784  0.00  0.00     0.003 A 
HETATM   16  C   UNK N   1      28.096  19.192   6.508  0.00  0.00     0.037 A 
ENDBRANCH  10  11
ENDBRANCH   9  10
ENDBRANCH   1   9
TORSDOF 6
ENDMDL
MODEL 7
REMARK VINA RESULT:      -4.7     13.190     15.547
REMARK  6 active torsions:
REMARK  status: ('A' for Active; 'I' for Inactive)
REMARK    1  A    between atoms: P_1  and  O_4 
REMARK    2  A    between atoms: C_5  and  O_4 
REMARK    3  A    between atoms: C_5  and  C_6 
REMARK    4  A    between atoms: C_5  and  C_8 
REMARK    5  A    between atoms: C_8  and  O_9 
REMARK    6  A    between atoms: O_9  and  C_14 
ROOT
HETATM    1  C   UNK N   1      34.128  17.593   8.559  0.00  0.00     0.154 C 
ENDROOT
BRANCH   1   2
HETATM    2  O   UNK N   1      34.496  17.048   9.816  0.00  0.00    -0.316 OA
BRANCH   2   3
HETATM    3  P   UNK N   1      35.408  15.555   9.661  0.00  0.00     0.284 P 
HETATM    4  C   UNK N   1      34.634  15.299  11.332  0.00  0.00     0.135 C 
HETATM    5  O   UNK N   1      36.687  15.754  10.516  0.00  0.00    -0.274 OA
HETATM    6 Cl   UNK N   1      34.533  13.632   9.798  0.00  0.00    -0.027 Cl
ENDBRANCH   2   3
ENDBRANCH   1   2
BRANCH   1   7
HETATM    7  C   UNK N   1      32.627  17.935   8.454  0.00  0.00     0.030 C 
HETATM    8  C   UNK N   1      31.755  16.691   8.381  0.00  0.00     0.007 C 
ENDBRANCH   1   7
BRANCH   1   9
HETATM    9  C   UNK N   1      34.469  16.513   7.530  0.00  0.00     0.208 C 
BRANCH   9  10
HETATM   10  O   UNK N   1      34.677  17.024   6.267  0.00  0.00    -0.349 OA
BRANCH  10  11
HETATM   11  C   UNK N   1      33.874  16.723   5.217  0.00  0.00     0.068 A 
HETATM   12  C   UNK N   1      33.964  15.456   4.630  0.00  0.00     0.037 A 
HETATM   13  C   UNK N   1      33.156  15.124   3.538  0.00  0.00     0.003 A 
HETATM   14  C   UNK N   1      32.251  16.059   3.026  0.00  0.00     0.000 A 
HETATM   15  C   UNK N   1      32.153  17.327   3.605  0.00  0.00     0.003 A 
HETATM   16  C   UNK N   1      32.962  17.660   4.695  0.00  0.00     0.037 A 
ENDBRANCH  10  11
ENDBRANCH   9  10
ENDBRANCH   1   9
TORSDOF 6
ENDMDL
MODEL 8
REMARK VINA RESULT:      -4.7      4.181      5.015
REMARK  6 active torsions:
REMARK  status: ('A' for Active; 'I' for Inactive)
REMARK    1  A    between atoms: P_1  and  O_4 
REMARK    2  A    between atoms: C_5  and  O_4 
REMARK    3  A    between atoms: C_5  and  C_6 
REMARK    4  A    between atoms: C_5  and  C_8 
REMARK    5  A    between atoms: C_8  and  O_9 
REMARK    6  A    between atoms: O_9  and  C_14 
ROOT
HETATM    1  C   UNK N   1      26.788  24.442  -6.478  0.00  0.00     0.154 C 
ENDROOT
BRANCH   1   2
HETATM    2  O   UNK N   1      26.968  23.431  -7.457  0.00  0.00    -0.316 OA
BRANCH   2   3
HETATM    3  P   UNK N   1      25.447  22.744  -8.003  0.00  0.00     0.284 P 
HETATM    4  C   UNK N   1      26.559  21.262  -8.170  0.00  0.00     0.135 C 
HETATM    5  O   UNK N   1      25.529  22.719  -9.551  0.00  0.00    -0.274 OA
HETATM    6 Cl   UNK N   1      24.558  21.033  -7.128  0.00  0.00    -0.027 Cl
ENDBRANCH   2   3
ENDBRANCH   1   2
BRANCH   1   7
HETATM    7  C   UNK N   1      25.904  23.997  -5.293  0.00  0.00     0.030 C 
HETATM    8  C   UNK N   1      26.584  24.221  -3.950  0.00  0.00     0.007 C 
ENDBRANCH   1   7
BRANCH   1   9
HETATM    9  C   UNK N   1      26.105  25.600  -7.207  0.00  0.00     0.208 C 
BRANCH   9  10
HETATM   10  O   UNK N   1      25.427  26.444  -6.354  0.00  0.00    -0.349 OA
BRANCH  10  11
HETATM   11  C   UNK N   1      26.022  27.503  -5.751  0.00  0.00     0.068 A 
HETATM   12  C   UNK N   1      25.538  27.943  -4.513  0.00  0.00     0.037 A 
HETATM   13  C   UNK N   1      26.126  29.041  -3.876  0.00  0.00     0.003 A 
HETATM   14  C   UNK N   1      27.201  29.705  -4.474  0.00  0.00     0.000 A 
HETATM   15  C   UNK N   1      27.690  29.274  -5.709  0.00  0.00     0.003 A 
HETATM   16  C   UNK N   1      27.103  28.178  -6.348  0.00  0.00     0.037 A 
ENDBRANCH  10  11
ENDBRANCH   9  10
ENDBRANCH   1   9
TORSDOF 6
ENDMDL
MODEL 9
REMARK VINA RESULT:      -4.7      4.618      5.946
REMARK  6 active torsions:
REMARK  status: ('A' for Active; 'I' for Inactive)
REMARK    1  A    between atoms: P_1  and  O_4 
REMARK    2  A    between atoms: C_5  and  O_4 
REMARK    3  A    between atoms: C_5  and  C_6 
REMARK    4  A    between atoms: C_5  and  C_8 
REMARK    5  A    between atoms: C_8  and  O_9 
REMARK    6  A    between atoms: O_9  and  C_14 
ROOT
HETATM    1  C   UNK N   1      26.399  23.233  -8.019  0.00  0.00     0.154 C 
ENDROOT
BRANCH   1   2
HETATM    2  O   UNK N   1      25.301  23.888  -8.634  0.00  0.00    -0.316 OA
BRANCH   2   3
HETATM    3  P   UNK N   1      25.689  24.488 -10.238  0.00  0.00     0.284 P 
HETATM    4  C   UNK N   1      25.767  26.071  -9.265  0.00  0.00     0.135 C 
HETATM    5  O   UNK N   1      24.381  25.127 -10.775  0.00  0.00    -0.274 OA
HETATM    6 Cl   UNK N   1      27.457  25.562 -10.688  0.00  0.00    -0.027 Cl
ENDBRANCH   2   3
ENDBRANCH   1   2
BRANCH   1   7
HETATM    7  C   UNK N   1      26.459  21.721  -8.321  0.00  0.00     0.030 C 
HETATM    8  C   UNK N   1      25.221  20.985  -7.830  0.00  0.00     0.007 C 
ENDBRANCH   1   7
BRANCH   1   9
HETATM    9  C   UNK N   1      26.205  23.437  -6.515  0.00  0.00     0.208 C 
BRANCH   9  10
HETATM   10  O   UNK N   1      25.247  24.384  -6.223  0.00  0.00    -0.349 OA
BRANCH  10  11
HETATM   11  C   UNK N   1      25.483  25.429  -5.392  0.00  0.00     0.068 A 
HETATM   12  C   UNK N   1      26.238  25.221  -4.232  0.00  0.00     0.037 A 
HETATM   13  C   UNK N   1      26.486  26.279  -3.352  0.00  0.00     0.003 A 
HETATM   14  C   UNK N   1      25.980  27.553  -3.627  0.00  0.00     0.000 A 
HETATM   15  C   UNK N   1      25.225  27.771  -4.782  0.00  0.00     0.003 A 
HETATM   16  C   UNK N   1      24.975  26.714  -5.662  0.00  0.00     0.037 A 
ENDBRANCH  10  11
ENDBRANCH   9  10
ENDBRANCH   1   9
TORSDOF 6
ENDMDL
