REMARK  11 active torsions:
REMARK  status: ('A' for Active; 'I' for Inactive)
REMARK    1  A    between atoms: C_1  and  C_2 
REMARK    2  A    between atoms: C_1  and  C_5 
REMARK    3  A    between atoms: N_3  and  C_5 
REMARK       I    between atoms: N_3  and  C_10 
REMARK    4  A    between atoms: C_5  and  B_4 
REMARK    5  A    between atoms: B_4  and  O_6 
REMARK    6  A    between atoms: B_4  and  O_7 
REMARK       I    between atoms: N_8  and  C_15 
REMARK    7  A    between atoms: C_9  and  C_10 
REMARK    8  A    between atoms: C_15  and  C_17 
REMARK    9  A    between atoms: C_17  and  C_25 
REMARK   10  A    between atoms: C_17  and  N_26 
REMARK   11  A    between atoms: C_25  and  C_31 
ROOT
HETATM    1  C   UNK N   1      -4.722   1.267   0.293  0.00  0.00    -0.055 C 
HETATM    2  C   UNK N   1      -4.634  -0.013   0.808  0.00  0.00     0.029 C 
HETATM    3  C   UNK N   1      -5.671  -0.887   0.707  0.00  0.00     0.045 C 
HETATM    4  C   UNK N   1      -5.933   1.729  -0.216  0.00  0.00     0.007 C 
HETATM    5  C   UNK N   1      -7.052   0.892  -0.181  0.00  0.00     0.002 C 
HETATM    6  C   UNK N   1      -6.903  -0.450   0.211  0.00  0.00     0.022 C 
HETATM    7  C   UNK N   1      -5.323  -2.268   0.834  0.00  0.00     0.099 C 
HETATM    8  N   UNK N   1      -4.969  -3.363   0.956  0.00  0.00    -0.191 NA
ENDROOT
BRANCH   1   9
HETATM    9  C   UNK N   1      -3.475   1.827  -0.268  0.00  0.00     0.059 C 
BRANCH   9  10
HETATM   10  C   UNK N   1      -2.402   0.731  -0.520  0.00  0.00     0.114 C 
BRANCH  10  11
HETATM   11  N   UNK N   1      -1.759   0.491   0.753  0.00  0.00    -0.358 N 
HETATM   12  C   UNK N   1      -0.645   1.131   1.139  0.00  0.00     0.240 C 
HETATM   13  O   UNK N   1      -0.025   0.712   2.106  0.00  0.00    -0.271 OA
HETATM   14  H   UNK N   1      -2.157  -0.172   1.364  0.00  0.00     0.162 HD
BRANCH  12  15
HETATM   15  C   UNK N   1      -0.061   2.211   0.262  0.00  0.00     0.179 C 
HETATM   16  N   UNK N   1       1.042   1.698  -0.497  0.00  0.00    -0.337 N 
HETATM   17  C   UNK N   1       2.207   2.543  -0.430  0.00  0.00     0.127 C 
HETATM   18  C   UNK N   1       1.139   0.386  -0.910  0.00  0.00     0.243 C 
HETATM   19  C   UNK N   1       1.785   3.745   0.383  0.00  0.00     0.022 C 
HETATM   20  C   UNK N   1       0.551   3.287   1.138  0.00  0.00     0.037 C 
HETATM   21  O   UNK N   1       0.166  -0.338  -1.032  0.00  0.00    -0.271 OA
BRANCH  18  22
HETATM   22  C   UNK N   1       2.471  -0.207  -0.934  0.00  0.00     0.171 C 
BRANCH  22  23
HETATM   23  C   UNK N   1       2.582  -1.688  -1.346  0.00  0.00     0.072 C 
BRANCH  23  24
HETATM   24  C   UNK N   1       3.770  -2.259  -0.631  0.00  0.00    -0.056 A 
HETATM   25  C   UNK N   1       3.587  -3.361   0.203  0.00  0.00     0.007 A 
HETATM   26  C   UNK N   1       4.581  -3.710   1.118  0.00  0.00     0.001 A 
HETATM   27  C   UNK N   1       5.730  -2.921   1.245  0.00  0.00     0.000 A 
HETATM   28  C   UNK N   1       5.921  -1.820   0.410  0.00  0.00     0.001 A 
HETATM   29  C   UNK N   1       4.954  -1.498  -0.535  0.00  0.00     0.007 A 
ENDBRANCH  23  24
ENDBRANCH  22  23
BRANCH  22  30
HETATM   30  N   UNK N   1       2.905  -0.034   0.458  0.00  0.00    -0.418 N 
HETATM   31  H   UNK N   1       3.160  -0.234   1.425  0.00  0.00     0.150 HD
HETATM   32  H   UNK N   1       3.051   0.976   0.458  0.00  0.00     0.150 HD
ENDBRANCH  22  30
ENDBRANCH  18  22
ENDBRANCH  12  15
ENDBRANCH  10  11
BRANCH  10  33
HETATM   33  B   UNK N   1      -2.682  -0.745  -1.163  0.00  0.00     0.515 B 
BRANCH  33  34
HETATM   34  O   UNK N   1      -3.779  -0.960  -2.097  0.00  0.00    -0.436 OA
HETATM   35  H   UNK N   1      -4.268  -0.398  -2.718  0.00  0.00     0.184 HD
ENDBRANCH  33  34
BRANCH  33  36
HETATM   36  O   UNK N   1      -2.103  -1.914  -0.488  0.00  0.00    -0.436 OA
HETATM   37  H   UNK N   1      -2.580  -2.631  -0.042  0.00  0.00     0.184 HD
ENDBRANCH  33  36
ENDBRANCH  10  33
ENDBRANCH   9  10
ENDBRANCH   1   9
TORSDOF 11
