MODEL 1
REMARK VINA RESULT:      -5.3      0.000      0.000
REMARK  2 active torsions:
REMARK  status: ('A' for Active; 'I' for Inactive)
REMARK    1  A    between atoms: C_2  and  C_7 
REMARK       I    between atoms: C_7  and  N_9 
REMARK    2  A    between atoms: N_9  and  C_10 
ROOT
HETATM    1  C   UNK N   1      27.259  24.417  -3.505  0.00  0.00     0.240 C 
HETATM    2  O   UNK N   1      26.918  23.751  -2.535  0.00  0.00    -0.271 OA
HETATM    3  N   UNK N   1      28.534  24.361  -3.982  0.00  0.00    -0.351 N 
HETATM    4  H   UNK N   1      28.726  24.921  -4.770  0.00  0.00     0.163 HD
ENDROOT
BRANCH   1   5
HETATM    5  C   UNK N   1      26.240  25.255  -4.230  0.00  0.00     0.169 C 
HETATM    6  N   UNK N   1      26.601  25.401  -5.647  0.00  0.00    -0.409 N 
HETATM    7  C   UNK N   1      25.587  26.142  -6.417  0.00  0.00     0.114 C 
HETATM    8  H   UNK N   1      27.461  25.031  -6.052  0.00  0.00     0.154 HD
HETATM    9  C   UNK N   1      24.788  27.159  -5.590  0.00  0.00     0.019 C 
HETATM   10  C   UNK N   1      25.635  27.736  -4.467  0.00  0.00     0.004 C 
HETATM   11  C   UNK N   1      26.196  26.638  -3.563  0.00  0.00     0.034 C 
ENDBRANCH   1   5
BRANCH   3  12
HETATM   12  C   UNK N   1      29.649  23.574  -3.469  0.00  0.00     0.022 C 
HETATM   13  C   UNK N   1      30.901  24.425  -3.500  0.00  0.00     0.037 C 
HETATM   14  C   UNK N   1      29.858  22.388  -4.389  0.00  0.00     0.037 C 
HETATM   15  C   UNK N   1      29.467  23.059  -2.049  0.00  0.00     0.037 C 
ENDBRANCH   3  12
TORSDOF 2
ENDMDL
MODEL 2
REMARK VINA RESULT:      -5.2     16.088     19.236
REMARK  2 active torsions:
REMARK  status: ('A' for Active; 'I' for Inactive)
REMARK    1  A    between atoms: C_2  and  C_7 
REMARK       I    between atoms: C_7  and  N_9 
REMARK    2  A    between atoms: N_9  and  C_10 
ROOT
HETATM    1  C   UNK N   1      34.891  16.495  10.398  0.00  0.00     0.240 C 
HETATM    2  O   UNK N   1      35.782  17.334  10.355  0.00  0.00    -0.271 OA
HETATM    3  N   UNK N   1      33.912  16.461   9.452  0.00  0.00    -0.351 N 
HETATM    4  H   UNK N   1      33.236  15.751   9.553  0.00  0.00     0.163 HD
ENDROOT
BRANCH   1   5
HETATM    5  C   UNK N   1      34.914  15.438  11.470  0.00  0.00     0.169 C 
HETATM    6  N   UNK N   1      36.219  15.410  12.143  0.00  0.00    -0.409 N 
HETATM    7  C   UNK N   1      36.261  14.449  13.260  0.00  0.00     0.114 C 
HETATM    8  H   UNK N   1      37.011  15.991  11.867  0.00  0.00     0.154 HD
HETATM    9  C   UNK N   1      35.315  13.250  13.094  0.00  0.00     0.019 C 
HETATM   10  C   UNK N   1      35.144  12.889  11.627  0.00  0.00     0.004 C 
HETATM   11  C   UNK N   1      34.644  14.079  10.807  0.00  0.00     0.034 C 
ENDBRANCH   1   5
BRANCH   3  12
HETATM   12  C   UNK N   1      33.742  17.347   8.306  0.00  0.00     0.022 C 
HETATM   13  C   UNK N   1      32.309  17.834   8.274  0.00  0.00     0.037 C 
HETATM   14  C   UNK N   1      34.002  16.549   7.044  0.00  0.00     0.037 C 
HETATM   15  C   UNK N   1      34.651  18.568   8.302  0.00  0.00     0.037 C 
ENDBRANCH   3  12
TORSDOF 2
ENDMDL
MODEL 3
REMARK VINA RESULT:      -5.2     11.866     12.709
REMARK  2 active torsions:
REMARK  status: ('A' for Active; 'I' for Inactive)
REMARK    1  A    between atoms: C_2  and  C_7 
REMARK       I    between atoms: C_7  and  N_9 
REMARK    2  A    between atoms: N_9  and  C_10 
ROOT
HETATM    1  C   UNK N   1      19.934  16.909   1.153  0.00  0.00     0.240 C 
HETATM    2  O   UNK N   1      20.187  16.866  -0.044  0.00  0.00    -0.271 OA
HETATM    3  N   UNK N   1      19.633  15.776   1.848  0.00  0.00    -0.351 N 
HETATM    4  H   UNK N   1      19.450  15.894   2.809  0.00  0.00     0.163 HD
ENDROOT
BRANCH   1   5
HETATM    5  C   UNK N   1      20.027  18.219   1.889  0.00  0.00     0.169 C 
HETATM    6  N   UNK N   1      20.545  19.273   1.007  0.00  0.00    -0.409 N 
HETATM    7  C   UNK N   1      20.571  20.595   1.658  0.00  0.00     0.114 C 
HETATM    8  H   UNK N   1      20.854  19.108   0.049  0.00  0.00     0.154 HD
HETATM    9  C   UNK N   1      20.744  20.542   3.183  0.00  0.00     0.019 C 
HETATM   10  C   UNK N   1      21.577  19.340   3.598  0.00  0.00     0.004 C 
HETATM   11  C   UNK N   1      20.975  18.032   3.083  0.00  0.00     0.034 C 
ENDBRANCH   1   5
BRANCH   3  12
HETATM   12  C   UNK N   1      19.551  14.411   1.344  0.00  0.00     0.022 C 
HETATM   13  C   UNK N   1      19.165  13.492   2.484  0.00  0.00     0.037 C 
HETATM   14  C   UNK N   1      20.923  14.002   0.848  0.00  0.00     0.037 C 
HETATM   15  C   UNK N   1      18.548  14.205   0.218  0.00  0.00     0.037 C 
ENDBRANCH   3  12
TORSDOF 2
ENDMDL
MODEL 4
REMARK VINA RESULT:      -5.1     16.977     18.350
REMARK  2 active torsions:
REMARK  status: ('A' for Active; 'I' for Inactive)
REMARK    1  A    between atoms: C_2  and  C_7 
REMARK       I    between atoms: C_7  and  N_9 
REMARK    2  A    between atoms: N_9  and  C_10 
ROOT
HETATM    1  C   UNK N   1      21.454  13.771   9.808  0.00  0.00     0.240 C 
HETATM    2  O   UNK N   1      20.585  12.927   9.989  0.00  0.00    -0.271 OA
HETATM    3  N   UNK N   1      22.761  13.504  10.088  0.00  0.00    -0.351 N 
HETATM    4  H   UNK N   1      23.400  14.232   9.907  0.00  0.00     0.163 HD
ENDROOT
BRANCH   1   5
HETATM    5  C   UNK N   1      21.090  15.098   9.199  0.00  0.00     0.169 C 
HETATM    6  N   UNK N   1      19.633  15.289   9.204  0.00  0.00    -0.409 N 
HETATM    7  C   UNK N   1      19.233  16.613   8.697  0.00  0.00     0.114 C 
HETATM    8  H   UNK N   1      18.971  14.581   9.522  0.00  0.00     0.154 HD
HETATM    9  C   UNK N   1      20.210  17.218   7.677  0.00  0.00     0.019 C 
HETATM   10  C   UNK N   1      20.889  16.131   6.860  0.00  0.00     0.004 C 
HETATM   11  C   UNK N   1      21.609  15.121   7.753  0.00  0.00     0.034 C 
ENDBRANCH   1   5
BRANCH   3  12
HETATM   12  C   UNK N   1      23.329  12.272  10.621  0.00  0.00     0.022 C 
HETATM   13  C   UNK N   1      24.835  12.416  10.682  0.00  0.00     0.037 C 
HETATM   14  C   UNK N   1      22.999  11.142   9.667  0.00  0.00     0.037 C 
HETATM   15  C   UNK N   1      22.839  11.891  12.010  0.00  0.00     0.037 C 
ENDBRANCH   3  12
TORSDOF 2
ENDMDL
MODEL 5
REMARK VINA RESULT:      -5.1      1.216      5.147
REMARK  2 active torsions:
REMARK  status: ('A' for Active; 'I' for Inactive)
REMARK    1  A    between atoms: C_2  and  C_7 
REMARK       I    between atoms: C_7  and  N_9 
REMARK    2  A    between atoms: N_9  and  C_10 
ROOT
HETATM    1  C   UNK N   1      27.107  25.015  -4.073  0.00  0.00     0.240 C 
HETATM    2  O   UNK N   1      26.015  24.606  -3.697  0.00  0.00    -0.271 OA
HETATM    3  N   UNK N   1      27.240  26.248  -4.636  0.00  0.00    -0.351 N 
HETATM    4  H   UNK N   1      28.152  26.506  -4.905  0.00  0.00     0.163 HD
ENDROOT
BRANCH   1   5
HETATM    5  C   UNK N   1      28.337  24.176  -3.844  0.00  0.00     0.169 C 
HETATM    6  N   UNK N   1      28.352  23.640  -2.476  0.00  0.00    -0.409 N 
HETATM    7  C   UNK N   1      29.493  22.740  -2.232  0.00  0.00     0.114 C 
HETATM    8  H   UNK N   1      27.649  23.867  -1.772  0.00  0.00     0.154 HD
HETATM    9  C   UNK N   1      30.733  23.053  -3.083  0.00  0.00     0.019 C 
HETATM   10  C   UNK N   1      30.832  24.540  -3.379  0.00  0.00     0.004 C 
HETATM   11  C   UNK N   1      29.570  25.065  -4.065  0.00  0.00     0.034 C 
ENDBRANCH   1   5
BRANCH   3  12
HETATM   12  C   UNK N   1      26.196  27.234  -4.890  0.00  0.00     0.022 C 
HETATM   13  C   UNK N   1      26.789  28.379  -5.682  0.00  0.00     0.037 C 
HETATM   14  C   UNK N   1      25.716  27.775  -3.558  0.00  0.00     0.037 C 
HETATM   15  C   UNK N   1      24.993  26.707  -5.660  0.00  0.00     0.037 C 
ENDBRANCH   3  12
TORSDOF 2
ENDMDL
MODEL 6
REMARK VINA RESULT:      -5.1     16.600     18.571
REMARK  2 active torsions:
REMARK  status: ('A' for Active; 'I' for Inactive)
REMARK    1  A    between atoms: C_2  and  C_7 
REMARK       I    between atoms: C_7  and  N_9 
REMARK    2  A    between atoms: N_9  and  C_10 
ROOT
HETATM    1  C   UNK N   1      20.851  14.552   9.136  0.00  0.00     0.240 C 
HETATM    2  O   UNK N   1      19.714  14.153   9.349  0.00  0.00    -0.271 OA
HETATM    3  N   UNK N   1      21.077  15.645   8.353  0.00  0.00    -0.351 N 
HETATM    4  H   UNK N   1      22.020  15.906   8.237  0.00  0.00     0.163 HD
ENDROOT
BRANCH   1   5
HETATM    5  C   UNK N   1      22.018  13.873   9.803  0.00  0.00     0.169 C 
HETATM    6  N   UNK N   1      23.035  13.497   8.812  0.00  0.00    -0.409 N 
HETATM    7  C   UNK N   1      24.237  12.908   9.428  0.00  0.00     0.114 C 
HETATM    8  H   UNK N   1      22.921  13.629   7.806  0.00  0.00     0.154 HD
HETATM    9  C   UNK N   1      23.971  12.181  10.755  0.00  0.00     0.019 C 
HETATM   10  C   UNK N   1      22.580  11.567  10.773  0.00  0.00     0.004 C 
HETATM   11  C   UNK N   1      21.498  12.614  10.513  0.00  0.00     0.034 C 
ENDBRANCH   1   5
BRANCH   3  12
HETATM   12  C   UNK N   1      20.093  16.475   7.669  0.00  0.00     0.022 C 
HETATM   13  C   UNK N   1      19.551  15.709   6.481  0.00  0.00     0.037 C 
HETATM   14  C   UNK N   1      20.793  17.717   7.154  0.00  0.00     0.037 C 
HETATM   15  C   UNK N   1      18.912  16.905   8.527  0.00  0.00     0.037 C 
ENDBRANCH   3  12
TORSDOF 2
ENDMDL
MODEL 7
REMARK VINA RESULT:      -5.1     14.433     16.114
REMARK  2 active torsions:
REMARK  status: ('A' for Active; 'I' for Inactive)
REMARK    1  A    between atoms: C_2  and  C_7 
REMARK       I    between atoms: C_7  and  N_9 
REMARK    2  A    between atoms: N_9  and  C_10 
ROOT
HETATM    1  C   UNK N   1      33.009  17.485   8.605  0.00  0.00     0.240 C 
HETATM    2  O   UNK N   1      33.968  18.079   8.128  0.00  0.00    -0.271 OA
HETATM    3  N   UNK N   1      33.185  16.423   9.440  0.00  0.00    -0.351 N 
HETATM    4  H   UNK N   1      32.363  16.004   9.786  0.00  0.00     0.163 HD
ENDROOT
BRANCH   1   5
HETATM    5  C   UNK N   1      31.613  17.975   8.324  0.00  0.00     0.169 C 
HETATM    6  N   UNK N   1      30.762  17.824   9.512  0.00  0.00    -0.409 N 
HETATM    7  C   UNK N   1      29.408  18.372   9.313  0.00  0.00     0.114 C 
HETATM    8  H   UNK N   1      31.074  17.386  10.379  0.00  0.00     0.154 HD
HETATM    9  C   UNK N   1      28.924  18.337   7.856  0.00  0.00     0.019 C 
HETATM   10  C   UNK N   1      29.510  17.147   7.113  0.00  0.00     0.004 C 
HETATM   11  C   UNK N   1      31.038  17.146   7.166  0.00  0.00     0.034 C 
ENDBRANCH   1   5
BRANCH   3  12
HETATM   12  C   UNK N   1      34.441  15.831   9.884  0.00  0.00     0.022 C 
HETATM   13  C   UNK N   1      35.139  15.215   8.690  0.00  0.00     0.037 C 
HETATM   14  C   UNK N   1      34.124  14.726  10.872  0.00  0.00     0.037 C 
HETATM   15  C   UNK N   1      35.408  16.804  10.541  0.00  0.00     0.037 C 
ENDBRANCH   3  12
TORSDOF 2
ENDMDL
MODEL 8
REMARK VINA RESULT:      -5.1     16.182     18.784
REMARK  2 active torsions:
REMARK  status: ('A' for Active; 'I' for Inactive)
REMARK    1  A    between atoms: C_2  and  C_7 
REMARK       I    between atoms: C_7  and  N_9 
REMARK    2  A    between atoms: N_9  and  C_10 
ROOT
HETATM    1  C   UNK N   1      35.681  15.661  10.298  0.00  0.00     0.240 C 
HETATM    2  O   UNK N   1      36.636  16.287  10.741  0.00  0.00    -0.271 OA
HETATM    3  N   UNK N   1      35.299  14.477  10.852  0.00  0.00    -0.351 N 
HETATM    4  H   UNK N   1      34.517  14.040  10.443  0.00  0.00     0.163 HD
ENDROOT
BRANCH   1   5
HETATM    5  C   UNK N   1      34.869  16.239   9.169  0.00  0.00     0.169 C 
HETATM    6  N   UNK N   1      34.816  17.705   9.267  0.00  0.00    -0.409 N 
HETATM    7  C   UNK N   1      34.105  18.323   8.134  0.00  0.00     0.114 C 
HETATM    8  H   UNK N   1      35.226  18.236  10.036  0.00  0.00     0.154 HD
HETATM    9  C   UNK N   1      33.025  17.429   7.506  0.00  0.00     0.019 C 
HETATM   10  C   UNK N   1      32.397  16.517   8.548  0.00  0.00     0.004 C 
HETATM   11  C   UNK N   1      33.448  15.664   9.258  0.00  0.00     0.034 C 
ENDBRANCH   1   5
BRANCH   3  12
HETATM   12  C   UNK N   1      35.906  13.778  11.979  0.00  0.00     0.022 C 
HETATM   13  C   UNK N   1      37.234  13.202  11.537  0.00  0.00     0.037 C 
HETATM   14  C   UNK N   1      34.997  12.631  12.373  0.00  0.00     0.037 C 
HETATM   15  C   UNK N   1      36.156  14.642  13.207  0.00  0.00     0.037 C 
ENDBRANCH   3  12
TORSDOF 2
ENDMDL
MODEL 9
REMARK VINA RESULT:      -5.0      9.171     11.083
REMARK  2 active torsions:
REMARK  status: ('A' for Active; 'I' for Inactive)
REMARK    1  A    between atoms: C_2  and  C_7 
REMARK       I    between atoms: C_7  and  N_9 
REMARK    2  A    between atoms: N_9  and  C_10 
ROOT
HETATM    1  C   UNK N   1      23.391  20.096   3.041  0.00  0.00     0.240 C 
HETATM    2  O   UNK N   1      23.291  21.313   2.946  0.00  0.00    -0.271 OA
HETATM    3  N   UNK N   1      22.327  19.283   2.791  0.00  0.00    -0.351 N 
HETATM    4  H   UNK N   1      22.491  18.315   2.882  0.00  0.00     0.163 HD
ENDROOT
BRANCH   1   5
HETATM    5  C   UNK N   1      24.725  19.481   3.369  0.00  0.00     0.169 C 
HETATM    6  N   UNK N   1      24.812  19.163   4.801  0.00  0.00    -0.409 N 
HETATM    7  C   UNK N   1      26.068  18.477   5.154  0.00  0.00     0.114 C 
HETATM    8  H   UNK N   1      24.083  19.393   5.476  0.00  0.00     0.154 HD
HETATM    9  C   UNK N   1      27.253  18.828   4.243  0.00  0.00     0.019 C 
HETATM   10  C   UNK N   1      27.144  20.254   3.728  0.00  0.00     0.004 C 
HETATM   11  C   UNK N   1      25.822  20.489   2.996  0.00  0.00     0.034 C 
ENDBRANCH   1   5
BRANCH   3  12
HETATM   12  C   UNK N   1      20.975  19.669   2.404  0.00  0.00     0.022 C 
HETATM   13  C   UNK N   1      20.365  20.492   3.518  0.00  0.00     0.037 C 
HETATM   14  C   UNK N   1      20.149  18.409   2.236  0.00  0.00     0.037 C 
HETATM   15  C   UNK N   1      20.886  20.481   1.120  0.00  0.00     0.037 C 
ENDBRANCH   3  12
TORSDOF 2
ENDMDL
