MODEL 1
REMARK VINA RESULT:      -7.5      0.000      0.000
REMARK  9 active torsions:
REMARK  status: ('A' for Active; 'I' for Inactive)
REMARK    1  A    between atoms: C_2  and  N_1 
REMARK    2  A    between atoms: C_2  and  C_3 
REMARK    3  A    between atoms: C_2  and  C_10 
REMARK    4  A    between atoms: C_3  and  C_4 
REMARK       I    between atoms: C_10  and  N_12 
REMARK    5  A    between atoms: C_14  and  C_17 
REMARK       I    between atoms: C_17  and  N_19 
REMARK    6  A    between atoms: N_19  and  C_20 
REMARK    7  A    between atoms: C_20  and  C_21 
REMARK    8  A    between atoms: C_21  and  N_22 
REMARK    9  A    between atoms: N_22  and  C_23 
ROOT
HETATM    1  C   UNK N   1      36.563  13.819  13.633  0.00  0.00     0.243 C 
HETATM    2  O   UNK N   1      36.267  14.934  13.219  0.00  0.00    -0.271 OA
HETATM    3  N   UNK N   1      36.799  12.801  12.743  0.00  0.00    -0.337 N 
HETATM    4  C   UNK N   1      37.167  11.481  13.181  0.00  0.00     0.127 C 
HETATM    5  C   UNK N   1      36.823  12.967  11.304  0.00  0.00     0.179 C 
HETATM    6  C   UNK N   1      37.086  11.571  10.763  0.00  0.00     0.037 C 
HETATM    7  C   UNK N   1      37.670  10.784  11.929  0.00  0.00     0.022 C 
ENDROOT
BRANCH   5   8
HETATM    8  C   UNK N   1      35.567  13.545  10.685  0.00  0.00     0.240 C 
HETATM    9  O   UNK N   1      34.645  12.792  10.402  0.00  0.00    -0.271 OA
HETATM   10  N   UNK N   1      35.491  14.863  10.375  0.00  0.00    -0.358 N 
HETATM   11  H   UNK N   1      36.181  15.472  10.724  0.00  0.00     0.162 HD
BRANCH  10  12
HETATM   12  C   UNK N   1      34.437  15.402   9.554  0.00  0.00     0.142 C 
BRANCH  12  13
HETATM   13  C   UNK N   1      34.639  16.909   9.484  0.00  0.00     0.139 C 
BRANCH  13  14
HETATM   14  N   UNK N   1      33.430  17.579   9.079  0.00  0.00    -0.388 N 
HETATM   15  H   UNK N   1      32.946  18.130   9.735  0.00  0.00     0.159 HD
BRANCH  14  16
HETATM   16  C   UNK N   1      32.919  17.465   7.761  0.00  0.00     0.030 A 
HETATM   17  C   UNK N   1      33.785  17.605   6.673  0.00  0.00     0.046 A 
HETATM   18  C   UNK N   1      33.283  17.488   5.375  0.00  0.00     0.089 A 
HETATM   19  N   UNK N   1      31.962  17.232   5.171  0.00  0.00    -0.375 N 
HETATM   20  C   UNK N   1      31.099  17.089   6.213  0.00  0.00     0.089 A 
ATOM     21  HN  UNK N   1      31.612  17.145   4.217  1.00  0.00     0.164 HD
HETATM   22  C   UNK N   1      31.561  17.205   7.526  0.00  0.00     0.046 A 
ENDBRANCH  14  16
ENDBRANCH  13  14
ENDBRANCH  12  13
ENDBRANCH  10  12
ENDBRANCH   5   8
BRANCH   1  23
HETATM   23  C   UNK N   1      36.706  13.600  15.127  0.00  0.00     0.171 C 
BRANCH  23  24
HETATM   24  N   UNK N   1      37.330  14.787  15.692  0.00  0.00    -0.418 N 
HETATM   25  H   UNK N   1      38.213  14.898  16.191  0.00  0.00     0.150 HD
HETATM   26  H   UNK N   1      36.798  15.649  15.569  0.00  0.00     0.150 HD
ENDBRANCH  23  24
BRANCH  23  27
HETATM   27  C   UNK N   1      35.338  13.351  15.789  0.00  0.00     0.072 C 
BRANCH  27  28
HETATM   28  C   UNK N   1      35.328  12.660  17.129  0.00  0.00    -0.056 A 
HETATM   29  C   UNK N   1      35.159  13.439  18.278  0.00  0.00     0.007 A 
HETATM   30  C   UNK N   1      35.188  12.847  19.545  0.00  0.00     0.001 A 
HETATM   31  C   UNK N   1      35.396  11.470  19.670  0.00  0.00     0.000 A 
HETATM   32  C   UNK N   1      35.563  10.684  18.527  0.00  0.00     0.001 A 
HETATM   33  C   UNK N   1      35.526  11.275  17.262  0.00  0.00     0.007 A 
ENDBRANCH  27  28
ENDBRANCH  23  27
ENDBRANCH   1  23
TORSDOF 9
ENDMDL
MODEL 2
REMARK VINA RESULT:      -7.5      1.767      2.384
REMARK  9 active torsions:
REMARK  status: ('A' for Active; 'I' for Inactive)
REMARK    1  A    between atoms: C_2  and  N_1 
REMARK    2  A    between atoms: C_2  and  C_3 
REMARK    3  A    between atoms: C_2  and  C_10 
REMARK    4  A    between atoms: C_3  and  C_4 
REMARK       I    between atoms: C_10  and  N_12 
REMARK    5  A    between atoms: C_14  and  C_17 
REMARK       I    between atoms: C_17  and  N_19 
REMARK    6  A    between atoms: N_19  and  C_20 
REMARK    7  A    between atoms: C_20  and  C_21 
REMARK    8  A    between atoms: C_21  and  N_22 
REMARK    9  A    between atoms: N_22  and  C_23 
ROOT
HETATM    1  C   UNK N   1      35.804  13.805  12.879  0.00  0.00     0.243 C 
HETATM    2  O   UNK N   1      34.888  14.617  12.805  0.00  0.00    -0.271 OA
HETATM    3  N   UNK N   1      36.482  13.436  11.744  0.00  0.00    -0.337 N 
HETATM    4  C   UNK N   1      37.574  12.502  11.783  0.00  0.00     0.127 C 
HETATM    5  C   UNK N   1      36.261  14.023  10.437  0.00  0.00     0.179 C 
HETATM    6  C   UNK N   1      37.210  13.272   9.518  0.00  0.00     0.037 C 
HETATM    7  C   UNK N   1      38.252  12.642  10.432  0.00  0.00     0.022 C 
ENDROOT
BRANCH   5   8
HETATM    8  C   UNK N   1      34.843  13.943   9.910  0.00  0.00     0.240 C 
HETATM    9  O   UNK N   1      34.470  12.914   9.365  0.00  0.00    -0.271 OA
HETATM   10  N   UNK N   1      34.022  15.021   9.967  0.00  0.00    -0.358 N 
HETATM   11  H   UNK N   1      34.289  15.791  10.519  0.00  0.00     0.162 HD
BRANCH  10  12
HETATM   12  C   UNK N   1      32.774  15.078   9.249  0.00  0.00     0.142 C 
BRANCH  12  13
HETATM   13  C   UNK N   1      32.792  16.344   8.405  0.00  0.00     0.139 C 
BRANCH  13  14
HETATM   14  N   UNK N   1      31.957  17.367   8.981  0.00  0.00    -0.388 N 
HETATM   15  H   UNK N   1      32.357  18.015   9.606  0.00  0.00     0.159 HD
BRANCH  14  16
HETATM   16  C   UNK N   1      30.577  17.466   8.673  0.00  0.00     0.030 A 
HETATM   17  C   UNK N   1      30.132  17.129   7.392  0.00  0.00     0.046 A 
HETATM   18  C   UNK N   1      28.772  17.222   7.088  0.00  0.00     0.089 A 
HETATM   19  N   UNK N   1      27.885  17.629   8.036  0.00  0.00    -0.375 N 
HETATM   20  C   UNK N   1      28.292  17.960   9.292  0.00  0.00     0.089 A 
ATOM     21  HN  UNK N   1      26.894  17.688   7.801  1.00  0.00     0.164 HD
HETATM   22  C   UNK N   1      29.644  17.887   9.633  0.00  0.00     0.046 A 
ENDBRANCH  14  16
ENDBRANCH  13  14
ENDBRANCH  12  13
ENDBRANCH  10  12
ENDBRANCH   5   8
BRANCH   1  23
HETATM   23  C   UNK N   1      36.197  13.257  14.237  0.00  0.00     0.171 C 
BRANCH  23  24
HETATM   24  N   UNK N   1      37.085  14.223  14.866  0.00  0.00    -0.418 N 
HETATM   25  H   UNK N   1      36.883  14.990  15.508  0.00  0.00     0.150 HD
HETATM   26  H   UNK N   1      38.071  14.115  14.626  0.00  0.00     0.150 HD
ENDBRANCH  23  24
BRANCH  23  27
HETATM   27  C   UNK N   1      34.960  13.016  15.123  0.00  0.00     0.072 C 
BRANCH  27  28
HETATM   28  C   UNK N   1      35.196  12.579  16.546  0.00  0.00    -0.056 A 
HETATM   29  C   UNK N   1      35.592  11.258  16.779  0.00  0.00     0.007 A 
HETATM   30  C   UNK N   1      35.780  10.795  18.085  0.00  0.00     0.001 A 
HETATM   31  C   UNK N   1      35.562  11.650  19.169  0.00  0.00     0.000 A 
HETATM   32  C   UNK N   1      35.168  12.972  18.946  0.00  0.00     0.001 A 
HETATM   33  C   UNK N   1      34.989  13.436  17.640  0.00  0.00     0.007 A 
ENDBRANCH  27  28
ENDBRANCH  23  27
ENDBRANCH   1  23
TORSDOF 9
ENDMDL
MODEL 3
REMARK VINA RESULT:      -7.1      3.531     11.025
REMARK  9 active torsions:
REMARK  status: ('A' for Active; 'I' for Inactive)
REMARK    1  A    between atoms: C_2  and  N_1 
REMARK    2  A    between atoms: C_2  and  C_3 
REMARK    3  A    between atoms: C_2  and  C_10 
REMARK    4  A    between atoms: C_3  and  C_4 
REMARK       I    between atoms: C_10  and  N_12 
REMARK    5  A    between atoms: C_14  and  C_17 
REMARK       I    between atoms: C_17  and  N_19 
REMARK    6  A    between atoms: N_19  and  C_20 
REMARK    7  A    between atoms: C_20  and  C_21 
REMARK    8  A    between atoms: C_21  and  N_22 
REMARK    9  A    between atoms: N_22  and  C_23 
ROOT
HETATM    1  C   UNK N   1      29.794  17.431   8.235  0.00  0.00     0.243 C 
HETATM    2  O   UNK N   1      30.398  17.760   9.249  0.00  0.00    -0.271 OA
HETATM    3  N   UNK N   1      30.362  16.537   7.362  0.00  0.00    -0.337 N 
HETATM    4  C   UNK N   1      29.683  16.107   6.169  0.00  0.00     0.127 C 
HETATM    5  C   UNK N   1      31.616  15.853   7.600  0.00  0.00     0.179 C 
HETATM    6  C   UNK N   1      31.833  15.011   6.353  0.00  0.00     0.037 C 
HETATM    7  C   UNK N   1      30.465  14.895   5.694  0.00  0.00     0.022 C 
ENDROOT
BRANCH   5   8
HETATM    8  C   UNK N   1      32.816  16.743   7.850  0.00  0.00     0.240 C 
HETATM    9  O   UNK N   1      33.303  17.360   6.912  0.00  0.00    -0.271 OA
HETATM   10  N   UNK N   1      33.394  16.798   9.075  0.00  0.00    -0.358 N 
HETATM   11  H   UNK N   1      32.919  16.402   9.841  0.00  0.00     0.162 HD
BRANCH  10  12
HETATM   12  C   UNK N   1      34.678  17.413   9.296  0.00  0.00     0.142 C 
BRANCH  12  13
HETATM   13  C   UNK N   1      35.308  16.733  10.503  0.00  0.00     0.139 C 
BRANCH  13  14
HETATM   14  N   UNK N   1      34.508  15.622  10.952  0.00  0.00    -0.388 N 
HETATM   15  H   UNK N   1      33.541  15.624  10.770  0.00  0.00     0.159 HD
BRANCH  14  16
HETATM   16  C   UNK N   1      35.079  14.526  11.647  0.00  0.00     0.030 A 
HETATM   17  C   UNK N   1      35.866  14.763  12.777  0.00  0.00     0.046 A 
HETATM   18  C   UNK N   1      36.424  13.683  13.466  0.00  0.00     0.089 A 
HETATM   19  N   UNK N   1      36.197  12.409  13.043  0.00  0.00    -0.375 N 
HETATM   20  C   UNK N   1      35.433  12.152  11.947  0.00  0.00     0.089 A 
ATOM     21  HN  UNK N   1      36.609  11.632  13.558  1.00  0.00     0.164 HD
HETATM   22  C   UNK N   1      34.862  13.205  11.228  0.00  0.00     0.046 A 
ENDBRANCH  14  16
ENDBRANCH  13  14
ENDBRANCH  12  13
ENDBRANCH  10  12
ENDBRANCH   5   8
BRANCH   1  23
HETATM   23  C   UNK N   1      28.405  17.989   7.989  0.00  0.00     0.171 C 
BRANCH  23  24
HETATM   24  N   UNK N   1      27.683  17.958   9.252  0.00  0.00    -0.418 N 
HETATM   25  H   UNK N   1      28.028  17.944  10.212  0.00  0.00     0.150 HD
HETATM   26  H   UNK N   1      26.667  17.949   9.163  0.00  0.00     0.150 HD
ENDBRANCH  23  24
BRANCH  23  27
HETATM   27  C   UNK N   1      28.469  19.430   7.448  0.00  0.00     0.072 C 
BRANCH  27  28
HETATM   28  C   UNK N   1      27.697  19.738   6.191  0.00  0.00    -0.056 A 
HETATM   29  C   UNK N   1      28.111  19.144   4.994  0.00  0.00     0.007 A 
HETATM   30  C   UNK N   1      27.454  19.434   3.794  0.00  0.00     0.001 A 
HETATM   31  C   UNK N   1      26.381  20.331   3.784  0.00  0.00     0.000 A 
HETATM   32  C   UNK N   1      25.959  20.927   4.975  0.00  0.00     0.001 A 
HETATM   33  C   UNK N   1      26.612  20.630   6.173  0.00  0.00     0.007 A 
ENDBRANCH  27  28
ENDBRANCH  23  27
ENDBRANCH   1  23
TORSDOF 9
ENDMDL
MODEL 4
REMARK VINA RESULT:      -7.1     13.444     16.356
REMARK  9 active torsions:
REMARK  status: ('A' for Active; 'I' for Inactive)
REMARK    1  A    between atoms: C_2  and  N_1 
REMARK    2  A    between atoms: C_2  and  C_3 
REMARK    3  A    between atoms: C_2  and  C_10 
REMARK    4  A    between atoms: C_3  and  C_4 
REMARK       I    between atoms: C_10  and  N_12 
REMARK    5  A    between atoms: C_14  and  C_17 
REMARK       I    between atoms: C_17  and  N_19 
REMARK    6  A    between atoms: N_19  and  C_20 
REMARK    7  A    between atoms: C_20  and  C_21 
REMARK    8  A    between atoms: C_21  and  N_22 
REMARK    9  A    between atoms: N_22  and  C_23 
ROOT
HETATM    1  C   UNK N   1      25.080  17.194   3.705  0.00  0.00     0.243 C 
HETATM    2  O   UNK N   1      23.856  17.257   3.689  0.00  0.00    -0.271 OA
HETATM    3  N   UNK N   1      25.820  18.337   3.872  0.00  0.00    -0.337 N 
HETATM    4  C   UNK N   1      27.258  18.310   3.915  0.00  0.00     0.127 C 
HETATM    5  C   UNK N   1      25.253  19.643   4.139  0.00  0.00     0.179 C 
HETATM    6  C   UNK N   1      26.452  20.573   4.209  0.00  0.00     0.037 C 
HETATM    7  C   UNK N   1      27.655  19.672   4.456  0.00  0.00     0.022 C 
ENDROOT
BRANCH   5   8
HETATM    8  C   UNK N   1      24.252  20.148   3.119  0.00  0.00     0.240 C 
HETATM    9  O   UNK N   1      24.652  20.823   2.181  0.00  0.00    -0.271 OA
HETATM   10  N   UNK N   1      22.924  19.925   3.283  0.00  0.00    -0.358 N 
HETATM   11  H   UNK N   1      22.633  19.277   3.965  0.00  0.00     0.162 HD
BRANCH  10  12
HETATM   12  C   UNK N   1      21.926  20.603   2.496  0.00  0.00     0.142 C 
BRANCH  12  13
HETATM   13  C   UNK N   1      20.565  20.106   2.960  0.00  0.00     0.139 C 
BRANCH  13  14
HETATM   14  N   UNK N   1      19.943  19.277   1.959  0.00  0.00    -0.388 N 
HETATM   15  H   UNK N   1      19.400  19.702   1.256  0.00  0.00     0.159 HD
BRANCH  14  16
HETATM   16  C   UNK N   1      20.095  17.867   1.960  0.00  0.00     0.030 A 
HETATM   17  C   UNK N   1      20.259  17.194   3.172  0.00  0.00     0.046 A 
HETATM   18  C   UNK N   1      20.403  15.804   3.174  0.00  0.00     0.089 A 
HETATM   19  N   UNK N   1      20.377  15.111   2.003  0.00  0.00    -0.375 N 
HETATM   20  C   UNK N   1      20.216  15.744   0.809  0.00  0.00     0.089 A 
ATOM     21  HN  UNK N   1      20.480  14.097   2.021  1.00  0.00     0.164 HD
HETATM   22  C   UNK N   1      20.075  17.132   0.765  0.00  0.00     0.046 A 
ENDBRANCH  14  16
ENDBRANCH  13  14
ENDBRANCH  12  13
ENDBRANCH  10  12
ENDBRANCH   5   8
BRANCH   1  23
HETATM   23  C   UNK N   1      25.751  15.839   3.583  0.00  0.00     0.171 C 
BRANCH  23  24
HETATM   24  N   UNK N   1      24.902  14.861   4.248  0.00  0.00    -0.418 N 
HETATM   25  H   UNK N   1      24.215  14.211   3.866  0.00  0.00     0.150 HD
HETATM   26  H   UNK N   1      25.014  14.818   5.261  0.00  0.00     0.150 HD
ENDBRANCH  23  24
BRANCH  23  27
HETATM   27  C   UNK N   1      25.957  15.448   2.107  0.00  0.00     0.072 C 
BRANCH  27  28
HETATM   28  C   UNK N   1      25.158  14.285   1.576  0.00  0.00    -0.056 A 
HETATM   29  C   UNK N   1      25.701  13.000   1.684  0.00  0.00     0.007 A 
HETATM   30  C   UNK N   1      25.016  11.897   1.166  0.00  0.00     0.001 A 
HETATM   31  C   UNK N   1      23.786  12.074   0.526  0.00  0.00     0.000 A 
HETATM   32  C   UNK N   1      23.235  13.353   0.415  0.00  0.00     0.001 A 
HETATM   33  C   UNK N   1      23.916  14.454   0.941  0.00  0.00     0.007 A 
ENDBRANCH  27  28
ENDBRANCH  23  27
ENDBRANCH   1  23
TORSDOF 9
ENDMDL
MODEL 5
REMARK VINA RESULT:      -7.0      8.092     11.026
REMARK  9 active torsions:
REMARK  status: ('A' for Active; 'I' for Inactive)
REMARK    1  A    between atoms: C_2  and  N_1 
REMARK    2  A    between atoms: C_2  and  C_3 
REMARK    3  A    between atoms: C_2  and  C_10 
REMARK    4  A    between atoms: C_3  and  C_4 
REMARK       I    between atoms: C_10  and  N_12 
REMARK    5  A    between atoms: C_14  and  C_17 
REMARK       I    between atoms: C_17  and  N_19 
REMARK    6  A    between atoms: N_19  and  C_20 
REMARK    7  A    between atoms: C_20  and  C_21 
REMARK    8  A    between atoms: C_21  and  N_22 
REMARK    9  A    between atoms: N_22  and  C_23 
ROOT
HETATM    1  C   UNK N   1      28.015  17.890   6.796  0.00  0.00     0.243 C 
HETATM    2  O   UNK N   1      27.787  16.705   6.579  0.00  0.00    -0.271 OA
HETATM    3  N   UNK N   1      27.570  18.843   5.915  0.00  0.00    -0.337 N 
HETATM    4  C   UNK N   1      27.797  20.246   6.136  0.00  0.00     0.127 C 
HETATM    5  C   UNK N   1      26.740  18.561   4.762  0.00  0.00     0.179 C 
HETATM    6  C   UNK N   1      26.544  19.911   4.093  0.00  0.00     0.037 C 
HETATM    7  C   UNK N   1      26.869  20.947   5.160  0.00  0.00     0.022 C 
ENDROOT
BRANCH   5   8
HETATM    8  C   UNK N   1      27.303  17.559   3.773  0.00  0.00     0.240 C 
HETATM    9  O   UNK N   1      26.536  16.803   3.194  0.00  0.00    -0.271 OA
HETATM   10  N   UNK N   1      28.642  17.445   3.590  0.00  0.00    -0.358 N 
HETATM   11  H   UNK N   1      29.231  18.141   3.961  0.00  0.00     0.162 HD
BRANCH  10  12
HETATM   12  C   UNK N   1      29.231  16.343   2.873  0.00  0.00     0.142 C 
BRANCH  12  13
HETATM   13  C   UNK N   1      29.445  15.214   3.869  0.00  0.00     0.139 C 
BRANCH  13  14
HETATM   14  N   UNK N   1      30.397  14.253   3.371  0.00  0.00    -0.388 N 
HETATM   15  H   UNK N   1      30.138  13.665   2.625  0.00  0.00     0.159 HD
BRANCH  14  16
HETATM   16  C   UNK N   1      31.696  14.134   3.926  0.00  0.00     0.030 A 
HETATM   17  C   UNK N   1      31.851  13.598   5.207  0.00  0.00     0.046 A 
HETATM   18  C   UNK N   1      33.131  13.476   5.753  0.00  0.00     0.089 A 
HETATM   19  N   UNK N   1      34.220  13.870   5.039  0.00  0.00    -0.375 N 
HETATM   20  C   UNK N   1      34.097  14.394   3.789  0.00  0.00     0.089 A 
ATOM     21  HN  UNK N   1      35.149  13.772   5.449  1.00  0.00     0.164 HD
HETATM   22  C   UNK N   1      32.834  14.538   3.211  0.00  0.00     0.046 A 
ENDBRANCH  14  16
ENDBRANCH  13  14
ENDBRANCH  12  13
ENDBRANCH  10  12
ENDBRANCH   5   8
BRANCH   1  23
HETATM   23  C   UNK N   1      28.750  18.281   8.064  0.00  0.00     0.171 C 
BRANCH  23  24
HETATM   24  N   UNK N   1      27.774  18.341   9.142  0.00  0.00    -0.418 N 
HETATM   25  H   UNK N   1      27.551  19.095   9.793  0.00  0.00     0.150 HD
HETATM   26  H   UNK N   1      27.222  17.492   9.267  0.00  0.00     0.150 HD
ENDBRANCH  23  24
BRANCH  23  27
HETATM   27  C   UNK N   1      29.856  17.264   8.405  0.00  0.00     0.072 C 
BRANCH  27  28
HETATM   28  C   UNK N   1      31.200  17.451   7.748  0.00  0.00    -0.056 A 
HETATM   29  C   UNK N   1      31.333  17.109   6.398  0.00  0.00     0.007 A 
HETATM   30  C   UNK N   1      32.571  17.222   5.757  0.00  0.00     0.001 A 
HETATM   31  C   UNK N   1      33.688  17.670   6.468  0.00  0.00     0.000 A 
HETATM   32  C   UNK N   1      33.564  18.016   7.816  0.00  0.00     0.001 A 
HETATM   33  C   UNK N   1      32.325  17.910   8.453  0.00  0.00     0.007 A 
ENDBRANCH  27  28
ENDBRANCH  23  27
ENDBRANCH   1  23
TORSDOF 9
ENDMDL
MODEL 6
REMARK VINA RESULT:      -6.9      2.098      3.027
REMARK  9 active torsions:
REMARK  status: ('A' for Active; 'I' for Inactive)
REMARK    1  A    between atoms: C_2  and  N_1 
REMARK    2  A    between atoms: C_2  and  C_3 
REMARK    3  A    between atoms: C_2  and  C_10 
REMARK    4  A    between atoms: C_3  and  C_4 
REMARK       I    between atoms: C_10  and  N_12 
REMARK    5  A    between atoms: C_14  and  C_17 
REMARK       I    between atoms: C_17  and  N_19 
REMARK    6  A    between atoms: N_19  and  C_20 
REMARK    7  A    between atoms: C_20  and  C_21 
REMARK    8  A    between atoms: C_21  and  N_22 
REMARK    9  A    between atoms: N_22  and  C_23 
ROOT
HETATM    1  C   UNK N   1      35.218  13.896  12.112  0.00  0.00     0.243 C 
HETATM    2  O   UNK N   1      34.439  14.813  11.880  0.00  0.00    -0.271 OA
HETATM    3  N   UNK N   1      36.324  13.722  11.318  0.00  0.00    -0.337 N 
HETATM    4  C   UNK N   1      37.276  12.672  11.562  0.00  0.00     0.127 C 
HETATM    5  C   UNK N   1      36.710  14.625  10.253  0.00  0.00     0.179 C 
HETATM    6  C   UNK N   1      37.960  13.998   9.657  0.00  0.00     0.037 C 
HETATM    7  C   UNK N   1      38.484  13.040  10.718  0.00  0.00     0.022 C 
ENDROOT
BRANCH   5   8
HETATM    8  C   UNK N   1      35.671  14.856   9.175  0.00  0.00     0.240 C 
HETATM    9  O   UNK N   1      35.506  13.999   8.317  0.00  0.00    -0.271 OA
HETATM   10  N   UNK N   1      34.988  16.026   9.111  0.00  0.00    -0.358 N 
HETATM   11  H   UNK N   1      35.037  16.645   9.874  0.00  0.00     0.162 HD
BRANCH  10  12
HETATM   12  C   UNK N   1      34.195  16.394   7.966  0.00  0.00     0.142 C 
BRANCH  12  13
HETATM   13  C   UNK N   1      33.453  17.675   8.318  0.00  0.00     0.139 C 
BRANCH  13  14
HETATM   14  N   UNK N   1      32.257  17.395   9.071  0.00  0.00    -0.388 N 
HETATM   15  H   UNK N   1      32.339  17.029   9.981  0.00  0.00     0.159 HD
BRANCH  14  16
HETATM   16  C   UNK N   1      30.966  17.633   8.535  0.00  0.00     0.030 A 
HETATM   17  C   UNK N   1      30.051  18.399   9.261  0.00  0.00     0.046 A 
HETATM   18  C   UNK N   1      28.780  18.639   8.732  0.00  0.00     0.089 A 
HETATM   19  N   UNK N   1      28.439  18.135   7.514  0.00  0.00    -0.375 N 
HETATM   20  C   UNK N   1      29.313  17.388   6.787  0.00  0.00     0.089 A 
ATOM     21  HN  UNK N   1      27.509  18.321   7.139  1.00  0.00     0.164 HD
HETATM   22  C   UNK N   1      30.591  17.121   7.284  0.00  0.00     0.046 A 
ENDBRANCH  14  16
ENDBRANCH  13  14
ENDBRANCH  12  13
ENDBRANCH  10  12
ENDBRANCH   5   8
BRANCH   1  23
HETATM   23  C   UNK N   1      34.965  12.995  13.306  0.00  0.00     0.171 C 
BRANCH  23  24
HETATM   24  N   UNK N   1      34.540  11.698  12.801  0.00  0.00    -0.418 N 
HETATM   25  H   UNK N   1      34.598  10.770  13.223  0.00  0.00     0.150 HD
HETATM   26  H   UNK N   1      34.112  11.719  11.875  0.00  0.00     0.150 HD
ENDBRANCH  23  24
BRANCH  23  27
HETATM   27  C   UNK N   1      36.231  12.841  14.169  0.00  0.00     0.072 C 
BRANCH  27  28
HETATM   28  C   UNK N   1      36.331  13.683  15.416  0.00  0.00    -0.056 A 
HETATM   29  C   UNK N   1      35.526  13.349  16.510  0.00  0.00     0.007 A 
HETATM   30  C   UNK N   1      35.552  14.128  17.672  0.00  0.00     0.001 A 
HETATM   31  C   UNK N   1      36.378  15.254  17.741  0.00  0.00     0.000 A 
HETATM   32  C   UNK N   1      37.187  15.593  16.653  0.00  0.00     0.001 A 
HETATM   33  C   UNK N   1      37.166  14.809  15.497  0.00  0.00     0.007 A 
ENDBRANCH  27  28
ENDBRANCH  23  27
ENDBRANCH   1  23
TORSDOF 9
ENDMDL
MODEL 7
REMARK VINA RESULT:      -6.8      8.981     13.112
REMARK  9 active torsions:
REMARK  status: ('A' for Active; 'I' for Inactive)
REMARK    1  A    between atoms: C_2  and  N_1 
REMARK    2  A    between atoms: C_2  and  C_3 
REMARK    3  A    between atoms: C_2  and  C_10 
REMARK    4  A    between atoms: C_3  and  C_4 
REMARK       I    between atoms: C_10  and  N_12 
REMARK    5  A    between atoms: C_14  and  C_17 
REMARK       I    between atoms: C_17  and  N_19 
REMARK    6  A    between atoms: N_19  and  C_20 
REMARK    7  A    between atoms: C_20  and  C_21 
REMARK    8  A    between atoms: C_21  and  N_22 
REMARK    9  A    between atoms: N_22  and  C_23 
ROOT
HETATM    1  C   UNK N   1      22.736  14.314   6.031  0.00  0.00     0.243 C 
HETATM    2  O   UNK N   1      23.316  14.138   4.966  0.00  0.00    -0.271 OA
HETATM    3  N   UNK N   1      22.192  15.541   6.317  0.00  0.00    -0.337 N 
HETATM    4  C   UNK N   1      21.486  15.790   7.546  0.00  0.00     0.127 C 
HETATM    5  C   UNK N   1      22.161  16.654   5.390  0.00  0.00     0.179 C 
HETATM    6  C   UNK N   1      21.499  17.780   6.167  0.00  0.00     0.037 C 
HETATM    7  C   UNK N   1      20.762  17.105   7.316  0.00  0.00     0.022 C 
ENDROOT
BRANCH   5   8
HETATM    8  C   UNK N   1      23.506  17.103   4.854  0.00  0.00     0.240 C 
HETATM    9  O   UNK N   1      23.583  17.489   3.696  0.00  0.00    -0.271 OA
HETATM   10  N   UNK N   1      24.623  17.003   5.616  0.00  0.00    -0.358 N 
HETATM   11  H   UNK N   1      24.525  16.815   6.577  0.00  0.00     0.162 HD
BRANCH  10  12
HETATM   12  C   UNK N   1      25.946  17.163   5.068  0.00  0.00     0.142 C 
BRANCH  12  13
HETATM   13  C   UNK N   1      26.939  16.790   6.160  0.00  0.00     0.139 C 
BRANCH  13  14
HETATM   14  N   UNK N   1      27.340  17.948   6.917  0.00  0.00    -0.388 N 
HETATM   15  H   UNK N   1      26.791  18.764   6.870  0.00  0.00     0.159 HD
BRANCH  14  16
HETATM   16  C   UNK N   1      28.502  17.942   7.729  0.00  0.00     0.030 A 
HETATM   17  C   UNK N   1      29.682  17.380   7.237  0.00  0.00     0.046 A 
HETATM   18  C   UNK N   1      30.829  17.377   8.034  0.00  0.00     0.089 A 
HETATM   19  N   UNK N   1      30.799  17.927   9.279  0.00  0.00    -0.375 N 
HETATM   20  C   UNK N   1      29.663  18.483   9.781  0.00  0.00     0.089 A 
ATOM     21  HN  UNK N   1      31.646  17.921   9.848  1.00  0.00     0.164 HD
HETATM   22  C   UNK N   1      28.494  18.499   9.017  0.00  0.00     0.046 A 
ENDBRANCH  14  16
ENDBRANCH  13  14
ENDBRANCH  12  13
ENDBRANCH  10  12
ENDBRANCH   5   8
BRANCH   1  23
HETATM   23  C   UNK N   1      22.593  13.152   6.996  0.00  0.00     0.171 C 
BRANCH  23  24
HETATM   24  N   UNK N   1      22.516  11.930   6.210  0.00  0.00    -0.418 N 
HETATM   25  H   UNK N   1      21.724  11.318   6.010  0.00  0.00     0.150 HD
HETATM   26  H   UNK N   1      23.399  11.636   5.790  0.00  0.00     0.150 HD
ENDBRANCH  23  24
BRANCH  23  27
HETATM   27  C   UNK N   1      23.784  13.084   7.970  0.00  0.00     0.072 C 
BRANCH  27  28
HETATM   28  C   UNK N   1      23.492  12.718   9.403  0.00  0.00    -0.056 A 
HETATM   29  C   UNK N   1      24.566  12.397  10.240  0.00  0.00     0.007 A 
HETATM   30  C   UNK N   1      24.340  12.008  11.564  0.00  0.00     0.001 A 
HETATM   31  C   UNK N   1      23.034  11.928  12.057  0.00  0.00     0.000 A 
HETATM   32  C   UNK N   1      21.956  12.248  11.229  0.00  0.00     0.001 A 
HETATM   33  C   UNK N   1      22.183  12.645   9.909  0.00  0.00     0.007 A 
ENDBRANCH  27  28
ENDBRANCH  23  27
ENDBRANCH   1  23
TORSDOF 9
ENDMDL
MODEL 8
REMARK VINA RESULT:      -6.8      1.400      2.057
REMARK  9 active torsions:
REMARK  status: ('A' for Active; 'I' for Inactive)
REMARK    1  A    between atoms: C_2  and  N_1 
REMARK    2  A    between atoms: C_2  and  C_3 
REMARK    3  A    between atoms: C_2  and  C_10 
REMARK    4  A    between atoms: C_3  and  C_4 
REMARK       I    between atoms: C_10  and  N_12 
REMARK    5  A    between atoms: C_14  and  C_17 
REMARK       I    between atoms: C_17  and  N_19 
REMARK    6  A    between atoms: N_19  and  C_20 
REMARK    7  A    between atoms: C_20  and  C_21 
REMARK    8  A    between atoms: C_21  and  N_22 
REMARK    9  A    between atoms: N_22  and  C_23 
ROOT
HETATM    1  C   UNK N   1      36.731  13.075  13.583  0.00  0.00     0.243 C 
HETATM    2  O   UNK N   1      36.417  13.893  12.726  0.00  0.00    -0.271 OA
HETATM    3  N   UNK N   1      37.109  11.809  13.213  0.00  0.00    -0.337 N 
HETATM    4  C   UNK N   1      37.503  10.821  14.181  0.00  0.00     0.127 C 
HETATM    5  C   UNK N   1      37.268  11.377  11.839  0.00  0.00     0.179 C 
HETATM    6  C   UNK N   1      37.660   9.912  11.943  0.00  0.00     0.037 C 
HETATM    7  C   UNK N   1      38.167   9.724  13.367  0.00  0.00     0.022 C 
ENDROOT
BRANCH   5   8
HETATM    8  C   UNK N   1      36.050  11.535  10.952  0.00  0.00     0.240 C 
HETATM    9  O   UNK N   1      35.113  10.761  11.088  0.00  0.00    -0.271 OA
HETATM   10  N   UNK N   1      36.027  12.468   9.969  0.00  0.00    -0.358 N 
HETATM   11  H   UNK N   1      36.726  13.161   9.956  0.00  0.00     0.162 HD
BRANCH  10  12
HETATM   12  C   UNK N   1      35.016  12.481   8.942  0.00  0.00     0.142 C 
BRANCH  12  13
HETATM   13  C   UNK N   1      35.104  13.824   8.233  0.00  0.00     0.139 C 
BRANCH  13  14
HETATM   14  N   UNK N   1      34.851  14.912   9.143  0.00  0.00    -0.388 N 
HETATM   15  H   UNK N   1      35.314  14.927  10.011  0.00  0.00     0.159 HD
BRANCH  14  16
HETATM   16  C   UNK N   1      33.954  15.962   8.819  0.00  0.00     0.030 A 
HETATM   17  C   UNK N   1      32.577  15.724   8.850  0.00  0.00     0.046 A 
HETATM   18  C   UNK N   1      31.693  16.758   8.536  0.00  0.00     0.089 A 
HETATM   19  N   UNK N   1      32.168  17.991   8.209  0.00  0.00    -0.375 N 
HETATM   20  C   UNK N   1      33.504  18.249   8.174  0.00  0.00     0.089 A 
ATOM     21  HN  UNK N   1      31.510  18.737   7.986  1.00  0.00     0.164 HD
HETATM   22  C   UNK N   1      34.421  17.239   8.475  0.00  0.00     0.046 A 
ENDBRANCH  14  16
ENDBRANCH  13  14
ENDBRANCH  12  13
ENDBRANCH  10  12
ENDBRANCH   5   8
BRANCH   1  23
HETATM   23  C   UNK N   1      36.736  13.497  15.040  0.00  0.00     0.171 C 
BRANCH  23  24
HETATM   24  N   UNK N   1      37.117  14.900  15.095  0.00  0.00    -0.418 N 
HETATM   25  H   UNK N   1      37.961  15.371  14.769  0.00  0.00     0.150 HD
HETATM   26  H   UNK N   1      36.428  15.513  15.531  0.00  0.00     0.150 HD
ENDBRANCH  23  24
BRANCH  23  27
HETATM   27  C   UNK N   1      35.351  13.296  15.685  0.00  0.00     0.072 C 
BRANCH  27  28
HETATM   28  C   UNK N   1      35.300  12.614  17.028  0.00  0.00    -0.056 A 
HETATM   29  C   UNK N   1      35.210  13.409  18.176  0.00  0.00     0.007 A 
HETATM   30  C   UNK N   1      35.205  12.822  19.445  0.00  0.00     0.001 A 
HETATM   31  C   UNK N   1      35.302  11.434  19.575  0.00  0.00     0.000 A 
HETATM   32  C   UNK N   1      35.390  10.632  18.434  0.00  0.00     0.001 A 
HETATM   33  C   UNK N   1      35.387  11.218  17.167  0.00  0.00     0.007 A 
ENDBRANCH  27  28
ENDBRANCH  23  27
ENDBRANCH   1  23
TORSDOF 9
ENDMDL
MODEL 9
REMARK VINA RESULT:      -6.7      8.500     11.441
REMARK  9 active torsions:
REMARK  status: ('A' for Active; 'I' for Inactive)
REMARK    1  A    between atoms: C_2  and  N_1 
REMARK    2  A    between atoms: C_2  and  C_3 
REMARK    3  A    between atoms: C_2  and  C_10 
REMARK    4  A    between atoms: C_3  and  C_4 
REMARK       I    between atoms: C_10  and  N_12 
REMARK    5  A    between atoms: C_14  and  C_17 
REMARK       I    between atoms: C_17  and  N_19 
REMARK    6  A    between atoms: N_19  and  C_20 
REMARK    7  A    between atoms: C_20  and  C_21 
REMARK    8  A    between atoms: C_21  and  N_22 
REMARK    9  A    between atoms: N_22  and  C_23 
ROOT
HETATM    1  C   UNK N   1      27.995  17.892   6.799  0.00  0.00     0.243 C 
HETATM    2  O   UNK N   1      27.759  16.712   6.568  0.00  0.00    -0.271 OA
HETATM    3  N   UNK N   1      27.547  18.860   5.935  0.00  0.00    -0.337 N 
HETATM    4  C   UNK N   1      27.784  20.258   6.173  0.00  0.00     0.127 C 
HETATM    5  C   UNK N   1      26.705  18.597   4.786  0.00  0.00     0.179 C 
HETATM    6  C   UNK N   1      26.510  19.958   4.137  0.00  0.00     0.037 C 
HETATM    7  C   UNK N   1      26.850  20.978   5.216  0.00  0.00     0.022 C 
ENDROOT
BRANCH   5   8
HETATM    8  C   UNK N   1      27.253  17.607   3.779  0.00  0.00     0.240 C 
HETATM    9  O   UNK N   1      26.474  16.884   3.174  0.00  0.00    -0.271 OA
HETATM   10  N   UNK N   1      28.591  17.465   3.606  0.00  0.00    -0.358 N 
HETATM   11  H   UNK N   1      29.194  18.136   4.000  0.00  0.00     0.162 HD
BRANCH  10  12
HETATM   12  C   UNK N   1      29.160  16.366   2.867  0.00  0.00     0.142 C 
BRANCH  12  13
HETATM   13  C   UNK N   1      29.470  15.259   3.863  0.00  0.00     0.139 C 
BRANCH  13  14
HETATM   14  N   UNK N   1      28.302  14.462   4.137  0.00  0.00    -0.388 N 
HETATM   15  H   UNK N   1      27.841  14.570   5.000  0.00  0.00     0.159 HD
BRANCH  14  16
HETATM   16  C   UNK N   1      27.800  13.527   3.196  0.00  0.00     0.030 A 
HETATM   17  C   UNK N   1      28.690  12.710   2.496  0.00  0.00     0.046 A 
HETATM   18  C   UNK N   1      28.196  11.785   1.573  0.00  0.00     0.089 A 
HETATM   19  N   UNK N   1      26.856  11.676   1.362  0.00  0.00    -0.375 N 
HETATM   20  C   UNK N   1      25.968  12.459   2.033  0.00  0.00     0.089 A 
ATOM     21  HN  UNK N   1      26.510  10.994   0.688  1.00  0.00     0.164 HD
HETATM   22  C   UNK N   1      26.423  13.400   2.960  0.00  0.00     0.046 A 
ENDBRANCH  14  16
ENDBRANCH  13  14
ENDBRANCH  12  13
ENDBRANCH  10  12
ENDBRANCH   5   8
BRANCH   1  23
HETATM   23  C   UNK N   1      28.744  18.262   8.065  0.00  0.00     0.171 C 
BRANCH  23  24
HETATM   24  N   UNK N   1      27.772  18.360   9.144  0.00  0.00    -0.418 N 
HETATM   25  H   UNK N   1      27.776  17.954  10.080  0.00  0.00     0.150 HD
HETATM   26  H   UNK N   1      26.951  18.928   8.929  0.00  0.00     0.150 HD
ENDBRANCH  23  24
BRANCH  23  27
HETATM   27  C   UNK N   1      29.815  17.209   8.409  0.00  0.00     0.072 C 
BRANCH  27  28
HETATM   28  C   UNK N   1      31.166  17.350   7.755  0.00  0.00    -0.056 A 
HETATM   29  C   UNK N   1      32.205  17.929   8.491  0.00  0.00     0.007 A 
HETATM   30  C   UNK N   1      33.462  18.122   7.910  0.00  0.00     0.001 A 
HETATM   31  C   UNK N   1      33.685  17.744   6.583  0.00  0.00     0.000 A 
HETATM   32  C   UNK N   1      32.654  17.163   5.841  0.00  0.00     0.001 A 
HETATM   33  C   UNK N   1      31.401  16.964   6.425  0.00  0.00     0.007 A 
ENDBRANCH  27  28
ENDBRANCH  23  27
ENDBRANCH   1  23
TORSDOF 9
ENDMDL
