MODEL 1
REMARK VINA RESULT:      -7.7      0.000      0.000
REMARK  6 active torsions:
REMARK  status: ('A' for Active; 'I' for Inactive)
REMARK    1  A    between atoms: N_1  and  C_2 
REMARK    2  A    between atoms: C_3  and  C_15 
REMARK    3  A    between atoms: N_7  and  C_8 
REMARK    4  A    between atoms: C_15  and  C_17 
REMARK    5  A    between atoms: C_21  and  O_22 
REMARK    6  A    between atoms: O_22  and  C_23 
ROOT
HETATM    1  C   UNK N   1      33.352  17.006   8.747  0.00  0.00     0.137 A 
HETATM    2  C   UNK N   1      33.974  16.053   9.501  0.00  0.00     0.077 A 
HETATM    3  C   UNK N   1      33.165  14.932   9.438  0.00  0.00     0.127 A 
HETATM    4  N   UNK N   1      32.050  15.270   8.741  0.00  0.00    -0.302 N 
ATOM      5  HN  UNK N   1      31.258  14.657   8.547  1.00  0.00     0.186 HD
HETATM    6  N   UNK N   1      32.164  16.528   8.358  0.00  0.00    -0.240 N 
ENDROOT
BRANCH   2   7
HETATM    7  C   UNK N   1      35.168  16.244  10.327  0.00  0.00     0.197 C 
HETATM    8  O   UNK N   1      35.704  17.345  10.354  0.00  0.00    -0.286 OA
BRANCH   7   9
HETATM    9  C   UNK N   1      35.818  15.095  11.024  0.00  0.00     0.018 A 
HETATM   10  C   UNK N   1      36.801  14.269  10.445  0.00  0.00     0.015 A 
HETATM   11  C   UNK N   1      37.392  13.230  11.180  0.00  0.00     0.004 A 
HETATM   12  C   UNK N   1      37.030  13.030  12.520  0.00  0.00     0.037 A 
HETATM   13  C   UNK N   1      36.078  13.872  13.105  0.00  0.00     0.070 A 
HETATM   14  C   UNK N   1      35.493  14.882  12.336  0.00  0.00     0.052 A 
BRANCH  13  15
HETATM   15  O   UNK N   1      35.726  13.748  14.409  0.00  0.00    -0.346 OA
BRANCH  15  16
HETATM   16  C   UNK N   1      35.549  12.479  14.940  0.00  0.00     0.132 C 
HETATM   17  C   UNK N   1      35.704  12.370  16.443  0.00  0.00     0.051 C 
HETATM   18  C   UNK N   1      35.314  10.943  16.891  0.00  0.00     0.116 C 
HETATM   19  N   UNK N   1      35.340   9.988  15.772  0.00  0.00    -0.421 N 
HETATM   20  C   UNK N   1      34.310  10.330  14.778  0.00  0.00     0.116 C 
HETATM   21  H   UNK N   1      35.983   9.198  15.696  0.00  0.00     0.153 HD
HETATM   22  C   UNK N   1      34.226  11.837  14.514  0.00  0.00     0.051 C 
ENDBRANCH  15  16
ENDBRANCH  13  15
ENDBRANCH   7   9
ENDBRANCH   2   7
BRANCH   1  23
HETATM   23  N   UNK N   1      33.833  18.301   8.466  0.00  0.00    -0.383 N 
HETATM   24  H   UNK N   1      33.491  18.955   7.815  0.00  0.00     0.157 HD
HETATM   25  H   UNK N   1      34.615  18.589   8.990  0.00  0.00     0.157 HD
ENDBRANCH   1  23
BRANCH   6  26
HETATM   26  C   UNK N   1      31.085  17.340   7.864  0.00  0.00     0.058 A 
HETATM   27  C   UNK N   1      30.617  17.154   6.560  0.00  0.00     0.034 A 
HETATM   28  C   UNK N   1      29.388  17.703   6.177  0.00  0.00     0.044 A 
HETATM   29  C   UNK N   1      28.617  18.417   7.103  0.00  0.00     0.116 A 
HETATM   30  F   UNK N   1      27.398  18.887   6.758  0.00  0.00    -0.206 F 
HETATM   31  C   UNK N   1      29.092  18.629   8.393  0.00  0.00     0.044 A 
HETATM   32  C   UNK N   1      30.314  18.090   8.767  0.00  0.00     0.034 A 
ENDBRANCH   6  26
TORSDOF 6
ENDMDL
MODEL 2
REMARK VINA RESULT:      -7.5      4.041      6.918
REMARK  6 active torsions:
REMARK  status: ('A' for Active; 'I' for Inactive)
REMARK    1  A    between atoms: N_1  and  C_2 
REMARK    2  A    between atoms: C_3  and  C_15 
REMARK    3  A    between atoms: N_7  and  C_8 
REMARK    4  A    between atoms: C_15  and  C_17 
REMARK    5  A    between atoms: C_21  and  O_22 
REMARK    6  A    between atoms: O_22  and  C_23 
ROOT
HETATM    1  C   UNK N   1      27.966  18.613   5.458  0.00  0.00     0.137 A 
HETATM    2  C   UNK N   1      28.811  17.548   5.581  0.00  0.00     0.077 A 
HETATM    3  C   UNK N   1      28.610  16.773   4.452  0.00  0.00     0.127 A 
HETATM    4  N   UNK N   1      27.597  17.334   3.744  0.00  0.00    -0.302 N 
ATOM      5  HN  UNK N   1      27.207  16.976   2.873  1.00  0.00     0.186 HD
HETATM    6  N   UNK N   1      27.201  18.423   4.376  0.00  0.00    -0.240 N 
ENDROOT
BRANCH   2   7
HETATM    7  C   UNK N   1      29.636  17.226   6.748  0.00  0.00     0.197 C 
HETATM    8  O   UNK N   1      29.091  17.028   7.826  0.00  0.00    -0.286 OA
BRANCH   7   9
HETATM    9  C   UNK N   1      31.126  17.268   6.674  0.00  0.00     0.018 A 
HETATM   10  C   UNK N   1      31.860  17.331   5.473  0.00  0.00     0.015 A 
HETATM   11  C   UNK N   1      33.261  17.406   5.489  0.00  0.00     0.004 A 
HETATM   12  C   UNK N   1      33.943  17.457   6.713  0.00  0.00     0.037 A 
HETATM   13  C   UNK N   1      33.212  17.428   7.906  0.00  0.00     0.070 A 
HETATM   14  C   UNK N   1      31.818  17.329   7.852  0.00  0.00     0.052 A 
BRANCH  13  15
HETATM   15  O   UNK N   1      33.821  17.519   9.115  0.00  0.00    -0.346 OA
BRANCH  15  16
HETATM   16  C   UNK N   1      34.731  16.541   9.484  0.00  0.00     0.132 C 
HETATM   17  C   UNK N   1      35.448  16.775  10.799  0.00  0.00     0.051 C 
HETATM   18  C   UNK N   1      36.292  15.527  11.146  0.00  0.00     0.116 C 
HETATM   19  N   UNK N   1      36.535  14.681   9.966  0.00  0.00    -0.421 N 
HETATM   20  C   UNK N   1      35.271  14.114   9.469  0.00  0.00     0.116 C 
HETATM   21  H   UNK N   1      37.452  14.511   9.551  0.00  0.00     0.153 HD
HETATM   22  C   UNK N   1      34.128  15.134   9.474  0.00  0.00     0.051 C 
ENDBRANCH  15  16
ENDBRANCH  13  15
ENDBRANCH   7   9
ENDBRANCH   2   7
BRANCH   1  23
HETATM   23  N   UNK N   1      27.859  19.707   6.342  0.00  0.00    -0.383 N 
HETATM   24  H   UNK N   1      27.755  19.696   7.320  0.00  0.00     0.157 HD
HETATM   25  H   UNK N   1      27.893  20.598   5.925  0.00  0.00     0.157 HD
ENDBRANCH   1  23
BRANCH   6  26
HETATM   26  C   UNK N   1      25.974  19.126   4.118  0.00  0.00     0.058 A 
HETATM   27  C   UNK N   1      25.972  20.223   3.251  0.00  0.00     0.034 A 
HETATM   28  C   UNK N   1      24.759  20.713   2.752  0.00  0.00     0.044 A 
HETATM   29  C   UNK N   1      23.553  20.092   3.099  0.00  0.00     0.116 A 
HETATM   30  F   UNK N   1      22.388  20.516   2.561  0.00  0.00    -0.206 F 
HETATM   31  C   UNK N   1      23.548  19.018   3.982  0.00  0.00     0.044 A 
HETATM   32  C   UNK N   1      24.750  18.540   4.482  0.00  0.00     0.034 A 
ENDBRANCH   6  26
TORSDOF 6
ENDMDL
MODEL 3
REMARK VINA RESULT:      -7.5      3.845      9.855
REMARK  6 active torsions:
REMARK  status: ('A' for Active; 'I' for Inactive)
REMARK    1  A    between atoms: N_1  and  C_2 
REMARK    2  A    between atoms: C_3  and  C_15 
REMARK    3  A    between atoms: N_7  and  C_8 
REMARK    4  A    between atoms: C_15  and  C_17 
REMARK    5  A    between atoms: C_21  and  O_22 
REMARK    6  A    between atoms: O_22  and  C_23 
ROOT
HETATM    1  C   UNK N   1      34.573  15.941  10.233  0.00  0.00     0.137 A 
HETATM    2  C   UNK N   1      33.856  16.095   9.082  0.00  0.00     0.077 A 
HETATM    3  C   UNK N   1      33.334  14.847   8.790  0.00  0.00     0.127 A 
HETATM    4  N   UNK N   1      33.826  13.973   9.704  0.00  0.00    -0.302 N 
ATOM      5  HN  UNK N   1      33.637  12.971   9.735  1.00  0.00     0.186 HD
HETATM    6  N   UNK N   1      34.592  14.640  10.547  0.00  0.00    -0.240 N 
ENDROOT
BRANCH   2   7
HETATM    7  C   UNK N   1      33.793  17.303   8.255  0.00  0.00     0.197 C 
HETATM    8  O   UNK N   1      34.254  18.349   8.693  0.00  0.00    -0.286 OA
BRANCH   7   9
HETATM    9  C   UNK N   1      33.061  17.311   6.954  0.00  0.00     0.018 A 
HETATM   10  C   UNK N   1      33.686  17.278   5.692  0.00  0.00     0.015 A 
HETATM   11  C   UNK N   1      32.926  17.249   4.513  0.00  0.00     0.004 A 
HETATM   12  C   UNK N   1      31.526  17.214   4.587  0.00  0.00     0.037 A 
HETATM   13  C   UNK N   1      30.906  17.212   5.841  0.00  0.00     0.070 A 
HETATM   14  C   UNK N   1      31.695  17.266   6.994  0.00  0.00     0.052 A 
BRANCH  13  15
HETATM   15  O   UNK N   1      29.558  17.135   5.967  0.00  0.00    -0.346 OA
BRANCH  15  16
HETATM   16  C   UNK N   1      28.776  18.167   5.470  0.00  0.00     0.132 C 
HETATM   17  C   UNK N   1      27.859  17.799   4.321  0.00  0.00     0.051 C 
HETATM   18  C   UNK N   1      26.943  19.002   3.998  0.00  0.00     0.116 C 
HETATM   19  N   UNK N   1      27.479  20.263   4.538  0.00  0.00    -0.421 N 
HETATM   20  C   UNK N   1      27.494  20.227   6.009  0.00  0.00     0.116 C 
HETATM   21  H   UNK N   1      27.795  21.050   3.971  0.00  0.00     0.153 HD
HETATM   22  C   UNK N   1      27.971  18.880   6.559  0.00  0.00     0.051 C 
ENDBRANCH  15  16
ENDBRANCH  13  15
ENDBRANCH   7   9
ENDBRANCH   2   7
BRANCH   1  23
HETATM   23  N   UNK N   1      35.240  16.955  10.950  0.00  0.00    -0.383 N 
HETATM   24  H   UNK N   1      36.028  17.480  10.681  0.00  0.00     0.157 HD
HETATM   25  H   UNK N   1      34.868  17.166  11.837  0.00  0.00     0.157 HD
ENDBRANCH   1  23
BRANCH   6  26
HETATM   26  C   UNK N   1      35.522  14.041  11.466  0.00  0.00     0.058 A 
HETATM   27  C   UNK N   1      35.130  13.786  12.783  0.00  0.00     0.034 A 
HETATM   28  C   UNK N   1      35.898  12.934  13.586  0.00  0.00     0.044 A 
HETATM   29  C   UNK N   1      37.043  12.320  13.065  0.00  0.00     0.116 A 
HETATM   30  F   UNK N   1      37.745  11.441  13.813  0.00  0.00    -0.206 F 
HETATM   31  C   UNK N   1      37.452  12.592  11.764  0.00  0.00     0.044 A 
HETATM   32  C   UNK N   1      36.694  13.443  10.974  0.00  0.00     0.034 A 
ENDBRANCH   6  26
TORSDOF 6
ENDMDL
MODEL 4
REMARK VINA RESULT:      -7.5     16.858     19.941
REMARK  6 active torsions:
REMARK  status: ('A' for Active; 'I' for Inactive)
REMARK    1  A    between atoms: N_1  and  C_2 
REMARK    2  A    between atoms: C_3  and  C_15 
REMARK    3  A    between atoms: N_7  and  C_8 
REMARK    4  A    between atoms: C_15  and  C_17 
REMARK    5  A    between atoms: C_21  and  O_22 
REMARK    6  A    between atoms: O_22  and  C_23 
ROOT
HETATM    1  C   UNK N   1      26.664  24.404  -7.180  0.00  0.00     0.137 A 
HETATM    2  C   UNK N   1      26.741  23.113  -7.617  0.00  0.00     0.077 A 
HETATM    3  C   UNK N   1      25.718  22.434  -6.978  0.00  0.00     0.127 A 
HETATM    4  N   UNK N   1      25.129  23.300  -6.114  0.00  0.00    -0.302 N 
ATOM      5  HN  UNK N   1      24.356  23.083  -5.486  1.00  0.00     0.186 HD
HETATM    6  N   UNK N   1      25.727  24.471  -6.226  0.00  0.00    -0.240 N 
ENDROOT
BRANCH   2   7
HETATM    7  C   UNK N   1      27.792  22.546  -8.466  0.00  0.00     0.197 C 
HETATM    8  O   UNK N   1      27.883  22.917  -9.629  0.00  0.00    -0.286 OA
BRANCH   7   9
HETATM    9  C   UNK N   1      28.661  21.433  -7.980  0.00  0.00     0.018 A 
HETATM   10  C   UNK N   1      28.746  20.168  -8.592  0.00  0.00     0.015 A 
HETATM   11  C   UNK N   1      29.617  19.186  -8.096  0.00  0.00     0.004 A 
HETATM   12  C   UNK N   1      30.442  19.474  -7.000  0.00  0.00     0.037 A 
HETATM   13  C   UNK N   1      30.382  20.743  -6.413  0.00  0.00     0.070 A 
HETATM   14  C   UNK N   1      29.485  21.689  -6.919  0.00  0.00     0.052 A 
BRANCH  13  15
HETATM   15  O   UNK N   1      31.190  21.087  -5.379  0.00  0.00    -0.346 OA
BRANCH  15  16
HETATM   16  C   UNK N   1      30.804  22.119  -4.538  0.00  0.00     0.132 C 
HETATM   17  C   UNK N   1      30.369  21.704  -3.147  0.00  0.00     0.051 C 
HETATM   18  C   UNK N   1      30.135  22.969  -2.290  0.00  0.00     0.116 C 
HETATM   19  N   UNK N   1      29.953  24.171  -3.120  0.00  0.00    -0.421 N 
HETATM   20  C   UNK N   1      31.189  24.479  -3.858  0.00  0.00     0.116 C 
HETATM   21  H   UNK N   1      29.091  24.714  -3.175  0.00  0.00     0.153 HD
HETATM   22  C   UNK N   1      31.855  23.227  -4.437  0.00  0.00     0.051 C 
ENDBRANCH  15  16
ENDBRANCH  13  15
ENDBRANCH   7   9
ENDBRANCH   2   7
BRANCH   1  23
HETATM   23  N   UNK N   1      27.467  25.483  -7.602  0.00  0.00    -0.383 N 
HETATM   24  H   UNK N   1      27.184  26.366  -7.930  0.00  0.00     0.157 HD
HETATM   25  H   UNK N   1      28.439  25.332  -7.564  0.00  0.00     0.157 HD
ENDBRANCH   1  23
BRANCH   6  26
HETATM   26  C   UNK N   1      25.602  25.554  -5.288  0.00  0.00     0.058 A 
HETATM   27  C   UNK N   1      26.369  25.552  -4.119  0.00  0.00     0.034 A 
HETATM   28  C   UNK N   1      26.492  26.725  -3.366  0.00  0.00     0.044 A 
HETATM   29  C   UNK N   1      25.870  27.904  -3.793  0.00  0.00     0.116 A 
HETATM   30  F   UNK N   1      26.046  29.055  -3.108  0.00  0.00    -0.206 F 
HETATM   31  C   UNK N   1      25.083  27.904  -4.940  0.00  0.00     0.044 A 
HETATM   32  C   UNK N   1      24.956  26.738  -5.680  0.00  0.00     0.034 A 
ENDBRANCH   6  26
TORSDOF 6
ENDMDL
MODEL 5
REMARK VINA RESULT:      -7.5      3.292      5.396
REMARK  6 active torsions:
REMARK  status: ('A' for Active; 'I' for Inactive)
REMARK    1  A    between atoms: N_1  and  C_2 
REMARK    2  A    between atoms: C_3  and  C_15 
REMARK    3  A    between atoms: N_7  and  C_8 
REMARK    4  A    between atoms: C_15  and  C_17 
REMARK    5  A    between atoms: C_21  and  O_22 
REMARK    6  A    between atoms: O_22  and  C_23 
ROOT
HETATM    1  C   UNK N   1      29.790  17.140   4.830  0.00  0.00     0.137 A 
HETATM    2  C   UNK N   1      30.598  16.866   5.896  0.00  0.00     0.077 A 
HETATM    3  C   UNK N   1      29.852  17.165   7.023  0.00  0.00     0.127 A 
HETATM    4  N   UNK N   1      28.673  17.695   6.606  0.00  0.00    -0.302 N 
ATOM      5  HN  UNK N   1      27.924  18.032   7.209  1.00  0.00     0.186 HD
HETATM    6  N   UNK N   1      28.664  17.701   5.286  0.00  0.00    -0.240 N 
ENDROOT
BRANCH   2   7
HETATM    7  C   UNK N   1      32.011  16.486   5.838  0.00  0.00     0.197 C 
HETATM    8  O   UNK N   1      32.408  15.813   4.896  0.00  0.00    -0.286 OA
BRANCH   7   9
HETATM    9  C   UNK N   1      32.939  16.787   6.969  0.00  0.00     0.018 A 
HETATM   10  C   UNK N   1      33.661  17.988   7.103  0.00  0.00     0.015 A 
HETATM   11  C   UNK N   1      34.485  18.211   8.217  0.00  0.00     0.004 A 
HETATM   12  C   UNK N   1      34.565  17.246   9.230  0.00  0.00     0.037 A 
HETATM   13  C   UNK N   1      33.820  16.067   9.113  0.00  0.00     0.070 A 
HETATM   14  C   UNK N   1      33.028  15.868   7.978  0.00  0.00     0.052 A 
BRANCH  13  15
HETATM   15  O   UNK N   1      33.828  15.121  10.086  0.00  0.00    -0.346 OA
BRANCH  15  16
HETATM   16  C   UNK N   1      35.044  14.654  10.558  0.00  0.00     0.132 C 
HETATM   17  C   UNK N   1      35.006  13.986  11.918  0.00  0.00     0.051 C 
HETATM   18  C   UNK N   1      36.394  13.376  12.223  0.00  0.00     0.116 C 
HETATM   19  N   UNK N   1      37.451  13.964  11.383  0.00  0.00    -0.421 N 
HETATM   20  C   UNK N   1      37.230  13.627   9.967  0.00  0.00     0.116 C 
HETATM   21  H   UNK N   1      38.227  14.526  11.734  0.00  0.00     0.153 HD
HETATM   22  C   UNK N   1      35.758  13.740   9.559  0.00  0.00     0.051 C 
ENDBRANCH  15  16
ENDBRANCH  13  15
ENDBRANCH   7   9
ENDBRANCH   2   7
BRANCH   1  23
HETATM   23  N   UNK N   1      30.097  16.935   3.469  0.00  0.00    -0.383 N 
HETATM   24  H   UNK N   1      29.908  17.522   2.702  0.00  0.00     0.157 HD
HETATM   25  H   UNK N   1      30.561  16.092   3.259  0.00  0.00     0.157 HD
ENDBRANCH   1  23
BRANCH   6  26
HETATM   26  C   UNK N   1      27.740  18.443   4.472  0.00  0.00     0.058 A 
HETATM   27  C   UNK N   1      26.628  17.800   3.920  0.00  0.00     0.034 A 
HETATM   28  C   UNK N   1      25.573  18.558   3.400  0.00  0.00     0.044 A 
HETATM   29  C   UNK N   1      25.618  19.956   3.453  0.00  0.00     0.116 A 
HETATM   30  F   UNK N   1      24.569  20.689   3.018  0.00  0.00    -0.206 F 
HETATM   31  C   UNK N   1      26.734  20.601   3.975  0.00  0.00     0.044 A 
HETATM   32  C   UNK N   1      27.782  19.847   4.482  0.00  0.00     0.034 A 
ENDBRANCH   6  26
TORSDOF 6
ENDMDL
MODEL 6
REMARK VINA RESULT:      -7.5     16.431     19.182
REMARK  6 active torsions:
REMARK  status: ('A' for Active; 'I' for Inactive)
REMARK    1  A    between atoms: N_1  and  C_2 
REMARK    2  A    between atoms: C_3  and  C_15 
REMARK    3  A    between atoms: N_7  and  C_8 
REMARK    4  A    between atoms: C_15  and  C_17 
REMARK    5  A    between atoms: C_21  and  O_22 
REMARK    6  A    between atoms: O_22  and  C_23 
ROOT
HETATM    1  C   UNK N   1      28.782  24.757  -3.360  0.00  0.00     0.137 A 
HETATM    2  C   UNK N   1      30.056  24.275  -3.255  0.00  0.00     0.077 A 
HETATM    3  C   UNK N   1      30.848  25.135  -3.997  0.00  0.00     0.127 A 
HETATM    4  N   UNK N   1      30.026  26.034  -4.597  0.00  0.00    -0.302 N 
ATOM      5  HN  UNK N   1      30.318  26.782  -5.226  1.00  0.00     0.186 HD
HETATM    6  N   UNK N   1      28.786  25.776  -4.227  0.00  0.00    -0.240 N 
ENDROOT
BRANCH   2   7
HETATM    7  C   UNK N   1      30.459  23.020  -2.617  0.00  0.00     0.197 C 
HETATM    8  O   UNK N   1      30.208  22.848  -1.431  0.00  0.00    -0.286 OA
BRANCH   7   9
HETATM    9  C   UNK N   1      31.283  22.013  -3.347  0.00  0.00     0.018 A 
HETATM   10  C   UNK N   1      32.567  21.596  -2.944  0.00  0.00     0.015 A 
HETATM   11  C   UNK N   1      33.264  20.614  -3.664  0.00  0.00     0.004 A 
HETATM   12  C   UNK N   1      32.665  20.009  -4.778  0.00  0.00     0.037 A 
HETATM   13  C   UNK N   1      31.376  20.399  -5.158  0.00  0.00     0.070 A 
HETATM   14  C   UNK N   1      30.720  21.397  -4.431  0.00  0.00     0.052 A 
BRANCH  13  15
HETATM   15  O   UNK N   1      30.735  19.814  -6.201  0.00  0.00    -0.346 OA
BRANCH  15  16
HETATM   16  C   UNK N   1      29.996  20.606  -7.066  0.00  0.00     0.132 C 
HETATM   17  C   UNK N   1      30.798  21.383  -8.090  0.00  0.00     0.051 C 
HETATM   18  C   UNK N   1      29.828  22.076  -9.075  0.00  0.00     0.116 C 
HETATM   19  N   UNK N   1      28.466  22.179  -8.526  0.00  0.00    -0.421 N 
HETATM   20  C   UNK N   1      27.879  20.841  -8.349  0.00  0.00     0.116 C 
HETATM   21  H   UNK N   1      27.996  23.056  -8.300  0.00  0.00     0.153 HD
HETATM   22  C   UNK N   1      28.878  19.834  -7.770  0.00  0.00     0.051 C 
ENDBRANCH  15  16
ENDBRANCH  13  15
ENDBRANCH   7   9
ENDBRANCH   2   7
BRANCH   1  23
HETATM   23  N   UNK N   1      27.635  24.243  -2.721  0.00  0.00    -0.383 N 
HETATM   24  H   UNK N   1      26.689  24.403  -2.938  0.00  0.00     0.157 HD
HETATM   25  H   UNK N   1      27.804  23.645  -1.957  0.00  0.00     0.157 HD
ENDBRANCH   1  23
BRANCH   6  26
HETATM   26  C   UNK N   1      27.609  26.301  -4.866  0.00  0.00     0.058 A 
HETATM   27  C   UNK N   1      26.874  25.493  -5.738  0.00  0.00     0.034 A 
HETATM   28  C   UNK N   1      25.580  25.873  -6.113  0.00  0.00     0.044 A 
HETATM   29  C   UNK N   1      25.014  27.046  -5.599  0.00  0.00     0.116 A 
HETATM   30  F   UNK N   1      23.739  27.378  -5.902  0.00  0.00    -0.206 F 
HETATM   31  C   UNK N   1      25.752  27.867  -4.754  0.00  0.00     0.044 A 
HETATM   32  C   UNK N   1      27.037  27.492  -4.389  0.00  0.00     0.034 A 
ENDBRANCH   6  26
TORSDOF 6
ENDMDL
MODEL 7
REMARK VINA RESULT:      -7.3      4.064     10.364
REMARK  6 active torsions:
REMARK  status: ('A' for Active; 'I' for Inactive)
REMARK    1  A    between atoms: N_1  and  C_2 
REMARK    2  A    between atoms: C_3  and  C_15 
REMARK    3  A    between atoms: N_7  and  C_8 
REMARK    4  A    between atoms: C_15  and  C_17 
REMARK    5  A    between atoms: C_21  and  O_22 
REMARK    6  A    between atoms: O_22  and  C_23 
ROOT
HETATM    1  C   UNK N   1      33.797  15.908   9.748  0.00  0.00     0.137 A 
HETATM    2  C   UNK N   1      32.753  15.940   8.869  0.00  0.00     0.077 A 
HETATM    3  C   UNK N   1      32.259  14.648   8.820  0.00  0.00     0.127 A 
HETATM    4  N   UNK N   1      33.071  13.870   9.581  0.00  0.00    -0.302 N 
ATOM      5  HN  UNK N   1      32.974  12.865   9.722  1.00  0.00     0.186 HD
HETATM    6  N   UNK N   1      34.007  14.637  10.109  0.00  0.00    -0.240 N 
ENDROOT
BRANCH   2   7
HETATM    7  C   UNK N   1      32.351  17.079   8.040  0.00  0.00     0.197 C 
HETATM    8  O   UNK N   1      33.214  17.732   7.468  0.00  0.00    -0.286 OA
BRANCH   7   9
HETATM    9  C   UNK N   1      30.931  17.536   7.990  0.00  0.00     0.018 A 
HETATM   10  C   UNK N   1      30.299  18.274   9.010  0.00  0.00     0.015 A 
HETATM   11  C   UNK N   1      28.970  18.700   8.872  0.00  0.00     0.004 A 
HETATM   12  C   UNK N   1      28.267  18.422   7.690  0.00  0.00     0.037 A 
HETATM   13  C   UNK N   1      28.907  17.718   6.664  0.00  0.00     0.070 A 
HETATM   14  C   UNK N   1      30.225  17.289   6.845  0.00  0.00     0.052 A 
BRANCH  13  15
HETATM   15  O   UNK N   1      28.286  17.463   5.484  0.00  0.00    -0.346 OA
BRANCH  15  16
HETATM   16  C   UNK N   1      27.317  18.343   5.030  0.00  0.00     0.132 C 
HETATM   17  C   UNK N   1      27.834  19.628   4.415  0.00  0.00     0.051 C 
HETATM   18  C   UNK N   1      26.647  20.415   3.812  0.00  0.00     0.116 C 
HETATM   19  N   UNK N   1      25.356  19.973   4.363  0.00  0.00    -0.421 N 
HETATM   20  C   UNK N   1      25.079  18.581   3.973  0.00  0.00     0.116 C 
HETATM   21  H   UNK N   1      24.739  20.551   4.935  0.00  0.00     0.153 HD
HETATM   22  C   UNK N   1      26.317  17.685   4.076  0.00  0.00     0.051 C 
ENDBRANCH  15  16
ENDBRANCH  13  15
ENDBRANCH   7   9
ENDBRANCH   2   7
BRANCH   1  23
HETATM   23  N   UNK N   1      34.575  17.007  10.168  0.00  0.00    -0.383 N 
HETATM   24  H   UNK N   1      34.965  17.179  11.055  0.00  0.00     0.157 HD
HETATM   25  H   UNK N   1      34.751  17.692   9.483  0.00  0.00     0.157 HD
ENDBRANCH   1  23
BRANCH   6  26
HETATM   26  C   UNK N   1      35.215  14.157  10.724  0.00  0.00     0.058 A 
HETATM   27  C   UNK N   1      35.300  14.080  12.117  0.00  0.00     0.034 A 
HETATM   28  C   UNK N   1      36.326  13.336  12.711  0.00  0.00     0.044 A 
HETATM   29  C   UNK N   1      37.250  12.650  11.914  0.00  0.00     0.116 A 
HETATM   30  F   UNK N   1      38.197  11.872  12.483  0.00  0.00    -0.206 F 
HETATM   31  C   UNK N   1      37.185  12.747  10.528  0.00  0.00     0.044 A 
HETATM   32  C   UNK N   1      36.173  13.492   9.942  0.00  0.00     0.034 A 
ENDBRANCH   6  26
TORSDOF 6
ENDMDL
MODEL 8
REMARK VINA RESULT:      -7.3      2.294      3.512
REMARK  6 active torsions:
REMARK  status: ('A' for Active; 'I' for Inactive)
REMARK    1  A    between atoms: N_1  and  C_2 
REMARK    2  A    between atoms: C_3  and  C_15 
REMARK    3  A    between atoms: N_7  and  C_8 
REMARK    4  A    between atoms: C_15  and  C_17 
REMARK    5  A    between atoms: C_21  and  O_22 
REMARK    6  A    between atoms: O_22  and  C_23 
ROOT
HETATM    1  C   UNK N   1      34.179  14.847  10.267  0.00  0.00     0.137 A 
HETATM    2  C   UNK N   1      35.084  14.939  11.285  0.00  0.00     0.077 A 
HETATM    3  C   UNK N   1      35.415  16.280  11.378  0.00  0.00     0.127 A 
HETATM    4  N   UNK N   1      34.785  16.929  10.366  0.00  0.00    -0.302 N 
ATOM      5  HN  UNK N   1      34.852  17.925  10.161  1.00  0.00     0.186 HD
HETATM    6  N   UNK N   1      34.069  16.049   9.689  0.00  0.00    -0.240 N 
ENDROOT
BRANCH   2   7
HETATM    7  C   UNK N   1      35.688  13.820  12.013  0.00  0.00     0.197 C 
HETATM    8  O   UNK N   1      35.875  12.762  11.428  0.00  0.00    -0.286 OA
BRANCH   7   9
HETATM    9  C   UNK N   1      35.950  13.905  13.480  0.00  0.00     0.018 A 
HETATM   10  C   UNK N   1      36.786  14.866  14.082  0.00  0.00     0.015 A 
HETATM   11  C   UNK N   1      36.952  14.904  15.474  0.00  0.00     0.004 A 
HETATM   12  C   UNK N   1      36.251  14.001  16.286  0.00  0.00     0.037 A 
HETATM   13  C   UNK N   1      35.394  13.069  15.690  0.00  0.00     0.070 A 
HETATM   14  C   UNK N   1      35.271  13.044  14.297  0.00  0.00     0.052 A 
BRANCH  13  15
HETATM   15  O   UNK N   1      34.660  12.203  16.432  0.00  0.00    -0.346 OA
BRANCH  15  16
HETATM   16  C   UNK N   1      35.314  11.241  17.186  0.00  0.00     0.132 C 
HETATM   17  C   UNK N   1      35.378  11.508  18.676  0.00  0.00     0.051 C 
HETATM   18  C   UNK N   1      35.983  10.276  19.387  0.00  0.00     0.116 C 
HETATM   19  N   UNK N   1      36.722   9.409  18.455  0.00  0.00    -0.421 N 
HETATM   20  C   UNK N   1      35.806   8.820  17.465  0.00  0.00     0.116 C 
HETATM   21  H   UNK N   1      37.728   9.241  18.490  0.00  0.00     0.153 HD
HETATM   22  C   UNK N   1      34.777   9.829  16.942  0.00  0.00     0.051 C 
ENDBRANCH  15  16
ENDBRANCH  13  15
ENDBRANCH   7   9
ENDBRANCH   2   7
BRANCH   1  23
HETATM   23  N   UNK N   1      33.510  13.681   9.841  0.00  0.00    -0.383 N 
HETATM   24  H   UNK N   1      33.881  12.783   9.689  0.00  0.00     0.157 HD
HETATM   25  H   UNK N   1      32.545  13.780   9.673  0.00  0.00     0.157 HD
ENDBRANCH   1  23
BRANCH   6  26
HETATM   26  C   UNK N   1      33.503  16.274   8.387  0.00  0.00     0.058 A 
HETATM   27  C   UNK N   1      32.158  16.637   8.268  0.00  0.00     0.034 A 
HETATM   28  C   UNK N   1      31.682  17.157   7.059  0.00  0.00     0.044 A 
HETATM   29  C   UNK N   1      32.555  17.336   5.978  0.00  0.00     0.116 A 
HETATM   30  F   UNK N   1      32.115  17.905   4.834  0.00  0.00    -0.206 F 
HETATM   31  C   UNK N   1      33.887  16.951   6.083  0.00  0.00     0.044 A 
HETATM   32  C   UNK N   1      34.354  16.428   7.280  0.00  0.00     0.034 A 
ENDBRANCH   6  26
TORSDOF 6
ENDMDL
MODEL 9
REMARK VINA RESULT:      -7.3      4.056      6.721
REMARK  6 active torsions:
REMARK  status: ('A' for Active; 'I' for Inactive)
REMARK    1  A    between atoms: N_1  and  C_2 
REMARK    2  A    between atoms: C_3  and  C_15 
REMARK    3  A    between atoms: N_7  and  C_8 
REMARK    4  A    between atoms: C_15  and  C_17 
REMARK    5  A    between atoms: C_21  and  O_22 
REMARK    6  A    between atoms: O_22  and  C_23 
ROOT
HETATM    1  C   UNK N   1      35.224  13.076  13.110  0.00  0.00     0.137 A 
HETATM    2  C   UNK N   1      35.921  13.114  14.283  0.00  0.00     0.077 A 
HETATM    3  C   UNK N   1      36.581  14.331  14.292  0.00  0.00     0.127 A 
HETATM    4  N   UNK N   1      36.345  14.934  13.099  0.00  0.00    -0.302 N 
ATOM      5  HN  UNK N   1      36.716  15.836  12.802  1.00  0.00     0.186 HD
HETATM    6  N   UNK N   1      35.551  14.155  12.388  0.00  0.00    -0.240 N 
ENDROOT
BRANCH   2   7
HETATM    7  C   UNK N   1      36.056  12.020  15.248  0.00  0.00     0.197 C 
HETATM    8  O   UNK N   1      36.308  10.894  14.839  0.00  0.00    -0.286 OA
BRANCH   7   9
HETATM    9  C   UNK N   1      35.759  12.227  16.696  0.00  0.00     0.018 A 
HETATM   10  C   UNK N   1      35.471  13.478  17.276  0.00  0.00     0.015 A 
HETATM   11  C   UNK N   1      35.164  13.584  18.641  0.00  0.00     0.004 A 
HETATM   12  C   UNK N   1      35.104  12.430  19.435  0.00  0.00     0.037 A 
HETATM   13  C   UNK N   1      35.357  11.184  18.851  0.00  0.00     0.070 A 
HETATM   14  C   UNK N   1      35.683  11.118  17.493  0.00  0.00     0.052 A 
BRANCH  13  15
HETATM   15  O   UNK N   1      35.269  10.033  19.565  0.00  0.00    -0.346 OA
BRANCH  15  16
HETATM   16  C   UNK N   1      34.016   9.550  19.910  0.00  0.00     0.132 C 
HETATM   17  C   UNK N   1      33.641   8.212  19.306  0.00  0.00     0.051 C 
HETATM   18  C   UNK N   1      32.301   7.738  19.915  0.00  0.00     0.116 C 
HETATM   19  N   UNK N   1      31.554   8.846  20.532  0.00  0.00    -0.421 N 
HETATM   20  C   UNK N   1      32.289   9.382  21.689  0.00  0.00     0.116 C 
HETATM   21  H   UNK N   1      30.653   9.194  20.202  0.00  0.00     0.153 HD
HETATM   22  C   UNK N   1      33.792   9.510  21.423  0.00  0.00     0.051 C 
ENDBRANCH  15  16
ENDBRANCH  13  15
ENDBRANCH   7   9
ENDBRANCH   2   7
BRANCH   1  23
HETATM   23  N   UNK N   1      34.351  12.053  12.684  0.00  0.00    -0.383 N 
HETATM   24  H   UNK N   1      33.607  11.638  13.176  0.00  0.00     0.157 HD
HETATM   25  H   UNK N   1      34.508  11.709  11.776  0.00  0.00     0.157 HD
ENDBRANCH   1  23
BRANCH   6  26
HETATM   26  C   UNK N   1      35.312  14.289  10.977  0.00  0.00     0.058 A 
HETATM   27  C   UNK N   1      34.244  15.070  10.525  0.00  0.00     0.034 A 
HETATM   28  C   UNK N   1      34.187  15.461   9.183  0.00  0.00     0.044 A 
HETATM   29  C   UNK N   1      35.208  15.093   8.299  0.00  0.00     0.116 A 
HETATM   30  F   UNK N   1      35.194  15.529   7.020  0.00  0.00    -0.206 F 
HETATM   31  C   UNK N   1      36.258  14.293   8.737  0.00  0.00     0.044 A 
HETATM   32  C   UNK N   1      36.308  13.900  10.066  0.00  0.00     0.034 A 
ENDBRANCH   6  26
TORSDOF 6
ENDMDL
