REMARK  10 active torsions:
REMARK  status: ('A' for Active; 'I' for Inactive)
REMARK    1  A    between atoms: N_1  and  C_2 
REMARK    2  A    between atoms: C_3  and  C_15 
REMARK    3  A    between atoms: N_7  and  C_8 
REMARK    4  A    between atoms: C_15  and  C_17 
REMARK    5  A    between atoms: C_21  and  O_22 
REMARK    6  A    between atoms: O_22  and  C_23 
REMARK    7  A    between atoms: C_23  and  C_24 
REMARK    8  A    between atoms: C_24  and  O_25 
REMARK    9  A    between atoms: C_24  and  C_26 
REMARK   10  A    between atoms: C_26  and  O_27 
ROOT
HETATM    1  C   UNK N   1      -1.633  -1.761   0.476  0.00  0.00     0.137 A 
HETATM    2  C   UNK N   1      -0.385  -2.128   0.029  0.00  0.00     0.077 A 
HETATM    3  C   UNK N   1      -0.570  -3.380  -0.551  0.00  0.00     0.127 A 
HETATM    4  N   UNK N   1      -1.896  -3.679  -0.503  0.00  0.00    -0.302 N 
ATOM      5  HN  UNK N   1      -2.330  -4.528  -0.864  1.00  0.00     0.186 HD
HETATM    6  N   UNK N   1      -2.531  -2.676   0.096  0.00  0.00    -0.240 N 
ENDROOT
BRANCH   2   7
HETATM    7  C   UNK N   1       0.863  -1.307   0.039  0.00  0.00     0.197 C 
HETATM    8  O   UNK N   1       1.950  -1.866   0.002  0.00  0.00    -0.286 OA
BRANCH   7   9
HETATM    9  C   UNK N   1       0.792   0.191  -0.073  0.00  0.00     0.018 A 
HETATM   10  C   UNK N   1      -0.440   0.818  -0.308  0.00  0.00     0.015 A 
HETATM   11  C   UNK N   1      -0.565   2.195  -0.401  0.00  0.00     0.004 A 
HETATM   12  C   UNK N   1       0.566   2.988  -0.308  0.00  0.00     0.037 A 
HETATM   13  C   UNK N   1       1.824   2.404  -0.158  0.00  0.00     0.069 A 
HETATM   14  C   UNK N   1       1.942   0.998  -0.037  0.00  0.00     0.052 A 
BRANCH  13  15
HETATM   15  O   UNK N   1       2.897   3.221  -0.156  0.00  0.00    -0.349 OA
BRANCH  15  16
HETATM   16  C   UNK N   1       4.110   2.891  -0.716  0.00  0.00     0.209 C 
BRANCH  16  17
HETATM   17  C   UNK N   1       5.047   2.216   0.263  0.00  0.00     0.166 C 
BRANCH  17  18
HETATM   18  O   UNK N   1       6.326   2.735   0.065  0.00  0.00    -0.391 OA
HETATM   19  H   UNK N   1       7.083   2.145  -0.074  0.00  0.00     0.210 HD
ENDBRANCH  17  18
BRANCH  17  20
HETATM   20  C   UNK N   1       5.060   0.725  -0.029  0.00  0.00     0.198 C 
BRANCH  20  21
HETATM   21  O   UNK N   1       5.973   0.075   0.801  0.00  0.00    -0.398 OA
HETATM   22  H   UNK N   1       5.898  -0.701   1.378  0.00  0.00     0.209 HD
ENDBRANCH  20  21
ENDBRANCH  17  20
ENDBRANCH  16  17
ENDBRANCH  15  16
ENDBRANCH  13  15
ENDBRANCH   7   9
ENDBRANCH   2   7
BRANCH   1  23
HETATM   23  N   UNK N   1      -1.955  -0.618   1.243  0.00  0.00    -0.383 N 
HETATM   24  H   UNK N   1      -1.378  -0.026   1.778  0.00  0.00     0.157 HD
HETATM   25  H   UNK N   1      -2.909  -0.376   1.243  0.00  0.00     0.157 HD
ENDBRANCH   1  23
BRANCH   6  26
HETATM   26  C   UNK N   1      -3.960  -2.520   0.192  0.00  0.00     0.058 A 
HETATM   27  C   UNK N   1      -4.838  -3.570  -0.107  0.00  0.00     0.034 A 
HETATM   28  C   UNK N   1      -6.224  -3.345  -0.093  0.00  0.00     0.044 A 
HETATM   29  C   UNK N   1      -6.732  -2.068   0.187  0.00  0.00     0.116 A 
HETATM   30  F   UNK N   1      -8.066  -1.842   0.188  0.00  0.00    -0.206 F 
HETATM   31  C   UNK N   1      -5.863  -1.019   0.463  0.00  0.00     0.044 A 
HETATM   32  C   UNK N   1      -4.494  -1.247   0.467  0.00  0.00     0.034 A 
ENDBRANCH   6  26
TORSDOF 10
