MODEL 1
REMARK VINA RESULT:      -7.7      0.000      0.000
REMARK  10 active torsions:
REMARK  status: ('A' for Active; 'I' for Inactive)
REMARK    1  A    between atoms: N_1  and  C_2 
REMARK    2  A    between atoms: C_3  and  C_15 
REMARK    3  A    between atoms: N_7  and  C_8 
REMARK    4  A    between atoms: C_15  and  C_17 
REMARK    5  A    between atoms: C_21  and  O_22 
REMARK    6  A    between atoms: O_22  and  C_23 
REMARK    7  A    between atoms: C_23  and  C_24 
REMARK    8  A    between atoms: C_24  and  O_25 
REMARK    9  A    between atoms: C_24  and  C_26 
REMARK   10  A    between atoms: C_26  and  O_27 
ROOT
HETATM    1  C   UNK N   1      28.240  18.034   5.055  0.00  0.00     0.137 A 
HETATM    2  C   UNK N   1      28.933  17.653   6.181  0.00  0.00     0.077 A 
HETATM    3  C   UNK N   1      28.356  18.384   7.216  0.00  0.00     0.127 A 
HETATM    4  N   UNK N   1      27.318  19.099   6.704  0.00  0.00    -0.302 N 
ATOM      5  HN  UNK N   1      26.702  19.717   7.231  1.00  0.00     0.186 HD
HETATM    6  N   UNK N   1      27.242  18.854   5.400  0.00  0.00    -0.240 N 
ENDROOT
BRANCH   2   7
HETATM    7  C   UNK N   1      29.977  16.591   6.291  0.00  0.00     0.197 C 
HETATM    8  O   UNK N   1      29.692  15.437   6.004  0.00  0.00    -0.286 OA
BRANCH   7   9
HETATM    9  C   UNK N   1      31.406  16.953   6.590  0.00  0.00     0.018 A 
HETATM   10  C   UNK N   1      32.300  17.200   5.538  0.00  0.00     0.015 A 
HETATM   11  C   UNK N   1      33.621  17.556   5.757  0.00  0.00     0.004 A 
HETATM   12  C   UNK N   1      34.100  17.626   7.054  0.00  0.00     0.037 A 
HETATM   13  C   UNK N   1      33.270  17.307   8.129  0.00  0.00     0.069 A 
HETATM   14  C   UNK N   1      31.914  16.970   7.900  0.00  0.00     0.052 A 
BRANCH  13  15
HETATM   15  O   UNK N   1      33.814  17.313   9.363  0.00  0.00    -0.349 OA
BRANCH  15  16
HETATM   16  C   UNK N   1      35.131  17.007   9.619  0.00  0.00     0.209 C 
BRANCH  16  17
HETATM   17  C   UNK N   1      35.326  16.316  10.952  0.00  0.00     0.166 C 
BRANCH  17  18
HETATM   18  O   UNK N   1      36.695  16.131  11.146  0.00  0.00    -0.391 OA
HETATM   19  H   UNK N   1      37.234  15.686  10.474  0.00  0.00     0.210 HD
ENDBRANCH  17  18
BRANCH  17  20
HETATM   20  C   UNK N   1      34.640  14.961  10.900  0.00  0.00     0.198 C 
BRANCH  20  21
HETATM   21  O   UNK N   1      33.269  15.103  11.115  0.00  0.00    -0.398 OA
HETATM   22  H   UNK N   1      32.670  15.863  11.050  0.00  0.00     0.209 HD
ENDBRANCH  20  21
ENDBRANCH  17  20
ENDBRANCH  16  17
ENDBRANCH  15  16
ENDBRANCH  13  15
ENDBRANCH   7   9
ENDBRANCH   2   7
BRANCH   1  23
HETATM   23  N   UNK N   1      28.523  17.661   3.721  0.00  0.00    -0.383 N 
HETATM   24  H   UNK N   1      28.350  18.136   2.876  0.00  0.00     0.157 HD
HETATM   25  H   UNK N   1      28.962  16.786   3.621  0.00  0.00     0.157 HD
ENDBRANCH   1  23
BRANCH   6  26
HETATM   26  C   UNK N   1      26.180  19.276   4.523  0.00  0.00     0.058 A 
HETATM   27  C   UNK N   1      26.363  20.295   3.580  0.00  0.00     0.034 A 
HETATM   28  C   UNK N   1      25.274  20.740   2.813  0.00  0.00     0.044 A 
HETATM   29  C   UNK N   1      23.998  20.191   3.008  0.00  0.00     0.116 A 
HETATM   30  F   UNK N   1      22.942  20.625   2.282  0.00  0.00    -0.206 F 
HETATM   31  C   UNK N   1      23.808  19.194   3.958  0.00  0.00     0.044 A 
HETATM   32  C   UNK N   1      24.889  18.743   4.703  0.00  0.00     0.034 A 
ENDBRANCH   6  26
TORSDOF 10
ENDMDL
MODEL 2
REMARK VINA RESULT:      -7.3      1.573      2.519
REMARK  10 active torsions:
REMARK  status: ('A' for Active; 'I' for Inactive)
REMARK    1  A    between atoms: N_1  and  C_2 
REMARK    2  A    between atoms: C_3  and  C_15 
REMARK    3  A    between atoms: N_7  and  C_8 
REMARK    4  A    between atoms: C_15  and  C_17 
REMARK    5  A    between atoms: C_21  and  O_22 
REMARK    6  A    between atoms: O_22  and  C_23 
REMARK    7  A    between atoms: C_23  and  C_24 
REMARK    8  A    between atoms: C_24  and  O_25 
REMARK    9  A    between atoms: C_24  and  C_26 
REMARK   10  A    between atoms: C_26  and  O_27 
ROOT
HETATM    1  C   UNK N   1      28.410  18.278   6.930  0.00  0.00     0.137 A 
HETATM    2  C   UNK N   1      29.536  17.563   7.268  0.00  0.00     0.077 A 
HETATM    3  C   UNK N   1      29.781  16.746   6.168  0.00  0.00     0.127 A 
HETATM    4  N   UNK N   1      28.869  17.045   5.205  0.00  0.00    -0.302 N 
ATOM      5  HN  UNK N   1      28.811  16.614   4.283  1.00  0.00     0.186 HD
HETATM    6  N   UNK N   1      28.063  17.995   5.670  0.00  0.00    -0.240 N 
ENDROOT
BRANCH   2   7
HETATM    7  C   UNK N   1      30.386  17.726   8.486  0.00  0.00     0.197 C 
HETATM    8  O   UNK N   1      29.863  18.046   9.545  0.00  0.00    -0.286 OA
BRANCH   7   9
HETATM    9  C   UNK N   1      31.840  17.342   8.459  0.00  0.00     0.018 A 
HETATM   10  C   UNK N   1      32.791  18.239   7.951  0.00  0.00     0.015 A 
HETATM   11  C   UNK N   1      34.145  17.943   7.921  0.00  0.00     0.004 A 
HETATM   12  C   UNK N   1      34.581  16.705   8.360  0.00  0.00     0.037 A 
HETATM   13  C   UNK N   1      33.662  15.750   8.795  0.00  0.00     0.069 A 
HETATM   14  C   UNK N   1      32.283  16.067   8.849  0.00  0.00     0.052 A 
BRANCH  13  15
HETATM   15  O   UNK N   1      34.136  14.533   9.133  0.00  0.00    -0.349 OA
BRANCH  15  16
HETATM   16  C   UNK N   1      35.366  14.327   9.716  0.00  0.00     0.209 C 
BRANCH  16  17
HETATM   17  C   UNK N   1      35.311  14.343  11.228  0.00  0.00     0.166 C 
BRANCH  17  18
HETATM   18  O   UNK N   1      33.976  14.231  11.614  0.00  0.00    -0.391 OA
HETATM   19  H   UNK N   1      33.351  14.953  11.448  0.00  0.00     0.210 HD
ENDBRANCH  17  18
BRANCH  17  20
HETATM   20  C   UNK N   1      35.865  15.670  11.719  0.00  0.00     0.198 C 
BRANCH  20  21
HETATM   21  O   UNK N   1      36.954  16.061  10.940  0.00  0.00    -0.398 OA
HETATM   22  H   UNK N   1      37.208  16.910  10.546  0.00  0.00     0.209 HD
ENDBRANCH  20  21
ENDBRANCH  17  20
ENDBRANCH  16  17
ENDBRANCH  15  16
ENDBRANCH  13  15
ENDBRANCH   7   9
ENDBRANCH   2   7
BRANCH   1  23
HETATM   23  N   UNK N   1      27.688  19.163   7.763  0.00  0.00    -0.383 N 
HETATM   24  H   UNK N   1      28.007  19.865   8.375  0.00  0.00     0.157 HD
HETATM   25  H   UNK N   1      26.710  19.060   7.725  0.00  0.00     0.157 HD
ENDBRANCH   1  23
BRANCH   6  26
HETATM   26  C   UNK N   1      27.074  18.711   4.906  0.00  0.00     0.058 A 
HETATM   27  C   UNK N   1      25.759  18.244   4.780  0.00  0.00     0.034 A 
HETATM   28  C   UNK N   1      24.855  18.923   3.946  0.00  0.00     0.044 A 
HETATM   29  C   UNK N   1      25.271  20.047   3.216  0.00  0.00     0.116 A 
HETATM   30  F   UNK N   1      24.409  20.696   2.401  0.00  0.00    -0.206 F 
HETATM   31  C   UNK N   1      26.581  20.500   3.323  0.00  0.00     0.044 A 
HETATM   32  C   UNK N   1      27.468  19.839   4.161  0.00  0.00     0.034 A 
ENDBRANCH   6  26
TORSDOF 10
ENDMDL
MODEL 3
REMARK VINA RESULT:      -7.3      6.024     10.830
REMARK  10 active torsions:
REMARK  status: ('A' for Active; 'I' for Inactive)
REMARK    1  A    between atoms: N_1  and  C_2 
REMARK    2  A    between atoms: C_3  and  C_15 
REMARK    3  A    between atoms: N_7  and  C_8 
REMARK    4  A    between atoms: C_15  and  C_17 
REMARK    5  A    between atoms: C_21  and  O_22 
REMARK    6  A    between atoms: O_22  and  C_23 
REMARK    7  A    between atoms: C_23  and  C_24 
REMARK    8  A    between atoms: C_24  and  O_25 
REMARK    9  A    between atoms: C_24  and  C_26 
REMARK   10  A    between atoms: C_26  and  O_27 
ROOT
HETATM    1  C   UNK N   1      35.576  15.000  10.891  0.00  0.00     0.137 A 
HETATM    2  C   UNK N   1      34.657  15.404   9.951  0.00  0.00     0.077 A 
HETATM    3  C   UNK N   1      33.820  14.305   9.778  0.00  0.00     0.127 A 
HETATM    4  N   UNK N   1      34.206  13.335  10.650  0.00  0.00    -0.302 N 
ATOM      5  HN  UNK N   1      33.768  12.421  10.758  1.00  0.00     0.186 HD
HETATM    6  N   UNK N   1      35.253  13.781  11.337  0.00  0.00    -0.240 N 
ENDROOT
BRANCH   2   7
HETATM    7  C   UNK N   1      34.505  16.764   9.352  0.00  0.00     0.197 C 
HETATM    8  O   UNK N   1      35.209  17.679   9.755  0.00  0.00    -0.286 OA
BRANCH   7   9
HETATM    9  C   UNK N   1      33.621  16.976   8.154  0.00  0.00     0.018 A 
HETATM   10  C   UNK N   1      34.190  17.117   6.880  0.00  0.00     0.015 A 
HETATM   11  C   UNK N   1      33.422  17.296   5.741  0.00  0.00     0.004 A 
HETATM   12  C   UNK N   1      32.045  17.388   5.857  0.00  0.00     0.037 A 
HETATM   13  C   UNK N   1      31.441  17.337   7.113  0.00  0.00     0.069 A 
HETATM   14  C   UNK N   1      32.229  17.128   8.270  0.00  0.00     0.052 A 
BRANCH  13  15
HETATM   15  O   UNK N   1      30.105  17.514   7.172  0.00  0.00    -0.349 OA
BRANCH  15  16
HETATM   16  C   UNK N   1      29.364  17.360   8.321  0.00  0.00     0.209 C 
BRANCH  16  17
HETATM   17  C   UNK N   1      28.539  18.584   8.659  0.00  0.00     0.166 C 
BRANCH  17  18
HETATM   18  O   UNK N   1      27.429  18.168   9.394  0.00  0.00    -0.391 OA
HETATM   19  H   UNK N   1      27.163  18.641  10.198  0.00  0.00     0.210 HD
ENDBRANCH  17  18
BRANCH  17  20
HETATM   20  C   UNK N   1      28.070  19.224   7.363  0.00  0.00     0.198 C 
BRANCH  20  21
HETATM   21  O   UNK N   1      27.272  18.336   6.643  0.00  0.00    -0.398 OA
HETATM   22  H   UNK N   1      27.475  17.676   5.962  0.00  0.00     0.209 HD
ENDBRANCH  20  21
ENDBRANCH  17  20
ENDBRANCH  16  17
ENDBRANCH  15  16
ENDBRANCH  13  15
ENDBRANCH   7   9
ENDBRANCH   2   7
BRANCH   1  23
HETATM   23  N   UNK N   1      36.713  15.718  11.326  0.00  0.00    -0.383 N 
HETATM   24  H   UNK N   1      36.791  16.630  11.688  0.00  0.00     0.157 HD
HETATM   25  H   UNK N   1      37.563  15.228  11.255  0.00  0.00     0.157 HD
ENDBRANCH   1  23
BRANCH   6  26
HETATM   26  C   UNK N   1      35.853  13.133  12.475  0.00  0.00     0.058 A 
HETATM   27  C   UNK N   1      36.847  12.157  12.328  0.00  0.00     0.034 A 
HETATM   28  C   UNK N   1      37.335  11.483  13.459  0.00  0.00     0.044 A 
HETATM   29  C   UNK N   1      36.810  11.759  14.730  0.00  0.00     0.116 A 
HETATM   30  F   UNK N   1      37.266  11.103  15.822  0.00  0.00    -0.206 F 
HETATM   31  C   UNK N   1      35.808  12.712  14.877  0.00  0.00     0.044 A 
HETATM   32  C   UNK N   1      35.340  13.390  13.761  0.00  0.00     0.034 A 
ENDBRANCH   6  26
TORSDOF 10
ENDMDL
MODEL 4
REMARK VINA RESULT:      -7.2      9.334     12.523
REMARK  10 active torsions:
REMARK  status: ('A' for Active; 'I' for Inactive)
REMARK    1  A    between atoms: N_1  and  C_2 
REMARK    2  A    between atoms: C_3  and  C_15 
REMARK    3  A    between atoms: N_7  and  C_8 
REMARK    4  A    between atoms: C_15  and  C_17 
REMARK    5  A    between atoms: C_21  and  O_22 
REMARK    6  A    between atoms: O_22  and  C_23 
REMARK    7  A    between atoms: C_23  and  C_24 
REMARK    8  A    between atoms: C_24  and  O_25 
REMARK    9  A    between atoms: C_24  and  C_26 
REMARK   10  A    between atoms: C_26  and  O_27 
ROOT
HETATM    1  C   UNK N   1      21.504  14.086   6.625  0.00  0.00     0.137 A 
HETATM    2  C   UNK N   1      21.109  14.129   5.308  0.00  0.00     0.077 A 
HETATM    3  C   UNK N   1      22.085  13.412   4.622  0.00  0.00     0.127 A 
HETATM    4  N   UNK N   1      22.964  12.913   5.531  0.00  0.00    -0.302 N 
ATOM      5  HN  UNK N   1      23.779  12.337   5.321  1.00  0.00     0.186 HD
HETATM    6  N   UNK N   1      22.583  13.306   6.743  0.00  0.00    -0.240 N 
ENDROOT
BRANCH   2   7
HETATM    7  C   UNK N   1      19.842  14.698   4.756  0.00  0.00     0.197 C 
HETATM    8  O   UNK N   1      18.790  14.507   5.348  0.00  0.00    -0.286 OA
BRANCH   7   9
HETATM    9  C   UNK N   1      19.876  15.634   3.579  0.00  0.00     0.018 A 
HETATM   10  C   UNK N   1      20.202  15.146   2.305  0.00  0.00     0.015 A 
HETATM   11  C   UNK N   1      20.229  15.961   1.185  0.00  0.00     0.004 A 
HETATM   12  C   UNK N   1      19.973  17.314   1.322  0.00  0.00     0.037 A 
HETATM   13  C   UNK N   1      19.727  17.859   2.582  0.00  0.00     0.069 A 
HETATM   14  C   UNK N   1      19.674  17.017   3.719  0.00  0.00     0.052 A 
BRANCH  13  15
HETATM   15  O   UNK N   1      19.566  19.196   2.665  0.00  0.00    -0.349 OA
BRANCH  15  16
HETATM   16  C   UNK N   1      20.492  20.043   3.230  0.00  0.00     0.209 C 
BRANCH  16  17
HETATM   17  C   UNK N   1      21.429  20.655   2.212  0.00  0.00     0.166 C 
BRANCH  17  18
HETATM   18  O   UNK N   1      22.154  21.665   2.844  0.00  0.00    -0.391 OA
HETATM   19  H   UNK N   1      22.746  21.460   3.584  0.00  0.00     0.210 HD
ENDBRANCH  17  18
BRANCH  17  20
HETATM   20  C   UNK N   1      20.599  21.260   1.092  0.00  0.00     0.198 C 
BRANCH  20  21
HETATM   21  O   UNK N   1      20.605  20.423  -0.024  0.00  0.00    -0.398 OA
HETATM   22  H   UNK N   1      20.021  19.701  -0.305  0.00  0.00     0.209 HD
ENDBRANCH  20  21
ENDBRANCH  17  20
ENDBRANCH  16  17
ENDBRANCH  15  16
ENDBRANCH  13  15
ENDBRANCH   7   9
ENDBRANCH   2   7
BRANCH   1  23
HETATM   23  N   UNK N   1      20.906  14.768   7.710  0.00  0.00    -0.383 N 
HETATM   24  H   UNK N   1      20.926  15.722   7.953  0.00  0.00     0.157 HD
HETATM   25  H   UNK N   1      20.388  14.196   8.322  0.00  0.00     0.157 HD
ENDBRANCH   1  23
BRANCH   6  26
HETATM   26  C   UNK N   1      23.141  12.852   7.991  0.00  0.00     0.058 A 
HETATM   27  C   UNK N   1      22.457  11.956   8.822  0.00  0.00     0.034 A 
HETATM   28  C   UNK N   1      22.995  11.616  10.074  0.00  0.00     0.044 A 
HETATM   29  C   UNK N   1      24.197  12.193  10.509  0.00  0.00     0.116 A 
HETATM   30  F   UNK N   1      24.713  11.880  11.720  0.00  0.00    -0.206 F 
HETATM   31  C   UNK N   1      24.868  13.099   9.696  0.00  0.00     0.044 A 
HETATM   32  C   UNK N   1      24.344  13.420   8.451  0.00  0.00     0.034 A 
ENDBRANCH   6  26
TORSDOF 10
ENDMDL
MODEL 5
REMARK VINA RESULT:      -7.0     11.761     13.882
REMARK  10 active torsions:
REMARK  status: ('A' for Active; 'I' for Inactive)
REMARK    1  A    between atoms: N_1  and  C_2 
REMARK    2  A    between atoms: C_3  and  C_15 
REMARK    3  A    between atoms: N_7  and  C_8 
REMARK    4  A    between atoms: C_15  and  C_17 
REMARK    5  A    between atoms: C_21  and  O_22 
REMARK    6  A    between atoms: O_22  and  C_23 
REMARK    7  A    between atoms: C_23  and  C_24 
REMARK    8  A    between atoms: C_24  and  O_25 
REMARK    9  A    between atoms: C_24  and  C_26 
REMARK   10  A    between atoms: C_26  and  O_27 
ROOT
HETATM    1  C   UNK N   1      27.227  24.224  -6.319  0.00  0.00     0.137 A 
HETATM    2  C   UNK N   1      26.927  23.040  -6.952  0.00  0.00     0.077 A 
HETATM    3  C   UNK N   1      25.660  22.700  -6.485  0.00  0.00     0.127 A 
HETATM    4  N   UNK N   1      25.224  23.700  -5.671  0.00  0.00    -0.302 N 
ATOM      5  HN  UNK N   1      24.324  23.731  -5.194  1.00  0.00     0.186 HD
HETATM    6  N   UNK N   1      26.173  24.629  -5.604  0.00  0.00    -0.240 N 
ENDROOT
BRANCH   2   7
HETATM    7  C   UNK N   1      27.721  22.347  -8.009  0.00  0.00     0.197 C 
HETATM    8  O   UNK N   1      27.627  22.716  -9.171  0.00  0.00    -0.286 OA
BRANCH   7   9
HETATM    9  C   UNK N   1      28.752  21.316  -7.637  0.00  0.00     0.018 A 
HETATM   10  C   UNK N   1      28.925  20.178  -8.438  0.00  0.00     0.015 A 
HETATM   11  C   UNK N   1      29.872  19.208  -8.152  0.00  0.00     0.004 A 
HETATM   12  C   UNK N   1      30.649  19.331  -7.012  0.00  0.00     0.037 A 
HETATM   13  C   UNK N   1      30.454  20.404  -6.141  0.00  0.00     0.069 A 
HETATM   14  C   UNK N   1      29.503  21.405  -6.453  0.00  0.00     0.052 A 
BRANCH  13  15
HETATM   15  O   UNK N   1      31.182  20.428  -5.006  0.00  0.00    -0.349 OA
BRANCH  15  16
HETATM   16  C   UNK N   1      30.731  20.962  -3.820  0.00  0.00     0.209 C 
BRANCH  16  17
HETATM   17  C   UNK N   1      31.697  21.960  -3.219  0.00  0.00     0.166 C 
BRANCH  17  18
HETATM   18  O   UNK N   1      32.316  21.357  -2.124  0.00  0.00    -0.391 OA
HETATM   19  H   UNK N   1      32.001  20.505  -1.785  0.00  0.00     0.210 HD
ENDBRANCH  17  18
BRANCH  17  20
HETATM   20  C   UNK N   1      30.910  23.170  -2.745  0.00  0.00     0.198 C 
BRANCH  20  21
HETATM   21  O   UNK N   1      30.415  22.956  -1.459  0.00  0.00    -0.398 OA
HETATM   22  H   UNK N   1      30.770  23.155  -0.578  0.00  0.00     0.209 HD
ENDBRANCH  20  21
ENDBRANCH  17  20
ENDBRANCH  16  17
ENDBRANCH  15  16
ENDBRANCH  13  15
ENDBRANCH   7   9
ENDBRANCH   2   7
BRANCH   1  23
HETATM   23  N   UNK N   1      28.456  24.922  -6.369  0.00  0.00    -0.383 N 
HETATM   24  H   UNK N   1      29.141  25.057  -5.674  0.00  0.00     0.157 HD
HETATM   25  H   UNK N   1      28.658  25.341  -7.236  0.00  0.00     0.157 HD
ENDBRANCH   1  23
BRANCH   6  26
HETATM   26  C   UNK N   1      26.040  25.926  -4.990  0.00  0.00     0.058 A 
HETATM   27  C   UNK N   1      25.698  27.062  -5.733  0.00  0.00     0.034 A 
HETATM   28  C   UNK N   1      25.675  28.321  -5.112  0.00  0.00     0.044 A 
HETATM   29  C   UNK N   1      26.023  28.450  -3.759  0.00  0.00     0.116 A 
HETATM   30  F   UNK N   1      26.016  29.663  -3.158  0.00  0.00    -0.206 F 
HETATM   31  C   UNK N   1      26.384  27.328  -3.024  0.00  0.00     0.044 A 
HETATM   32  C   UNK N   1      26.389  26.082  -3.635  0.00  0.00     0.034 A 
ENDBRANCH   6  26
TORSDOF 10
ENDMDL
MODEL 6
REMARK VINA RESULT:      -6.9     11.894     14.679
REMARK  10 active torsions:
REMARK  status: ('A' for Active; 'I' for Inactive)
REMARK    1  A    between atoms: N_1  and  C_2 
REMARK    2  A    between atoms: C_3  and  C_15 
REMARK    3  A    between atoms: N_7  and  C_8 
REMARK    4  A    between atoms: C_15  and  C_17 
REMARK    5  A    between atoms: C_21  and  O_22 
REMARK    6  A    between atoms: O_22  and  C_23 
REMARK    7  A    between atoms: C_23  and  C_24 
REMARK    8  A    between atoms: C_24  and  O_25 
REMARK    9  A    between atoms: C_24  and  C_26 
REMARK   10  A    between atoms: C_26  and  O_27 
ROOT
HETATM    1  C   UNK N   1      25.877  24.537  -6.995  0.00  0.00     0.137 A 
HETATM    2  C   UNK N   1      26.089  23.735  -8.091  0.00  0.00     0.077 A 
HETATM    3  C   UNK N   1      26.258  24.620  -9.152  0.00  0.00     0.127 A 
HETATM    4  N   UNK N   1      26.220  25.887  -8.658  0.00  0.00    -0.302 N 
ATOM      5  HN  UNK N   1      26.328  26.743  -9.202  1.00  0.00     0.186 HD
HETATM    6  N   UNK N   1      26.018  25.820  -7.346  0.00  0.00    -0.240 N 
ENDROOT
BRANCH   2   7
HETATM    7  C   UNK N   1      26.243  22.249  -8.115  0.00  0.00     0.197 C 
HETATM    8  O   UNK N   1      25.363  21.562  -8.615  0.00  0.00    -0.286 OA
BRANCH   7   9
HETATM    9  C   UNK N   1      27.533  21.608  -7.684  0.00  0.00     0.018 A 
HETATM   10  C   UNK N   1      27.890  20.347  -8.183  0.00  0.00     0.015 A 
HETATM   11  C   UNK N   1      29.075  19.719  -7.833  0.00  0.00     0.004 A 
HETATM   12  C   UNK N   1      29.923  20.327  -6.923  0.00  0.00     0.037 A 
HETATM   13  C   UNK N   1      29.571  21.543  -6.337  0.00  0.00     0.069 A 
HETATM   14  C   UNK N   1      28.371  22.192  -6.718  0.00  0.00     0.052 A 
BRANCH  13  15
HETATM   15  O   UNK N   1      30.396  22.047  -5.397  0.00  0.00    -0.349 OA
BRANCH  15  16
HETATM   16  C   UNK N   1      30.715  21.392  -4.229  0.00  0.00     0.209 C 
BRANCH  16  17
HETATM   17  C   UNK N   1      31.574  22.225  -3.302  0.00  0.00     0.166 C 
BRANCH  17  18
HETATM   18  O   UNK N   1      32.039  21.396  -2.282  0.00  0.00    -0.391 OA
HETATM   19  H   UNK N   1      31.428  20.826  -1.790  0.00  0.00     0.210 HD
ENDBRANCH  17  18
BRANCH  17  20
HETATM   20  C   UNK N   1      30.713  23.324  -2.701  0.00  0.00     0.198 C 
BRANCH  20  21
HETATM   21  O   UNK N   1      30.391  23.021  -1.379  0.00  0.00    -0.398 OA
HETATM   22  H   UNK N   1      29.571  23.106  -0.867  0.00  0.00     0.209 HD
ENDBRANCH  20  21
ENDBRANCH  17  20
ENDBRANCH  16  17
ENDBRANCH  15  16
ENDBRANCH  13  15
ENDBRANCH   7   9
ENDBRANCH   2   7
BRANCH   1  23
HETATM   23  N   UNK N   1      25.536  24.115  -5.690  0.00  0.00    -0.383 N 
HETATM   24  H   UNK N   1      25.087  24.600  -4.959  0.00  0.00     0.157 HD
HETATM   25  H   UNK N   1      25.788  23.188  -5.477  0.00  0.00     0.157 HD
ENDBRANCH   1  23
BRANCH   6  26
HETATM   26  C   UNK N   1      26.085  26.926  -6.425  0.00  0.00     0.058 A 
HETATM   27  C   UNK N   1      27.148  27.838  -6.445  0.00  0.00     0.034 A 
HETATM   28  C   UNK N   1      27.222  28.844  -5.467  0.00  0.00     0.044 A 
HETATM   29  C   UNK N   1      26.256  28.918  -4.453  0.00  0.00     0.116 A 
HETATM   30  F   UNK N   1      26.330  29.876  -3.500  0.00  0.00    -0.206 F 
HETATM   31  C   UNK N   1      25.212  28.001  -4.417  0.00  0.00     0.044 A 
HETATM   32  C   UNK N   1      25.130  27.019  -5.395  0.00  0.00     0.034 A 
ENDBRANCH   6  26
TORSDOF 10
ENDMDL
MODEL 7
REMARK VINA RESULT:      -6.7      3.718      5.904
REMARK  10 active torsions:
REMARK  status: ('A' for Active; 'I' for Inactive)
REMARK    1  A    between atoms: N_1  and  C_2 
REMARK    2  A    between atoms: C_3  and  C_15 
REMARK    3  A    between atoms: N_7  and  C_8 
REMARK    4  A    between atoms: C_15  and  C_17 
REMARK    5  A    between atoms: C_21  and  O_22 
REMARK    6  A    between atoms: O_22  and  C_23 
REMARK    7  A    between atoms: C_23  and  C_24 
REMARK    8  A    between atoms: C_24  and  O_25 
REMARK    9  A    between atoms: C_24  and  C_26 
REMARK   10  A    between atoms: C_26  and  O_27 
ROOT
HETATM    1  C   UNK N   1      32.559  16.571   8.259  0.00  0.00     0.137 A 
HETATM    2  C   UNK N   1      33.884  16.935   8.201  0.00  0.00     0.077 A 
HETATM    3  C   UNK N   1      34.050  17.470   6.927  0.00  0.00     0.127 A 
HETATM    4  N   UNK N   1      32.838  17.480   6.309  0.00  0.00    -0.302 N 
ATOM      5  HN  UNK N   1      32.650  17.827   5.369  1.00  0.00     0.186 HD
HETATM    6  N   UNK N   1      31.939  16.959   7.139  0.00  0.00    -0.240 N 
ENDROOT
BRANCH   2   7
HETATM    7  C   UNK N   1      34.888  16.894   9.307  0.00  0.00     0.197 C 
HETATM    8  O   UNK N   1      35.336  17.942   9.751  0.00  0.00    -0.286 OA
BRANCH   7   9
HETATM    9  C   UNK N   1      35.224  15.594   9.984  0.00  0.00     0.018 A 
HETATM   10  C   UNK N   1      35.777  14.541   9.242  0.00  0.00     0.015 A 
HETATM   11  C   UNK N   1      36.123  13.329   9.820  0.00  0.00     0.004 A 
HETATM   12  C   UNK N   1      35.875  13.123  11.166  0.00  0.00     0.037 A 
HETATM   13  C   UNK N   1      35.250  14.112  11.926  0.00  0.00     0.069 A 
HETATM   14  C   UNK N   1      34.923  15.357  11.336  0.00  0.00     0.052 A 
BRANCH  13  15
HETATM   15  O   UNK N   1      34.959  13.823  13.211  0.00  0.00    -0.349 OA
BRANCH  15  16
HETATM   16  C   UNK N   1      35.027  12.556  13.744  0.00  0.00     0.209 C 
BRANCH  16  17
HETATM   17  C   UNK N   1      35.216  12.559  15.246  0.00  0.00     0.166 C 
BRANCH  17  18
HETATM   18  O   UNK N   1      34.053  13.063  15.828  0.00  0.00    -0.391 OA
HETATM   19  H   UNK N   1      33.424  12.471  16.269  0.00  0.00     0.210 HD
ENDBRANCH  17  18
BRANCH  17  20
HETATM   20  C   UNK N   1      36.383  13.471  15.586  0.00  0.00     0.198 C 
BRANCH  20  21
HETATM   21  O   UNK N   1      37.461  13.217  14.739  0.00  0.00    -0.398 OA
HETATM   22  H   UNK N   1      37.665  13.501  13.834  0.00  0.00     0.209 HD
ENDBRANCH  20  21
ENDBRANCH  17  20
ENDBRANCH  16  17
ENDBRANCH  15  16
ENDBRANCH  13  15
ENDBRANCH   7   9
ENDBRANCH   2   7
BRANCH   1  23
HETATM   23  N   UNK N   1      31.918  15.871   9.307  0.00  0.00    -0.383 N 
HETATM   24  H   UNK N   1      31.068  16.054   9.769  0.00  0.00     0.157 HD
HETATM   25  H   UNK N   1      32.400  15.076   9.628  0.00  0.00     0.157 HD
ENDBRANCH   1  23
BRANCH   6  26
HETATM   26  C   UNK N   1      30.513  16.945   6.938  0.00  0.00     0.058 A 
HETATM   27  C   UNK N   1      29.653  17.746   7.701  0.00  0.00     0.034 A 
HETATM   28  C   UNK N   1      28.263  17.629   7.537  0.00  0.00     0.044 A 
HETATM   29  C   UNK N   1      27.732  16.694   6.637  0.00  0.00     0.116 A 
HETATM   30  F   UNK N   1      26.393  16.568   6.484  0.00  0.00    -0.206 F 
HETATM   31  C   UNK N   1      28.582  15.883   5.893  0.00  0.00     0.044 A 
HETATM   32  C   UNK N   1      29.955  16.012   6.043  0.00  0.00     0.034 A 
ENDBRANCH   6  26
TORSDOF 10
ENDMDL
MODEL 8
REMARK VINA RESULT:      -6.7      4.801     10.290
REMARK  10 active torsions:
REMARK  status: ('A' for Active; 'I' for Inactive)
REMARK    1  A    between atoms: N_1  and  C_2 
REMARK    2  A    between atoms: C_3  and  C_15 
REMARK    3  A    between atoms: N_7  and  C_8 
REMARK    4  A    between atoms: C_15  and  C_17 
REMARK    5  A    between atoms: C_21  and  O_22 
REMARK    6  A    between atoms: O_22  and  C_23 
REMARK    7  A    between atoms: C_23  and  C_24 
REMARK    8  A    between atoms: C_24  and  O_25 
REMARK    9  A    between atoms: C_24  and  C_26 
REMARK   10  A    between atoms: C_26  and  O_27 
ROOT
HETATM    1  C   UNK N   1      28.557  16.693   5.852  0.00  0.00     0.137 A 
HETATM    2  C   UNK N   1      27.421  17.466   5.914  0.00  0.00     0.077 A 
HETATM    3  C   UNK N   1      27.737  18.491   6.801  0.00  0.00     0.127 A 
HETATM    4  N   UNK N   1      29.039  18.348   7.169  0.00  0.00    -0.302 N 
ATOM      5  HN  UNK N   1      29.551  18.961   7.803  1.00  0.00     0.186 HD
HETATM    6  N   UNK N   1      29.530  17.271   6.564  0.00  0.00    -0.240 N 
ENDROOT
BRANCH   2   7
HETATM    7  C   UNK N   1      26.173  17.316   5.106  0.00  0.00     0.197 C 
HETATM    8  O   UNK N   1      25.513  16.291   5.204  0.00  0.00    -0.286 OA
BRANCH   7   9
HETATM    9  C   UNK N   1      25.639  18.473   4.307  0.00  0.00     0.018 A 
HETATM   10  C   UNK N   1      26.524  19.402   3.742  0.00  0.00     0.015 A 
HETATM   11  C   UNK N   1      26.086  20.475   2.981  0.00  0.00     0.004 A 
HETATM   12  C   UNK N   1      24.728  20.674   2.806  0.00  0.00     0.037 A 
HETATM   13  C   UNK N   1      23.807  19.824   3.419  0.00  0.00     0.069 A 
HETATM   14  C   UNK N   1      24.261  18.714   4.172  0.00  0.00     0.052 A 
BRANCH  13  15
HETATM   15  O   UNK N   1      22.497  20.115   3.280  0.00  0.00    -0.349 OA
BRANCH  15  16
HETATM   16  C   UNK N   1      21.509  19.162   3.180  0.00  0.00     0.209 C 
BRANCH  16  17
HETATM   17  C   UNK N   1      20.373  19.586   2.273  0.00  0.00     0.166 C 
BRANCH  17  18
HETATM   18  O   UNK N   1      20.233  18.621   1.276  0.00  0.00    -0.391 OA
HETATM   19  H   UNK N   1      20.156  18.881   0.345  0.00  0.00     0.210 HD
ENDBRANCH  17  18
BRANCH  17  20
HETATM   20  C   UNK N   1      20.732  20.918   1.637  0.00  0.00     0.198 C 
BRANCH  20  21
HETATM   21  O   UNK N   1      21.422  20.715   0.442  0.00  0.00    -0.398 OA
HETATM   22  H   UNK N   1      21.827  21.326  -0.193  0.00  0.00     0.209 HD
ENDBRANCH  20  21
ENDBRANCH  17  20
ENDBRANCH  16  17
ENDBRANCH  15  16
ENDBRANCH  13  15
ENDBRANCH   7   9
ENDBRANCH   2   7
BRANCH   1  23
HETATM   23  N   UNK N   1      28.707  15.462   5.174  0.00  0.00    -0.383 N 
HETATM   24  H   UNK N   1      28.160  14.644   5.210  0.00  0.00     0.157 HD
HETATM   25  H   UNK N   1      29.484  15.413   4.572  0.00  0.00     0.157 HD
ENDBRANCH   1  23
BRANCH   6  26
HETATM   26  C   UNK N   1      30.914  16.869   6.550  0.00  0.00     0.058 A 
HETATM   27  C   UNK N   1      31.477  16.130   7.598  0.00  0.00     0.034 A 
HETATM   28  C   UNK N   1      32.852  15.843   7.588  0.00  0.00     0.044 A 
HETATM   29  C   UNK N   1      33.668  16.320   6.552  0.00  0.00     0.116 A 
HETATM   30  F   UNK N   1      34.996  16.058   6.544  0.00  0.00    -0.206 F 
HETATM   31  C   UNK N   1      33.116  17.072   5.522  0.00  0.00     0.044 A 
HETATM   32  C   UNK N   1      31.754  17.339   5.523  0.00  0.00     0.034 A 
ENDBRANCH   6  26
TORSDOF 10
ENDMDL
MODEL 9
REMARK VINA RESULT:      -6.6      8.910     12.178
REMARK  10 active torsions:
REMARK  status: ('A' for Active; 'I' for Inactive)
REMARK    1  A    between atoms: N_1  and  C_2 
REMARK    2  A    between atoms: C_3  and  C_15 
REMARK    3  A    between atoms: N_7  and  C_8 
REMARK    4  A    between atoms: C_15  and  C_17 
REMARK    5  A    between atoms: C_21  and  O_22 
REMARK    6  A    between atoms: O_22  and  C_23 
REMARK    7  A    between atoms: C_23  and  C_24 
REMARK    8  A    between atoms: C_24  and  O_25 
REMARK    9  A    between atoms: C_24  and  C_26 
REMARK   10  A    between atoms: C_26  and  O_27 
ROOT
HETATM    1  C   UNK N   1      22.934  13.843   6.943  0.00  0.00     0.137 A 
HETATM    2  C   UNK N   1      22.363  14.197   5.743  0.00  0.00     0.077 A 
HETATM    3  C   UNK N   1      21.206  13.427   5.659  0.00  0.00     0.127 A 
HETATM    4  N   UNK N   1      21.086  12.714   6.812  0.00  0.00    -0.302 N 
ATOM      5  HN  UNK N   1      20.328  12.071   7.040  1.00  0.00     0.186 HD
HETATM    6  N   UNK N   1      22.125  12.999   7.592  0.00  0.00    -0.240 N 
ENDROOT
BRANCH   2   7
HETATM    7  C   UNK N   1      22.809  15.270   4.804  0.00  0.00     0.197 C 
HETATM    8  O   UNK N   1      23.855  15.865   5.026  0.00  0.00    -0.286 OA
BRANCH   7   9
HETATM    9  C   UNK N   1      22.077  15.507   3.513  0.00  0.00     0.018 A 
HETATM   10  C   UNK N   1      22.285  14.651   2.422  0.00  0.00     0.015 A 
HETATM   11  C   UNK N   1      21.623  14.812   1.216  0.00  0.00     0.004 A 
HETATM   12  C   UNK N   1      20.758  15.881   1.053  0.00  0.00     0.037 A 
HETATM   13  C   UNK N   1      20.583  16.807   2.082  0.00  0.00     0.069 A 
HETATM   14  C   UNK N   1      21.243  16.622   3.321  0.00  0.00     0.052 A 
BRANCH  13  15
HETATM   15  O   UNK N   1      19.793  17.872   1.837  0.00  0.00    -0.349 OA
BRANCH  15  16
HETATM   16  C   UNK N   1      19.782  19.010   2.611  0.00  0.00     0.209 C 
BRANCH  16  17
HETATM   17  C   UNK N   1      20.476  20.181   1.948  0.00  0.00     0.166 C 
BRANCH  17  18
HETATM   18  O   UNK N   1      20.636  19.879   0.596  0.00  0.00    -0.391 OA
HETATM   19  H   UNK N   1      20.820  18.971   0.311  0.00  0.00     0.210 HD
ENDBRANCH  17  18
BRANCH  17  20
HETATM   20  C   UNK N   1      21.843  20.360   2.587  0.00  0.00     0.198 C 
BRANCH  20  21
HETATM   21  O   UNK N   1      22.140  21.715   2.729  0.00  0.00    -0.398 OA
HETATM   22  H   UNK N   1      22.972  22.211   2.691  0.00  0.00     0.209 HD
ENDBRANCH  20  21
ENDBRANCH  17  20
ENDBRANCH  16  17
ENDBRANCH  15  16
ENDBRANCH  13  15
ENDBRANCH   7   9
ENDBRANCH   2   7
BRANCH   1  23
HETATM   23  N   UNK N   1      24.190  14.261   7.439  0.00  0.00    -0.383 N 
HETATM   24  H   UNK N   1      24.851  14.884   7.058  0.00  0.00     0.157 HD
HETATM   25  H   UNK N   1      24.446  13.865   8.303  0.00  0.00     0.157 HD
ENDBRANCH   1  23
BRANCH   6  26
HETATM   26  C   UNK N   1      22.286  12.590   8.964  0.00  0.00     0.058 A 
HETATM   27  C   UNK N   1      21.251  12.721   9.899  0.00  0.00     0.034 A 
HETATM   28  C   UNK N   1      21.483  12.400  11.246  0.00  0.00     0.044 A 
HETATM   29  C   UNK N   1      22.754  11.979  11.665  0.00  0.00     0.116 A 
HETATM   30  F   UNK N   1      22.988  11.682  12.964  0.00  0.00    -0.206 F 
HETATM   31  C   UNK N   1      23.789  11.869  10.744  0.00  0.00     0.044 A 
HETATM   32  C   UNK N   1      23.553  12.169   9.409  0.00  0.00     0.034 A 
ENDBRANCH   6  26
TORSDOF 10
ENDMDL
