MODEL 1
REMARK VINA RESULT:      -8.5      0.000      0.000
REMARK  5 active torsions:
REMARK  status: ('A' for Active; 'I' for Inactive)
REMARK    1  A    between atoms: C_9  and  S_17 
REMARK    2  A    between atoms: N_11  and  C_21 
REMARK    3  A    between atoms: C_13  and  N_16 
REMARK    4  A    between atoms: N_16  and  S_17 
REMARK    5  A    between atoms: C_21  and  C_30 
ROOT
HETATM    1  N   UNK N   1      29.812  16.798   7.188  0.00  0.00    -0.345 N 
HETATM    2  C   UNK N   1      31.047  16.540   7.629  0.00  0.00     0.243 C 
HETATM    3  C   UNK N   1      31.538  17.514   8.627  0.00  0.00     0.186 C 
HETATM    4  C   UNK N   1      30.274  18.358   8.881  0.00  0.00     0.055 C 
HETATM    5  C   UNK N   1      29.220  17.925   7.842  0.00  0.00     0.129 C 
HETATM    6  O   UNK N   1      31.743  15.645   7.160  0.00  0.00    -0.271 OA
ENDROOT
BRANCH   3   7
HETATM    7  N   UNK N   1      32.553  18.315   7.956  0.00  0.00    -0.301 N 
HETATM    8  H   UNK N   1      32.317  19.085   7.331  0.00  0.00     0.173 HD
BRANCH   7   9
HETATM    9  S   UNK N   1      34.230  17.855   8.306  0.00  0.00     0.266 S 
HETATM   10  O   UNK N   1      34.991  19.185   8.423  0.00  0.00    -0.200 OA
HETATM   11  O   UNK N   1      34.707  17.447   6.909  0.00  0.00    -0.200 OA
BRANCH   9  12
HETATM   12  C   UNK N   1      34.924  16.596   9.374  0.00  0.00     0.123 A 
HETATM   13  C   UNK N   1      35.508  16.743  10.646  0.00  0.00     0.063 A 
HETATM   14  C   UNK N   1      35.703  15.475  11.273  0.00  0.00     0.051 A 
HETATM   15  C   UNK N   1      35.265  14.389  10.526  0.00  0.00     0.033 A 
HETATM   16  N   UNK N   1      36.221  15.286  12.515  0.00  0.00    -0.365 N 
HETATM   17  C   UNK N   1      35.330  13.090  11.005  0.00  0.00     0.022 A 
HETATM   18  S   UNK N   1      34.666  14.969   9.112  0.00  0.00    -0.074 SA
HETATM   19  C   UNK N   1      35.864  12.905  12.287  0.00  0.00     0.018 A 
HETATM   20  C   UNK N   1      36.309  14.020  13.030  0.00  0.00     0.088 A 
ATOM     21  HN  UNK N   1      36.542  16.084  13.062  1.00  0.00     0.165 HD
ENDBRANCH   9  12
ENDBRANCH   7   9
ENDBRANCH   3   7
BRANCH   1  22
HETATM   22  C   UNK N   1      29.191  16.147   6.056  0.00  0.00     0.182 C 
BRANCH  22  23
HETATM   23  C   UNK N   1      28.252  17.112   5.395  0.00  0.00     0.028 A 
HETATM   24  C   UNK N   1      28.628  18.249   4.682  0.00  0.00     0.040 A 
HETATM   25  C   UNK N   1      27.435  18.869   4.379  0.00  0.00    -0.005 A 
HETATM   26  C   UNK N   1      26.428  18.120   4.908  0.00  0.00     0.058 A 
HETATM   27  C   UNK N   1      27.175  20.050   3.693  0.00  0.00     0.030 A 
HETATM   28  C   UNK N   1      25.100  18.513   4.794  0.00  0.00     0.117 A 
HETATM   29  N   UNK N   1      26.905  17.037   5.531  0.00  0.00    -0.356 N 
HETATM   30  N   UNK N   1      24.829  19.674   4.126  0.00  0.00    -0.373 N 
HETATM   31  C   UNK N   1      25.827  20.440   3.577  0.00  0.00     0.088 A 
ATOM     32  HN  UNK N   1      23.860  19.979   4.035  1.00  0.00     0.164 HD
HETATM   33  H   UNK N   1      26.390  16.336   5.991  0.00  0.00     0.166 HD
ENDBRANCH  22  23
ENDBRANCH   1  22
TORSDOF 5
ENDMDL
MODEL 2
REMARK VINA RESULT:      -8.3      2.422      3.297
REMARK  5 active torsions:
REMARK  status: ('A' for Active; 'I' for Inactive)
REMARK    1  A    between atoms: C_9  and  S_17 
REMARK    2  A    between atoms: N_11  and  C_21 
REMARK    3  A    between atoms: C_13  and  N_16 
REMARK    4  A    between atoms: N_16  and  S_17 
REMARK    5  A    between atoms: C_21  and  C_30 
ROOT
HETATM    1  N   UNK N   1      32.362  16.378   7.447  0.00  0.00    -0.345 N 
HETATM    2  C   UNK N   1      32.861  16.007   8.630  0.00  0.00     0.243 C 
HETATM    3  C   UNK N   1      34.159  16.635   8.952  0.00  0.00     0.186 C 
HETATM    4  C   UNK N   1      34.305  17.648   7.799  0.00  0.00     0.055 C 
HETATM    5  C   UNK N   1      33.171  17.361   6.794  0.00  0.00     0.129 C 
HETATM    6  O   UNK N   1      32.342  15.139   9.323  0.00  0.00    -0.271 OA
ENDROOT
BRANCH   3   7
HETATM    7  N   UNK N   1      35.165  15.588   8.833  0.00  0.00    -0.301 N 
HETATM    8  H   UNK N   1      35.340  15.094   7.958  0.00  0.00     0.173 HD
BRANCH   7   9
HETATM    9  S   UNK N   1      36.066  15.236  10.320  0.00  0.00     0.266 S 
HETATM   10  O   UNK N   1      36.474  16.612  10.873  0.00  0.00    -0.200 OA
HETATM   11  O   UNK N   1      37.420  14.820   9.737  0.00  0.00    -0.200 OA
BRANCH   9  12
HETATM   12  C   UNK N   1      35.787  14.049  11.631  0.00  0.00     0.123 A 
HETATM   13  C   UNK N   1      35.858  14.240  13.024  0.00  0.00     0.063 A 
HETATM   14  C   UNK N   1      35.318  13.120  13.726  0.00  0.00     0.051 A 
HETATM   15  C   UNK N   1      34.827  12.110  12.909  0.00  0.00     0.033 A 
HETATM   16  N   UNK N   1      35.219  13.015  15.077  0.00  0.00    -0.365 N 
HETATM   17  C   UNK N   1      34.222  10.975  13.424  0.00  0.00     0.022 A 
HETATM   18  S   UNK N   1      35.067  12.571  11.352  0.00  0.00    -0.074 SA
HETATM   19  C   UNK N   1      34.123  10.876  14.818  0.00  0.00     0.018 A 
HETATM   20  C   UNK N   1      34.632  11.910  15.632  0.00  0.00     0.088 A 
ATOM     21  HN  UNK N   1      35.580  13.758  15.675  1.00  0.00     0.165 HD
ENDBRANCH   9  12
ENDBRANCH   7   9
ENDBRANCH   3   7
BRANCH   1  22
HETATM   22  C   UNK N   1      31.237  15.746   6.795  0.00  0.00     0.182 C 
BRANCH  22  23
HETATM   23  C   UNK N   1      30.142  16.757   6.625  0.00  0.00     0.028 A 
HETATM   24  C   UNK N   1      29.701  17.277   5.409  0.00  0.00     0.040 A 
HETATM   25  C   UNK N   1      28.784  18.243   5.767  0.00  0.00    -0.005 A 
HETATM   26  C   UNK N   1      28.720  18.276   7.127  0.00  0.00     0.058 A 
HETATM   27  C   UNK N   1      28.024  19.106   4.986  0.00  0.00     0.030 A 
HETATM   28  C   UNK N   1      27.900  19.181   7.789  0.00  0.00     0.117 A 
HETATM   29  N   UNK N   1      29.540  17.371   7.673  0.00  0.00    -0.356 N 
HETATM   30  N   UNK N   1      27.150  20.039   7.034  0.00  0.00    -0.373 N 
HETATM   31  C   UNK N   1      27.191  20.018   5.663  0.00  0.00     0.088 A 
ATOM     32  HN  UNK N   1      26.543  20.712   7.503  1.00  0.00     0.164 HD
HETATM   33  H   UNK N   1      29.678  17.190   8.631  0.00  0.00     0.166 HD
ENDBRANCH  22  23
ENDBRANCH   1  22
TORSDOF 5
ENDMDL
MODEL 3
REMARK VINA RESULT:      -8.2      2.950      4.309
REMARK  5 active torsions:
REMARK  status: ('A' for Active; 'I' for Inactive)
REMARK    1  A    between atoms: C_9  and  S_17 
REMARK    2  A    between atoms: N_11  and  C_21 
REMARK    3  A    between atoms: C_13  and  N_16 
REMARK    4  A    between atoms: N_16  and  S_17 
REMARK    5  A    between atoms: C_21  and  C_30 
ROOT
HETATM    1  N   UNK N   1      33.245  15.036   6.310  0.00  0.00    -0.345 N 
HETATM    2  C   UNK N   1      34.471  15.450   6.646  0.00  0.00     0.243 C 
HETATM    3  C   UNK N   1      35.083  14.669   7.741  0.00  0.00     0.186 C 
HETATM    4  C   UNK N   1      34.059  13.530   7.916  0.00  0.00     0.055 C 
HETATM    5  C   UNK N   1      32.836  13.878   7.045  0.00  0.00     0.129 C 
HETATM    6  O   UNK N   1      34.983  16.455   6.165  0.00  0.00    -0.271 OA
ENDROOT
BRANCH   3   7
HETATM    7  N   UNK N   1      35.082  15.533   8.914  0.00  0.00    -0.301 N 
HETATM    8  H   UNK N   1      34.543  16.398   8.956  0.00  0.00     0.173 HD
BRANCH   7   9
HETATM    9  S   UNK N   1      36.086  14.972  10.264  0.00  0.00     0.266 S 
HETATM   10  O   UNK N   1      36.816  16.228  10.766  0.00  0.00    -0.200 OA
HETATM   11  O   UNK N   1      37.249  14.329   9.501  0.00  0.00    -0.200 OA
BRANCH   9  12
HETATM   12  C   UNK N   1      35.762  13.816  11.592  0.00  0.00     0.123 A 
HETATM   13  C   UNK N   1      35.800  14.036  12.982  0.00  0.00     0.063 A 
HETATM   14  C   UNK N   1      35.230  12.937  13.694  0.00  0.00     0.051 A 
HETATM   15  C   UNK N   1      34.749  11.915  12.886  0.00  0.00     0.033 A 
HETATM   16  N   UNK N   1      35.097  12.862  15.044  0.00  0.00    -0.365 N 
HETATM   17  C   UNK N   1      34.118  10.797  13.410  0.00  0.00     0.022 A 
HETATM   18  S   UNK N   1      35.032  12.340  11.326  0.00  0.00    -0.074 SA
HETATM   19  C   UNK N   1      33.984  10.729  14.803  0.00  0.00     0.018 A 
HETATM   20  C   UNK N   1      34.484  11.775  15.608  0.00  0.00     0.088 A 
ATOM     21  HN  UNK N   1      35.451  13.614  15.635  1.00  0.00     0.165 HD
ENDBRANCH   9  12
ENDBRANCH   7   9
ENDBRANCH   3   7
BRANCH   1  22
HETATM   22  C   UNK N   1      32.342  15.759   5.442  0.00  0.00     0.182 C 
BRANCH  22  23
HETATM   23  C   UNK N   1      31.316  16.460   6.282  0.00  0.00     0.028 A 
HETATM   24  C   UNK N   1      31.588  17.287   7.371  0.00  0.00     0.040 A 
HETATM   25  C   UNK N   1      30.345  17.590   7.884  0.00  0.00    -0.005 A 
HETATM   26  C   UNK N   1      29.411  16.952   7.126  0.00  0.00     0.058 A 
HETATM   27  C   UNK N   1      29.981  18.365   8.980  0.00  0.00     0.030 A 
HETATM   28  C   UNK N   1      28.057  17.041   7.423  0.00  0.00     0.117 A 
HETATM   29  N   UNK N   1      29.984  16.257   6.136  0.00  0.00    -0.356 N 
HETATM   30  N   UNK N   1      27.684  17.796   8.499  0.00  0.00    -0.373 N 
HETATM   31  C   UNK N   1      28.606  18.455   9.272  0.00  0.00     0.088 A 
ATOM     32  HN  UNK N   1      26.694  17.871   8.733  1.00  0.00     0.164 HD
HETATM   33  H   UNK N   1      29.534  15.715   5.448  0.00  0.00     0.166 HD
ENDBRANCH  22  23
ENDBRANCH   1  22
TORSDOF 5
ENDMDL
MODEL 4
REMARK VINA RESULT:      -8.1      1.896      2.699
REMARK  5 active torsions:
REMARK  status: ('A' for Active; 'I' for Inactive)
REMARK    1  A    between atoms: C_9  and  S_17 
REMARK    2  A    between atoms: N_11  and  C_21 
REMARK    3  A    between atoms: C_13  and  N_16 
REMARK    4  A    between atoms: N_16  and  S_17 
REMARK    5  A    between atoms: C_21  and  C_30 
ROOT
HETATM    1  N   UNK N   1      29.594  17.584   7.051  0.00  0.00    -0.345 N 
HETATM    2  C   UNK N   1      30.812  17.054   7.197  0.00  0.00     0.243 C 
HETATM    3  C   UNK N   1      31.497  17.471   8.439  0.00  0.00     0.186 C 
HETATM    4  C   UNK N   1      30.376  18.240   9.165  0.00  0.00     0.055 C 
HETATM    5  C   UNK N   1      29.203  18.379   8.174  0.00  0.00     0.129 C 
HETATM    6  O   UNK N   1      31.349  16.381   6.324  0.00  0.00    -0.271 OA
ENDROOT
BRANCH   3   7
HETATM    7  N   UNK N   1      32.558  18.384   8.038  0.00  0.00    -0.301 N 
HETATM    8  H   UNK N   1      32.367  19.284   7.597  0.00  0.00     0.173 HD
BRANCH   7   9
HETATM    9  S   UNK N   1      34.205  17.820   8.375  0.00  0.00     0.266 S 
HETATM   10  O   UNK N   1      35.062  19.096   8.415  0.00  0.00    -0.200 OA
HETATM   11  O   UNK N   1      34.619  17.318   6.988  0.00  0.00    -0.200 OA
BRANCH   9  12
HETATM   12  C   UNK N   1      34.833  16.563   9.484  0.00  0.00     0.123 A 
HETATM   13  C   UNK N   1      35.532  16.724  10.695  0.00  0.00     0.063 A 
HETATM   14  C   UNK N   1      35.629  15.489  11.403  0.00  0.00     0.051 A 
HETATM   15  C   UNK N   1      35.009  14.415  10.776  0.00  0.00     0.033 A 
HETATM   16  N   UNK N   1      36.220  15.324  12.615  0.00  0.00    -0.365 N 
HETATM   17  C   UNK N   1      34.962  13.154  11.349  0.00  0.00     0.022 A 
HETATM   18  S   UNK N   1      34.369  14.965   9.369  0.00  0.00    -0.074 SA
HETATM   19  C   UNK N   1      35.574  12.994  12.600  0.00  0.00     0.018 A 
HETATM   20  C   UNK N   1      36.203  14.095  13.219  0.00  0.00     0.088 A 
ATOM     21  HN  UNK N   1      36.675  16.113  13.074  1.00  0.00     0.165 HD
ENDBRANCH   9  12
ENDBRANCH   7   9
ENDBRANCH   3   7
BRANCH   1  22
HETATM   22  C   UNK N   1      28.813  17.527   5.835  0.00  0.00     0.182 C 
BRANCH  22  23
HETATM   23  C   UNK N   1      27.769  16.459   5.976  0.00  0.00     0.028 A 
HETATM   24  C   UNK N   1      27.922  15.123   5.609  0.00  0.00     0.040 A 
HETATM   25  C   UNK N   1      26.675  14.572   5.809  0.00  0.00    -0.005 A 
HETATM   26  C   UNK N   1      25.849  15.557   6.258  0.00  0.00     0.058 A 
HETATM   27  C   UNK N   1      26.212  13.277   5.604  0.00  0.00     0.030 A 
HETATM   28  C   UNK N   1      24.507  15.311   6.519  0.00  0.00     0.117 A 
HETATM   29  N   UNK N   1      26.499  16.721   6.372  0.00  0.00    -0.356 N 
HETATM   30  N   UNK N   1      24.036  14.044   6.318  0.00  0.00    -0.373 N 
HETATM   31  C   UNK N   1      24.851  13.033   5.875  0.00  0.00     0.088 A 
ATOM     32  HN  UNK N   1      23.052  13.845   6.502  1.00  0.00     0.164 HD
HETATM   33  H   UNK N   1      26.134  17.583   6.677  0.00  0.00     0.166 HD
ENDBRANCH  22  23
ENDBRANCH   1  22
TORSDOF 5
ENDMDL
MODEL 5
REMARK VINA RESULT:      -8.1      2.434     10.119
REMARK  5 active torsions:
REMARK  status: ('A' for Active; 'I' for Inactive)
REMARK    1  A    between atoms: C_9  and  S_17 
REMARK    2  A    between atoms: N_11  and  C_21 
REMARK    3  A    between atoms: C_13  and  N_16 
REMARK    4  A    between atoms: N_16  and  S_17 
REMARK    5  A    between atoms: C_21  and  C_30 
ROOT
HETATM    1  N   UNK N   1      35.362  13.822  10.644  0.00  0.00    -0.345 N 
HETATM    2  C   UNK N   1      35.263  15.155  10.689  0.00  0.00     0.243 C 
HETATM    3  C   UNK N   1      34.286  15.712   9.730  0.00  0.00     0.186 C 
HETATM    4  C   UNK N   1      33.628  14.430   9.181  0.00  0.00     0.055 C 
HETATM    5  C   UNK N   1      34.438  13.235   9.721  0.00  0.00     0.129 C 
HETATM    6  O   UNK N   1      36.001  15.848  11.381  0.00  0.00    -0.271 OA
ENDROOT
BRANCH   3   7
HETATM    7  N   UNK N   1      35.061  16.368   8.685  0.00  0.00    -0.301 N 
HETATM    8  H   UNK N   1      36.076  16.460   8.734  0.00  0.00     0.173 HD
BRANCH   7   9
HETATM    9  S   UNK N   1      34.113  16.993   7.324  0.00  0.00     0.266 S 
HETATM   10  O   UNK N   1      34.826  16.467   6.067  0.00  0.00    -0.200 OA
HETATM   11  O   UNK N   1      34.614  18.440   7.274  0.00  0.00    -0.200 OA
BRANCH   9  12
HETATM   12  C   UNK N   1      32.347  17.148   7.070  0.00  0.00     0.123 A 
HETATM   13  C   UNK N   1      31.570  16.703   5.984  0.00  0.00     0.063 A 
HETATM   14  C   UNK N   1      30.176  16.788   6.279  0.00  0.00     0.051 A 
HETATM   15  C   UNK N   1      29.884  17.261   7.552  0.00  0.00     0.033 A 
HETATM   16  N   UNK N   1      29.173  16.408   5.444  0.00  0.00    -0.365 N 
HETATM   17  C   UNK N   1      28.584  17.358   8.022  0.00  0.00     0.022 A 
HETATM   18  S   UNK N   1      31.309  17.585   8.299  0.00  0.00    -0.074 SA
HETATM   19  C   UNK N   1      27.556  16.963   7.155  0.00  0.00     0.018 A 
HETATM   20  C   UNK N   1      27.872  16.491   5.862  0.00  0.00     0.088 A 
ATOM     21  HN  UNK N   1      29.390  16.063   4.509  1.00  0.00     0.165 HD
ENDBRANCH   9  12
ENDBRANCH   7   9
ENDBRANCH   3   7
BRANCH   1  22
HETATM   22  C   UNK N   1      36.393  13.051  11.301  0.00  0.00     0.182 C 
BRANCH  22  23
HETATM   23  C   UNK N   1      36.188  13.128  12.785  0.00  0.00     0.028 A 
HETATM   24  C   UNK N   1      35.142  12.533  13.489  0.00  0.00     0.040 A 
HETATM   25  C   UNK N   1      35.308  12.981  14.783  0.00  0.00    -0.005 A 
HETATM   26  C   UNK N   1      36.393  13.804  14.805  0.00  0.00     0.058 A 
HETATM   27  C   UNK N   1      34.562  12.735  15.930  0.00  0.00     0.030 A 
HETATM   28  C   UNK N   1      36.791  14.440  15.974  0.00  0.00     0.117 A 
HETATM   29  N   UNK N   1      36.949  13.905  13.593  0.00  0.00    -0.356 N 
HETATM   30  N   UNK N   1      36.066  14.211  17.109  0.00  0.00    -0.373 N 
HETATM   31  C   UNK N   1      34.975  13.379  17.113  0.00  0.00     0.088 A 
ATOM     32  HN  UNK N   1      36.343  14.672  17.976  1.00  0.00     0.164 HD
HETATM   33  H   UNK N   1      37.742  14.432  13.341  0.00  0.00     0.166 HD
ENDBRANCH  22  23
ENDBRANCH   1  22
TORSDOF 5
ENDMDL
MODEL 6
REMARK VINA RESULT:      -8.0      3.447      5.571
REMARK  5 active torsions:
REMARK  status: ('A' for Active; 'I' for Inactive)
REMARK    1  A    between atoms: C_9  and  S_17 
REMARK    2  A    between atoms: N_11  and  C_21 
REMARK    3  A    between atoms: C_13  and  N_16 
REMARK    4  A    between atoms: N_16  and  S_17 
REMARK    5  A    between atoms: C_21  and  C_30 
ROOT
HETATM    1  N   UNK N   1      34.267  16.726   8.443  0.00  0.00    -0.345 N 
HETATM    2  C   UNK N   1      35.034  16.557   9.525  0.00  0.00     0.243 C 
HETATM    3  C   UNK N   1      35.447  15.156   9.747  0.00  0.00     0.186 C 
HETATM    4  C   UNK N   1      34.938  14.476   8.461  0.00  0.00     0.055 C 
HETATM    5  C   UNK N   1      34.083  15.514   7.705  0.00  0.00     0.129 C 
HETATM    6  O   UNK N   1      35.270  17.465  10.315  0.00  0.00    -0.271 OA
ENDROOT
BRANCH   3   7
HETATM    7  N   UNK N   1      34.695  14.682  10.901  0.00  0.00    -0.301 N 
HETATM    8  H   UNK N   1      33.796  15.083  11.169  0.00  0.00     0.173 HD
BRANCH   7   9
HETATM    9  S   UNK N   1      35.454  13.358  11.804  0.00  0.00     0.266 S 
HETATM   10  O   UNK N   1      36.961  13.513  11.544  0.00  0.00    -0.200 OA
HETATM   11  O   UNK N   1      35.184  12.183  10.860  0.00  0.00    -0.200 OA
BRANCH   9  12
HETATM   12  C   UNK N   1      35.125  12.680  13.429  0.00  0.00     0.123 A 
HETATM   13  C   UNK N   1      34.725  11.376  13.775  0.00  0.00     0.063 A 
HETATM   14  C   UNK N   1      34.819  11.165  15.184  0.00  0.00     0.051 A 
HETATM   15  C   UNK N   1      35.296  12.257  15.899  0.00  0.00     0.033 A 
HETATM   16  N   UNK N   1      34.530  10.002  15.824  0.00  0.00    -0.365 N 
HETATM   17  C   UNK N   1      35.499  12.208  17.270  0.00  0.00     0.022 A 
HETATM   18  S   UNK N   1      35.580  13.466  14.827  0.00  0.00    -0.074 SA
HETATM   19  C   UNK N   1      35.199  11.004  17.921  0.00  0.00     0.018 A 
HETATM   20  C   UNK N   1      34.710   9.907  17.178  0.00  0.00     0.088 A 
ATOM     21  HN  UNK N   1      34.180   9.202  15.297  1.00  0.00     0.165 HD
ENDBRANCH   9  12
ENDBRANCH   7   9
ENDBRANCH   3   7
BRANCH   1  22
HETATM   22  C   UNK N   1      33.544  17.939   8.128  0.00  0.00     0.182 C 
BRANCH  22  23
HETATM   23  C   UNK N   1      32.075  17.638   8.104  0.00  0.00     0.028 A 
HETATM   24  C   UNK N   1      31.350  17.226   6.987  0.00  0.00     0.040 A 
HETATM   25  C   UNK N   1      30.043  17.198   7.423  0.00  0.00    -0.005 A 
HETATM   26  C   UNK N   1      30.028  17.589   8.727  0.00  0.00     0.058 A 
HETATM   27  C   UNK N   1      28.870  16.876   6.750  0.00  0.00     0.030 A 
HETATM   28  C   UNK N   1      28.837  17.692   9.435  0.00  0.00     0.117 A 
HETATM   29  N   UNK N   1      31.262  17.859   9.166  0.00  0.00    -0.356 N 
HETATM   30  N   UNK N   1      27.675  17.384   8.787  0.00  0.00    -0.373 N 
HETATM   31  C   UNK N   1      27.666  16.979   7.476  0.00  0.00     0.088 A 
ATOM     32  HN  UNK N   1      26.791  17.456   9.291  1.00  0.00     0.164 HD
HETATM   33  H   UNK N   1      31.525  18.156  10.068  0.00  0.00     0.166 HD
ENDBRANCH  22  23
ENDBRANCH   1  22
TORSDOF 5
ENDMDL
MODEL 7
REMARK VINA RESULT:      -7.9      2.507      9.682
REMARK  5 active torsions:
REMARK  status: ('A' for Active; 'I' for Inactive)
REMARK    1  A    between atoms: C_9  and  S_17 
REMARK    2  A    between atoms: N_11  and  C_21 
REMARK    3  A    between atoms: C_13  and  N_16 
REMARK    4  A    between atoms: N_16  and  S_17 
REMARK    5  A    between atoms: C_21  and  C_30 
ROOT
HETATM    1  N   UNK N   1      33.676  15.823   7.441  0.00  0.00    -0.345 N 
HETATM    2  C   UNK N   1      32.396  16.203   7.396  0.00  0.00     0.243 C 
HETATM    3  C   UNK N   1      32.182  17.619   7.763  0.00  0.00     0.186 C 
HETATM    4  C   UNK N   1      33.633  18.131   7.872  0.00  0.00     0.055 C 
HETATM    5  C   UNK N   1      34.559  16.902   7.766  0.00  0.00     0.129 C 
HETATM    6  O   UNK N   1      31.480  15.416   7.183  0.00  0.00    -0.271 OA
ENDROOT
BRANCH   3   7
HETATM    7  N   UNK N   1      31.549  17.615   9.074  0.00  0.00    -0.301 N 
HETATM    8  H   UNK N   1      32.057  17.378   9.926  0.00  0.00     0.173 HD
BRANCH   7   9
HETATM    9  S   UNK N   1      29.830  18.053   9.083  0.00  0.00     0.266 S 
HETATM   10  O   UNK N   1      29.675  19.031  10.259  0.00  0.00    -0.200 OA
HETATM   11  O   UNK N   1      29.227  16.810   9.746  0.00  0.00    -0.200 OA
BRANCH   9  12
HETATM   12  C   UNK N   1      28.686  18.422   7.756  0.00  0.00     0.123 A 
HETATM   13  C   UNK N   1      27.941  19.595   7.535  0.00  0.00     0.063 A 
HETATM   14  C   UNK N   1      27.349  19.593   6.236  0.00  0.00     0.051 A 
HETATM   15  C   UNK N   1      27.642  18.471   5.471  0.00  0.00     0.033 A 
HETATM   16  N   UNK N   1      26.594  20.596   5.716  0.00  0.00    -0.365 N 
HETATM   17  C   UNK N   1      27.192  18.329   4.168  0.00  0.00     0.022 A 
HETATM   18  S   UNK N   1      28.596  17.489   6.377  0.00  0.00    -0.074 SA
HETATM   19  C   UNK N   1      26.416  19.369   3.640  0.00  0.00     0.018 A 
HETATM   20  C   UNK N   1      26.123  20.499   4.434  0.00  0.00     0.088 A 
ATOM     21  HN  UNK N   1      26.379  21.419   6.279  1.00  0.00     0.165 HD
ENDBRANCH   9  12
ENDBRANCH   7   9
ENDBRANCH   3   7
BRANCH   1  22
HETATM   22  C   UNK N   1      34.131  14.453   7.356  0.00  0.00     0.182 C 
BRANCH  22  23
HETATM   23  C   UNK N   1      34.783  14.074   8.653  0.00  0.00     0.028 A 
HETATM   24  C   UNK N   1      34.150  14.030   9.895  0.00  0.00     0.040 A 
HETATM   25  C   UNK N   1      35.169  13.757  10.783  0.00  0.00    -0.005 A 
HETATM   26  C   UNK N   1      36.328  13.662  10.075  0.00  0.00     0.058 A 
HETATM   27  C   UNK N   1      35.150  13.608  12.165  0.00  0.00     0.030 A 
HETATM   28  C   UNK N   1      37.542  13.425  10.708  0.00  0.00     0.117 A 
HETATM   29  N   UNK N   1      36.114  13.850   8.768  0.00  0.00    -0.356 N 
HETATM   30  N   UNK N   1      37.541  13.280  12.066  0.00  0.00    -0.373 N 
HETATM   31  C   UNK N   1      36.384  13.362  12.799  0.00  0.00     0.088 A 
ATOM     32  HN  UNK N   1      38.423  13.108  12.547  1.00  0.00     0.164 HD
HETATM   33  H   UNK N   1      36.781  13.829   8.044  0.00  0.00     0.166 HD
ENDBRANCH  22  23
ENDBRANCH   1  22
TORSDOF 5
ENDMDL
MODEL 8
REMARK VINA RESULT:      -7.7      4.008      5.886
REMARK  5 active torsions:
REMARK  status: ('A' for Active; 'I' for Inactive)
REMARK    1  A    between atoms: C_9  and  S_17 
REMARK    2  A    between atoms: N_11  and  C_21 
REMARK    3  A    between atoms: C_13  and  N_16 
REMARK    4  A    between atoms: N_16  and  S_17 
REMARK    5  A    between atoms: C_21  and  C_30 
ROOT
HETATM    1  N   UNK N   1      33.637  15.939   9.084  0.00  0.00    -0.345 N 
HETATM    2  C   UNK N   1      34.779  15.878   9.777  0.00  0.00     0.243 C 
HETATM    3  C   UNK N   1      35.101  14.525  10.275  0.00  0.00     0.186 C 
HETATM    4  C   UNK N   1      34.011  13.677   9.590  0.00  0.00     0.055 C 
HETATM    5  C   UNK N   1      33.024  14.656   8.923  0.00  0.00     0.129 C 
HETATM    6  O   UNK N   1      35.431  16.876  10.064  0.00  0.00    -0.271 OA
ENDROOT
BRANCH   3   7
HETATM    7  N   UNK N   1      34.887  14.554  11.716  0.00  0.00    -0.301 N 
HETATM    8  H   UNK N   1      34.259  15.223  12.161  0.00  0.00     0.173 HD
BRANCH   7   9
HETATM    9  S   UNK N   1      35.794  13.341  12.638  0.00  0.00     0.266 S 
HETATM   10  O   UNK N   1      37.185  13.304  11.984  0.00  0.00    -0.200 OA
HETATM   11  O   UNK N   1      35.230  12.050  12.035  0.00  0.00    -0.200 OA
BRANCH   9  12
HETATM   12  C   UNK N   1      35.874  12.989  14.392  0.00  0.00     0.123 A 
HETATM   13  C   UNK N   1      35.661  13.860  15.477  0.00  0.00     0.063 A 
HETATM   14  C   UNK N   1      35.565  13.139  16.705  0.00  0.00     0.051 A 
HETATM   15  C   UNK N   1      35.677  11.760  16.574  0.00  0.00     0.033 A 
HETATM   16  N   UNK N   1      35.333  13.693  17.924  0.00  0.00    -0.365 N 
HETATM   17  C   UNK N   1      35.555  10.905  17.658  0.00  0.00     0.022 A 
HETATM   18  S   UNK N   1      35.908  11.430  14.983  0.00  0.00    -0.074 SA
HETATM   19  C   UNK N   1      35.315  11.486  18.911  0.00  0.00     0.018 A 
HETATM   20  C   UNK N   1      35.210  12.889  19.025  0.00  0.00     0.088 A 
ATOM     21  HN  UNK N   1      35.252  14.706  18.018  1.00  0.00     0.165 HD
ENDBRANCH   9  12
ENDBRANCH   7   9
ENDBRANCH   3   7
BRANCH   1  22
HETATM   22  C   UNK N   1      32.980  17.165   8.689  0.00  0.00     0.182 C 
BRANCH  22  23
HETATM   23  C   UNK N   1      32.593  17.065   7.243  0.00  0.00     0.028 A 
HETATM   24  C   UNK N   1      33.477  17.071   6.165  0.00  0.00     0.040 A 
HETATM   25  C   UNK N   1      32.658  17.083   5.056  0.00  0.00    -0.005 A 
HETATM   26  C   UNK N   1      31.367  17.097   5.489  0.00  0.00     0.058 A 
HETATM   27  C   UNK N   1      32.967  17.107   3.701  0.00  0.00     0.030 A 
HETATM   28  C   UNK N   1      30.306  17.146   4.593  0.00  0.00     0.117 A 
HETATM   29  N   UNK N   1      31.303  17.082   6.825  0.00  0.00    -0.356 N 
HETATM   30  N   UNK N   1      30.594  17.174   3.258  0.00  0.00    -0.373 N 
HETATM   31  C   UNK N   1      31.887  17.152   2.798  0.00  0.00     0.088 A 
ATOM     32  HN  UNK N   1      29.828  17.212   2.586  1.00  0.00     0.164 HD
HETATM   33  H   UNK N   1      30.494  17.084   7.385  0.00  0.00     0.166 HD
ENDBRANCH  22  23
ENDBRANCH   1  22
TORSDOF 5
ENDMDL
MODEL 9
REMARK VINA RESULT:      -7.6      3.686      6.079
REMARK  5 active torsions:
REMARK  status: ('A' for Active; 'I' for Inactive)
REMARK    1  A    between atoms: C_9  and  S_17 
REMARK    2  A    between atoms: N_11  and  C_21 
REMARK    3  A    between atoms: C_13  and  N_16 
REMARK    4  A    between atoms: N_16  and  S_17 
REMARK    5  A    between atoms: C_21  and  C_30 
ROOT
HETATM    1  N   UNK N   1      25.229  18.595   4.139  0.00  0.00    -0.345 N 
HETATM    2  C   UNK N   1      26.088  19.018   5.072  0.00  0.00     0.243 C 
HETATM    3  C   UNK N   1      27.189  18.069   5.340  0.00  0.00     0.186 C 
HETATM    4  C   UNK N   1      26.965  17.017   4.236  0.00  0.00     0.055 C 
HETATM    5  C   UNK N   1      25.619  17.346   3.560  0.00  0.00     0.129 C 
HETATM    6  O   UNK N   1      25.907  20.042   5.721  0.00  0.00    -0.271 OA
ENDROOT
BRANCH   3   7
HETATM    7  N   UNK N   1      26.925  17.490   6.650  0.00  0.00    -0.301 N 
HETATM    8  H   UNK N   1      26.070  16.974   6.857  0.00  0.00     0.173 HD
BRANCH   7   9
HETATM    9  S   UNK N   1      28.197  17.746   7.859  0.00  0.00     0.266 S 
HETATM   10  O   UNK N   1      27.643  17.134   9.156  0.00  0.00    -0.200 OA
HETATM   11  O   UNK N   1      27.972  19.223   8.195  0.00  0.00    -0.200 OA
BRANCH   9  12
HETATM   12  C   UNK N   1      29.980  17.600   7.764  0.00  0.00     0.123 A 
HETATM   13  C   UNK N   1      30.930  17.717   8.795  0.00  0.00     0.063 A 
HETATM   14  C   UNK N   1      32.218  17.281   8.361  0.00  0.00     0.051 A 
HETATM   15  C   UNK N   1      32.260  16.822   7.051  0.00  0.00     0.033 A 
HETATM   16  N   UNK N   1      33.336  17.247   9.133  0.00  0.00    -0.365 N 
HETATM   17  C   UNK N   1      33.418  16.314   6.485  0.00  0.00     0.022 A 
HETATM   18  S   UNK N   1      30.748  16.965   6.427  0.00  0.00    -0.074 SA
HETATM   19  C   UNK N   1      34.565  16.281   7.289  0.00  0.00     0.018 A 
HETATM   20  C   UNK N   1      34.505  16.756   8.616  0.00  0.00     0.088 A 
ATOM     21  HN  UNK N   1      33.303  17.584  10.095  1.00  0.00     0.165 HD
ENDBRANCH   9  12
ENDBRANCH   7   9
ENDBRANCH   3   7
BRANCH   1  22
HETATM   22  C   UNK N   1      23.954  19.214   3.855  0.00  0.00     0.182 C 
BRANCH  22  23
HETATM   23  C   UNK N   1      22.859  18.351   4.409  0.00  0.00     0.028 A 
HETATM   24  C   UNK N   1      21.801  17.815   3.677  0.00  0.00     0.040 A 
HETATM   25  C   UNK N   1      21.005  17.211   4.626  0.00  0.00    -0.005 A 
HETATM   26  C   UNK N   1      21.581  17.409   5.844  0.00  0.00     0.058 A 
HETATM   27  C   UNK N   1      19.803  16.524   4.497  0.00  0.00     0.030 A 
HETATM   28  C   UNK N   1      20.986  16.941   7.009  0.00  0.00     0.117 A 
HETATM   29  N   UNK N   1      22.721  18.101   5.734  0.00  0.00    -0.356 N 
HETATM   30  N   UNK N   1      19.802  16.267   6.899  0.00  0.00    -0.373 N 
HETATM   31  C   UNK N   1      19.207  16.048   5.682  0.00  0.00     0.088 A 
ATOM     32  HN  UNK N   1      19.350  15.918   7.743  1.00  0.00     0.164 HD
HETATM   33  H   UNK N   1      23.328  18.372   6.460  0.00  0.00     0.166 HD
ENDBRANCH  22  23
ENDBRANCH   1  22
TORSDOF 5
ENDMDL
