MODEL 1
REMARK VINA RESULT:      -5.1      0.000      0.000
REMARK  5 active torsions:
REMARK  status: ('A' for Active; 'I' for Inactive)
REMARK    1  A    between atoms: C_2  and  N_1 
REMARK    2  A    between atoms: C_2  and  C_3 
REMARK    3  A    between atoms: C_2  and  C_5 
REMARK    4  A    between atoms: C_3  and  O_4 
REMARK    5  A    between atoms: C_5  and  C_6 
ROOT
HETATM    1  C   UNK N   1      36.668  13.412  15.122  0.00  0.00     0.106 C 
ENDROOT
BRANCH   1   2
HETATM    2  N   UNK N   1      37.185  14.767  15.243  0.00  0.00    -0.423 N 
HETATM    3  H   UNK N   1      36.619  15.592  15.443  0.00  0.00     0.150 HD
HETATM    4  H   UNK N   1      38.188  14.902  15.119  0.00  0.00     0.150 HD
ENDBRANCH   1   2
BRANCH   1   5
HETATM    5  C   UNK N   1      36.575  13.041  13.635  0.00  0.00     0.136 C 
HETATM    6  C   UNK N   1      35.165  12.603  13.269  0.00  0.00     0.041 C 
BRANCH   5   7
HETATM    7  O   UNK N   1      36.943  14.122  12.831  0.00  0.00    -0.394 OA
HETATM    8  H   UNK N   1      37.327  14.972  12.565  0.00  0.00     0.210 HD
ENDBRANCH   5   7
ENDBRANCH   1   5
BRANCH   1   9
HETATM    9  C   UNK N   1      35.296  13.332  15.806  0.00  0.00     0.065 C 
BRANCH   9  10
HETATM   10  C   UNK N   1      35.332  12.654  17.145  0.00  0.00    -0.056 A 
HETATM   11  C   UNK N   1      35.161  13.421  18.302  0.00  0.00     0.007 A 
HETATM   12  C   UNK N   1      35.204  12.811  19.562  0.00  0.00     0.001 A 
HETATM   13  C   UNK N   1      35.406  11.433  19.664  0.00  0.00     0.000 A 
HETATM   14  C   UNK N   1      35.577  10.663  18.510  0.00  0.00     0.001 A 
HETATM   15  C   UNK N   1      35.548  11.275  17.252  0.00  0.00     0.007 A 
ENDBRANCH   9  10
ENDBRANCH   1   9
TORSDOF 5
ENDMDL
MODEL 2
REMARK VINA RESULT:      -5.0     10.810     12.063
REMARK  5 active torsions:
REMARK  status: ('A' for Active; 'I' for Inactive)
REMARK    1  A    between atoms: C_2  and  N_1 
REMARK    2  A    between atoms: C_2  and  C_3 
REMARK    3  A    between atoms: C_2  and  C_5 
REMARK    4  A    between atoms: C_3  and  O_4 
REMARK    5  A    between atoms: C_5  and  C_6 
ROOT
HETATM    1  C   UNK N   1      29.717  18.553   8.776  0.00  0.00     0.106 C 
ENDROOT
BRANCH   1   2
HETATM    2  N   UNK N   1      29.848  18.655  10.222  0.00  0.00    -0.423 N 
HETATM    3  H   UNK N   1      29.229  18.206  10.896  0.00  0.00     0.150 HD
HETATM    4  H   UNK N   1      30.617  19.218  10.587  0.00  0.00     0.150 HD
ENDBRANCH   1   2
BRANCH   1   5
HETATM    5  C   UNK N   1      28.243  18.741   8.390  0.00  0.00     0.136 C 
HETATM    6  C   UNK N   1      27.961  18.166   7.011  0.00  0.00     0.041 C 
BRANCH   5   7
HETATM    7  O   UNK N   1      27.405  18.127   9.324  0.00  0.00    -0.394 OA
HETATM    8  H   UNK N   1      27.119  17.654  10.121  0.00  0.00     0.210 HD
ENDBRANCH   5   7
ENDBRANCH   1   5
BRANCH   1   9
HETATM    9  C   UNK N   1      30.246  17.187   8.316  0.00  0.00     0.065 C 
BRANCH   9  10
HETATM   10  C   UNK N   1      31.465  17.277   7.445  0.00  0.00    -0.056 A 
HETATM   11  C   UNK N   1      32.686  17.649   8.016  0.00  0.00     0.007 A 
HETATM   12  C   UNK N   1      33.833  17.753   7.219  0.00  0.00     0.001 A 
HETATM   13  C   UNK N   1      33.761  17.474   5.853  0.00  0.00     0.000 A 
HETATM   14  C   UNK N   1      32.542  17.102   5.278  0.00  0.00     0.001 A 
HETATM   15  C   UNK N   1      31.394  17.012   6.071  0.00  0.00     0.007 A 
ENDBRANCH   9  10
ENDBRANCH   1   9
TORSDOF 5
ENDMDL
MODEL 3
REMARK VINA RESULT:      -4.8      9.820     10.949
REMARK  5 active torsions:
REMARK  status: ('A' for Active; 'I' for Inactive)
REMARK    1  A    between atoms: C_2  and  N_1 
REMARK    2  A    between atoms: C_2  and  C_3 
REMARK    3  A    between atoms: C_2  and  C_5 
REMARK    4  A    between atoms: C_3  and  O_4 
REMARK    5  A    between atoms: C_5  and  C_6 
ROOT
HETATM    1  C   UNK N   1      33.067  16.996   8.288  0.00  0.00     0.106 C 
ENDROOT
BRANCH   1   2
HETATM    2  N   UNK N   1      33.652  16.585   9.556  0.00  0.00    -0.423 N 
HETATM    3  H   UNK N   1      34.195  15.733   9.699  0.00  0.00     0.150 HD
HETATM    4  H   UNK N   1      33.509  17.195  10.360  0.00  0.00     0.150 HD
ENDBRANCH   1   2
BRANCH   1   5
HETATM    5  C   UNK N   1      34.194  17.304   7.291  0.00  0.00     0.136 C 
HETATM    6  C   UNK N   1      33.667  17.343   5.865  0.00  0.00     0.041 C 
BRANCH   5   7
HETATM    7  O   UNK N   1      34.800  18.526   7.591  0.00  0.00    -0.394 OA
HETATM    8  H   UNK N   1      34.977  19.374   8.027  0.00  0.00     0.210 HD
ENDBRANCH   5   7
ENDBRANCH   1   5
BRANCH   1   9
HETATM    9  C   UNK N   1      32.174  18.222   8.518  0.00  0.00     0.065 C 
BRANCH   9  10
HETATM   10  C   UNK N   1      30.707  17.929   8.386  0.00  0.00    -0.056 A 
HETATM   11  C   UNK N   1      29.840  18.312   9.415  0.00  0.00     0.007 A 
HETATM   12  C   UNK N   1      28.470  18.037   9.319  0.00  0.00     0.001 A 
HETATM   13  C   UNK N   1      27.966  17.389   8.189  0.00  0.00     0.000 A 
HETATM   14  C   UNK N   1      28.829  17.005   7.159  0.00  0.00     0.001 A 
HETATM   15  C   UNK N   1      30.199  17.268   7.261  0.00  0.00     0.007 A 
ENDBRANCH   9  10
ENDBRANCH   1   9
TORSDOF 5
ENDMDL
MODEL 4
REMARK VINA RESULT:      -4.8     22.636     25.274
REMARK  5 active torsions:
REMARK  status: ('A' for Active; 'I' for Inactive)
REMARK    1  A    between atoms: C_2  and  N_1 
REMARK    2  A    between atoms: C_2  and  C_3 
REMARK    3  A    between atoms: C_2  and  C_5 
REMARK    4  A    between atoms: C_3  and  O_4 
REMARK    5  A    between atoms: C_5  and  C_6 
ROOT
HETATM    1  C   UNK N   1      28.734  24.061  -3.202  0.00  0.00     0.106 C 
ENDROOT
BRANCH   1   2
HETATM    2  N   UNK N   1      29.254  24.201  -4.555  0.00  0.00    -0.423 N 
HETATM    3  H   UNK N   1      29.704  25.039  -4.922  0.00  0.00     0.150 HD
HETATM    4  H   UNK N   1      29.160  23.401  -5.181  0.00  0.00     0.150 HD
ENDBRANCH   1   2
BRANCH   1   5
HETATM    5  C   UNK N   1      29.383  22.838  -2.538  0.00  0.00     0.136 C 
HETATM    6  C   UNK N   1      30.136  21.998  -3.558  0.00  0.00     0.041 C 
BRANCH   5   7
HETATM    7  O   UNK N   1      30.263  23.232  -1.528  0.00  0.00    -0.394 OA
HETATM    8  H   UNK N   1      30.650  23.338  -0.645  0.00  0.00     0.210 HD
ENDBRANCH   5   7
ENDBRANCH   1   5
BRANCH   1   9
HETATM    9  C   UNK N   1      27.207  23.920  -3.261  0.00  0.00     0.065 C 
BRANCH   9  10
HETATM   10  C   UNK N   1      26.519  25.100  -3.885  0.00  0.00    -0.056 A 
HETATM   11  C   UNK N   1      25.842  24.932  -5.097  0.00  0.00     0.007 A 
HETATM   12  C   UNK N   1      25.205  26.022  -5.704  0.00  0.00     0.001 A 
HETATM   13  C   UNK N   1      25.236  27.277  -5.092  0.00  0.00     0.000 A 
HETATM   14  C   UNK N   1      25.911  27.449  -3.880  0.00  0.00     0.001 A 
HETATM   15  C   UNK N   1      26.558  26.363  -3.282  0.00  0.00     0.007 A 
ENDBRANCH   9  10
ENDBRANCH   1   9
TORSDOF 5
ENDMDL
MODEL 5
REMARK VINA RESULT:      -4.8      1.788      2.026
REMARK  5 active torsions:
REMARK  status: ('A' for Active; 'I' for Inactive)
REMARK    1  A    between atoms: C_2  and  N_1 
REMARK    2  A    between atoms: C_2  and  C_3 
REMARK    3  A    between atoms: C_2  and  C_5 
REMARK    4  A    between atoms: C_3  and  O_4 
REMARK    5  A    between atoms: C_5  and  C_6 
ROOT
HETATM    1  C   UNK N   1      34.800  12.511  14.216  0.00  0.00     0.106 C 
ENDROOT
BRANCH   1   2
HETATM    2  N   UNK N   1      34.190  11.442  13.439  0.00  0.00    -0.423 N 
HETATM    3  H   UNK N   1      33.217  11.145  13.519  0.00  0.00     0.150 HD
HETATM    4  H   UNK N   1      34.779  10.953  12.765  0.00  0.00     0.150 HD
ENDBRANCH   1   2
BRANCH   1   5
HETATM    5  C   UNK N   1      35.376  13.563  13.257  0.00  0.00     0.136 C 
HETATM    6  C   UNK N   1      36.678  13.082  12.636  0.00  0.00     0.041 C 
BRANCH   5   7
HETATM    7  O   UNK N   1      34.464  13.858  12.241  0.00  0.00    -0.394 OA
HETATM    8  H   UNK N   1      34.041  13.867  11.368  0.00  0.00     0.210 HD
ENDBRANCH   5   7
ENDBRANCH   1   5
BRANCH   1   9
HETATM    9  C   UNK N   1      35.892  11.919  15.117  0.00  0.00     0.065 C 
BRANCH   9  10
HETATM   10  C   UNK N   1      35.649  12.145  16.581  0.00  0.00    -0.056 A 
HETATM   11  C   UNK N   1      35.366  13.438  17.034  0.00  0.00     0.007 A 
HETATM   12  C   UNK N   1      35.149  13.674  18.397  0.00  0.00     0.001 A 
HETATM   13  C   UNK N   1      35.206  12.615  19.306  0.00  0.00     0.000 A 
HETATM   14  C   UNK N   1      35.489  11.322  18.858  0.00  0.00     0.001 A 
HETATM   15  C   UNK N   1      35.719  11.089  17.498  0.00  0.00     0.007 A 
ENDBRANCH   9  10
ENDBRANCH   1   9
TORSDOF 5
ENDMDL
MODEL 6
REMARK VINA RESULT:      -4.7     25.938     27.928
REMARK  5 active torsions:
REMARK  status: ('A' for Active; 'I' for Inactive)
REMARK    1  A    between atoms: C_2  and  N_1 
REMARK    2  A    between atoms: C_2  and  C_3 
REMARK    3  A    between atoms: C_2  and  C_5 
REMARK    4  A    between atoms: C_3  and  O_4 
REMARK    5  A    between atoms: C_5  and  C_6 
ROOT
HETATM    1  C   UNK N   1      26.074  25.215  -6.479  0.00  0.00     0.106 C 
ENDROOT
BRANCH   1   2
HETATM    2  N   UNK N   1      25.421  24.913  -7.744  0.00  0.00    -0.423 N 
HETATM    3  H   UNK N   1      24.980  25.603  -8.352  0.00  0.00     0.150 HD
HETATM    4  H   UNK N   1      25.404  23.938  -8.045  0.00  0.00     0.150 HD
ENDBRANCH   1   2
BRANCH   1   5
HETATM    5  C   UNK N   1      26.238  23.917  -5.675  0.00  0.00     0.136 C 
HETATM    6  C   UNK N   1      26.181  24.189  -4.180  0.00  0.00     0.041 C 
BRANCH   5   7
HETATM    7  O   UNK N   1      25.243  22.997  -6.013  0.00  0.00    -0.394 OA
HETATM    8  H   UNK N   1      24.406  22.640  -6.348  0.00  0.00     0.210 HD
ENDBRANCH   5   7
ENDBRANCH   1   5
BRANCH   1   9
HETATM    9  C   UNK N   1      25.234  26.246  -5.712  0.00  0.00     0.065 C 
BRANCH   9  10
HETATM   10  C   UNK N   1      25.977  27.511  -5.397  0.00  0.00    -0.056 A 
HETATM   11  C   UNK N   1      25.636  28.236  -4.250  0.00  0.00     0.007 A 
HETATM   12  C   UNK N   1      26.308  29.426  -3.945  0.00  0.00     0.001 A 
HETATM   13  C   UNK N   1      27.327  29.887  -4.781  0.00  0.00     0.000 A 
HETATM   14  C   UNK N   1      27.671  29.166  -5.928  0.00  0.00     0.001 A 
HETATM   15  C   UNK N   1      26.991  27.984  -6.240  0.00  0.00     0.007 A 
ENDBRANCH   9  10
ENDBRANCH   1   9
TORSDOF 5
ENDMDL
MODEL 7
REMARK VINA RESULT:      -4.7      7.733     10.996
REMARK  5 active torsions:
REMARK  status: ('A' for Active; 'I' for Inactive)
REMARK    1  A    between atoms: C_2  and  N_1 
REMARK    2  A    between atoms: C_2  and  C_3 
REMARK    3  A    between atoms: C_2  and  C_5 
REMARK    4  A    between atoms: C_3  and  O_4 
REMARK    5  A    between atoms: C_5  and  C_6 
ROOT
HETATM    1  C   UNK N   1      32.906  15.592   9.174  0.00  0.00     0.106 C 
ENDROOT
BRANCH   1   2
HETATM    2  N   UNK N   1      31.696  15.334   9.940  0.00  0.00    -0.423 N 
HETATM    3  H   UNK N   1      31.571  15.559  10.927  0.00  0.00     0.150 HD
HETATM    4  H   UNK N   1      30.914  14.896   9.454  0.00  0.00     0.150 HD
ENDBRANCH   1   2
BRANCH   1   5
HETATM    5  C   UNK N   1      34.130  15.320  10.060  0.00  0.00     0.136 C 
HETATM    6  C   UNK N   1      35.012  16.553  10.167  0.00  0.00     0.041 C 
BRANCH   5   7
HETATM    7  O   UNK N   1      33.735  14.924  11.340  0.00  0.00    -0.394 OA
HETATM    8  H   UNK N   1      33.405  14.366  12.062  0.00  0.00     0.210 HD
ENDBRANCH   5   7
ENDBRANCH   1   5
BRANCH   1   9
HETATM    9  C   UNK N   1      32.888  17.043   8.676  0.00  0.00     0.065 C 
BRANCH   9  10
HETATM   10  C   UNK N   1      32.556  17.174   7.217  0.00  0.00    -0.056 A 
HETATM   11  C   UNK N   1      33.586  17.417   6.302  0.00  0.00     0.007 A 
HETATM   12  C   UNK N   1      33.298  17.554   4.939  0.00  0.00     0.001 A 
HETATM   13  C   UNK N   1      31.981  17.439   4.489  0.00  0.00     0.000 A 
HETATM   14  C   UNK N   1      30.948  17.196   5.400  0.00  0.00     0.001 A 
HETATM   15  C   UNK N   1      31.235  17.072   6.763  0.00  0.00     0.007 A 
ENDBRANCH   9  10
ENDBRANCH   1   9
TORSDOF 5
ENDMDL
MODEL 8
REMARK VINA RESULT:      -4.5     11.597     14.304
REMARK  5 active torsions:
REMARK  status: ('A' for Active; 'I' for Inactive)
REMARK    1  A    between atoms: C_2  and  N_1 
REMARK    2  A    between atoms: C_2  and  C_3 
REMARK    3  A    between atoms: C_2  and  C_5 
REMARK    4  A    between atoms: C_3  and  O_4 
REMARK    5  A    between atoms: C_5  and  C_6 
ROOT
HETATM    1  C   UNK N   1      28.600  17.599   8.150  0.00  0.00     0.106 C 
ENDROOT
BRANCH   1   2
HETATM    2  N   UNK N   1      27.508  17.117   8.983  0.00  0.00    -0.423 N 
HETATM    3  H   UNK N   1      26.648  16.696   8.631  0.00  0.00     0.150 HD
HETATM    4  H   UNK N   1      27.611  17.206   9.994  0.00  0.00     0.150 HD
ENDBRANCH   1   2
BRANCH   1   5
HETATM    5  C   UNK N   1      29.932  17.349   8.874  0.00  0.00     0.136 C 
HETATM    6  C   UNK N   1      31.098  17.384   7.899  0.00  0.00     0.041 C 
BRANCH   5   7
HETATM    7  O   UNK N   1      30.138  18.302   9.873  0.00  0.00    -0.394 OA
HETATM    8  H   UNK N   1      30.167  18.712  10.752  0.00  0.00     0.210 HD
ENDBRANCH   5   7
ENDBRANCH   1   5
BRANCH   1   9
HETATM    9  C   UNK N   1      28.392  19.092   7.861  0.00  0.00     0.065 C 
BRANCH   9  10
HETATM   10  C   UNK N   1      27.932  19.373   6.460  0.00  0.00    -0.056 A 
HETATM   11  C   UNK N   1      28.167  18.423   5.461  0.00  0.00     0.007 A 
HETATM   12  C   UNK N   1      27.757  18.670   4.145  0.00  0.00     0.001 A 
HETATM   13  C   UNK N   1      27.105  19.864   3.830  0.00  0.00     0.000 A 
HETATM   14  C   UNK N   1      26.868  20.816   4.825  0.00  0.00     0.001 A 
HETATM   15  C   UNK N   1      27.289  20.575   6.137  0.00  0.00     0.007 A 
ENDBRANCH   9  10
ENDBRANCH   1   9
TORSDOF 5
ENDMDL
MODEL 9
REMARK VINA RESULT:      -4.5     14.585     16.424
REMARK  5 active torsions:
REMARK  status: ('A' for Active; 'I' for Inactive)
REMARK    1  A    between atoms: C_2  and  N_1 
REMARK    2  A    between atoms: C_2  and  C_3 
REMARK    3  A    between atoms: C_2  and  C_5 
REMARK    4  A    between atoms: C_3  and  O_4 
REMARK    5  A    between atoms: C_5  and  C_6 
ROOT
HETATM    1  C   UNK N   1      22.692  13.042  10.437  0.00  0.00     0.106 C 
ENDROOT
BRANCH   1   2
HETATM    2  N   UNK N   1      24.125  13.062  10.180  0.00  0.00    -0.423 N 
HETATM    3  H   UNK N   1      24.573  12.682   9.346  0.00  0.00     0.150 HD
HETATM    4  H   UNK N   1      24.725  13.488  10.886  0.00  0.00     0.150 HD
ENDBRANCH   1   2
BRANCH   1   5
HETATM    5  C   UNK N   1      22.363  11.856  11.355  0.00  0.00     0.136 C 
HETATM    6  C   UNK N   1      23.182  11.911  12.635  0.00  0.00     0.041 C 
BRANCH   5   7
HETATM    7  O   UNK N   1      21.005  11.843  11.679  0.00  0.00    -0.394 OA
HETATM    8  H   UNK N   1      20.050  12.004  11.617  0.00  0.00     0.210 HD
ENDBRANCH   5   7
ENDBRANCH   1   5
BRANCH   1   9
HETATM    9  C   UNK N   1      21.941  12.941   9.102  0.00  0.00     0.065 C 
BRANCH   9  10
HETATM   10  C   UNK N   1      21.450  14.263   8.589  0.00  0.00    -0.056 A 
HETATM   11  C   UNK N   1      22.068  14.834   7.471  0.00  0.00     0.007 A 
HETATM   12  C   UNK N   1      21.634  16.073   6.983  0.00  0.00     0.001 A 
HETATM   13  C   UNK N   1      20.575  16.736   7.607  0.00  0.00     0.000 A 
HETATM   14  C   UNK N   1      19.955  16.170   8.723  0.00  0.00     0.001 A 
HETATM   15  C   UNK N   1      20.397  14.939   9.219  0.00  0.00     0.007 A 
ENDBRANCH   9  10
ENDBRANCH   1   9
TORSDOF 5
ENDMDL
