MODEL 1
REMARK VINA RESULT:      -6.7      0.000      0.000
REMARK  8 active torsions:
REMARK  status: ('A' for Active; 'I' for Inactive)
REMARK    1  A    between atoms: C_3  and  N_7 
REMARK    2  A    between atoms: C_6  and  S_10 
REMARK    3  A    between atoms: C_11  and  S_10 
REMARK    4  A    between atoms: C_12  and  O_17 
REMARK    5  A    between atoms: C_13  and  O_18 
REMARK    6  A    between atoms: C_14  and  O_19 
REMARK    7  A    between atoms: C_15  and  C_16 
REMARK    8  A    between atoms: C_16  and  O_21 
ROOT
HETATM    1  C   UNK N   1      35.231  14.280  11.626  0.00  0.00     0.219 C 
HETATM    2  C   UNK N   1      36.068  15.546  11.334  0.00  0.00     0.188 C 
HETATM    3  C   UNK N   1      35.140  16.652  10.796  0.00  0.00     0.181 C 
HETATM    4  C   UNK N   1      34.326  16.121   9.605  0.00  0.00     0.180 C 
HETATM    5  C   UNK N   1      33.589  14.854  10.074  0.00  0.00     0.178 C 
HETATM    6  O   UNK N   1      34.539  13.878  10.454  0.00  0.00    -0.362 OA
ENDROOT
BRANCH   1   7
HETATM    7  S   UNK N   1      36.326  12.905  12.151  0.00  0.00    -0.095 SA
BRANCH   7   8
HETATM    8  C   UNK N   1      36.049  13.150  13.910  0.00  0.00     0.003 A 
HETATM    9  C   UNK N   1      34.987  12.506  14.556  0.00  0.00     0.021 A 
HETATM   10  C   UNK N   1      34.738  12.740  15.908  0.00  0.00     0.037 A 
HETATM   11  C   UNK N   1      35.564  13.608  16.637  0.00  0.00     0.102 A 
HETATM   12  C   UNK N   1      36.645  14.230  15.993  0.00  0.00     0.037 A 
HETATM   13  C   UNK N   1      36.883  14.006  14.633  0.00  0.00     0.021 A 
BRANCH  11  14
HETATM   14  N   UNK N   1      35.294  13.859  18.010  0.00  0.00    -0.116 N 
HETATM   15  O   UNK N   1      35.305  14.979  18.431  0.00  0.00    -0.532 OA
HETATM   16  O   UNK N   1      35.004  12.866  18.821  0.00  0.00    -0.532 OA
ENDBRANCH  11  14
ENDBRANCH   7   8
ENDBRANCH   1   7
BRANCH   2  17
HETATM   17  O   UNK N   1      37.054  15.256  10.383  0.00  0.00    -0.389 OA
HETATM   18  H   UNK N   1      37.613  14.840   9.709  0.00  0.00     0.210 HD
ENDBRANCH   2  17
BRANCH   3  19
HETATM   19  O   UNK N   1      35.886  17.773  10.419  0.00  0.00    -0.390 OA
HETATM   20  H   UNK N   1      36.828  17.703  10.205  0.00  0.00     0.210 HD
ENDBRANCH   3  19
BRANCH   5  21
HETATM   21  C   UNK N   1      32.688  14.266   8.991  0.00  0.00     0.198 C 
BRANCH  21  22
HETATM   22  O   UNK N   1      32.397  12.926   9.250  0.00  0.00    -0.398 OA
HETATM   23  H   UNK N   1      32.491  11.968   9.375  0.00  0.00     0.209 HD
ENDBRANCH  21  22
ENDBRANCH   5  21
BRANCH   4  24
HETATM   24  O   UNK N   1      33.412  17.091   9.182  0.00  0.00    -0.390 OA
HETATM   25  H   UNK N   1      32.727  17.106   8.494  0.00  0.00     0.210 HD
ENDBRANCH   4  24
TORSDOF 8
ENDMDL
MODEL 2
REMARK VINA RESULT:      -6.4      8.788     12.743
REMARK  8 active torsions:
REMARK  status: ('A' for Active; 'I' for Inactive)
REMARK    1  A    between atoms: C_3  and  N_7 
REMARK    2  A    between atoms: C_6  and  S_10 
REMARK    3  A    between atoms: C_11  and  S_10 
REMARK    4  A    between atoms: C_12  and  O_17 
REMARK    5  A    between atoms: C_13  and  O_18 
REMARK    6  A    between atoms: C_14  and  O_19 
REMARK    7  A    between atoms: C_15  and  C_16 
REMARK    8  A    between atoms: C_16  and  O_21 
ROOT
HETATM    1  C   UNK N   1      29.083  17.556   6.167  0.00  0.00     0.219 C 
HETATM    2  C   UNK N   1      27.876  17.724   7.119  0.00  0.00     0.188 C 
HETATM    3  C   UNK N   1      28.344  18.422   8.410  0.00  0.00     0.181 C 
HETATM    4  C   UNK N   1      29.545  17.670   9.007  0.00  0.00     0.180 C 
HETATM    5  C   UNK N   1      30.625  17.576   7.915  0.00  0.00     0.178 C 
HETATM    6  O   UNK N   1      30.117  16.838   6.821  0.00  0.00    -0.362 OA
ENDROOT
BRANCH   1   7
HETATM    7  S   UNK N   1      28.583  16.618   4.672  0.00  0.00    -0.095 SA
BRANCH   7   8
HETATM    8  C   UNK N   1      27.236  17.725   4.238  0.00  0.00     0.003 A 
HETATM    9  C   UNK N   1      25.922  17.247   4.164  0.00  0.00     0.021 A 
HETATM   10  C   UNK N   1      24.885  18.093   3.772  0.00  0.00     0.037 A 
HETATM   11  C   UNK N   1      25.147  19.436   3.469  0.00  0.00     0.102 A 
HETATM   12  C   UNK N   1      26.461  19.920   3.573  0.00  0.00     0.037 A 
HETATM   13  C   UNK N   1      27.502  19.066   3.950  0.00  0.00     0.021 A 
BRANCH  11  14
HETATM   14  N   UNK N   1      24.090  20.290   3.050  0.00  0.00    -0.116 N 
HETATM   15  O   UNK N   1      24.301  21.175   2.273  0.00  0.00    -0.532 OA
HETATM   16  O   UNK N   1      22.867  20.097   3.493  0.00  0.00    -0.532 OA
ENDBRANCH  11  14
ENDBRANCH   7   8
ENDBRANCH   1   7
BRANCH   2  17
HETATM   17  O   UNK N   1      27.338  16.470   7.431  0.00  0.00    -0.389 OA
HETATM   18  H   UNK N   1      27.144  15.522   7.493  0.00  0.00     0.210 HD
ENDBRANCH   2  17
BRANCH   3  19
HETATM   19  O   UNK N   1      27.299  18.488   9.335  0.00  0.00    -0.390 OA
HETATM   20  H   UNK N   1      26.838  17.690   9.634  0.00  0.00     0.210 HD
ENDBRANCH   3  19
BRANCH   5  21
HETATM   21  C   UNK N   1      31.902  16.903   8.410  0.00  0.00     0.198 C 
BRANCH  21  22
HETATM   22  O   UNK N   1      31.638  16.040   9.475  0.00  0.00    -0.398 OA
HETATM   23  H   UNK N   1      31.313  15.288   9.995  0.00  0.00     0.209 HD
ENDBRANCH  21  22
ENDBRANCH   5  21
BRANCH   4  24
HETATM   24  O   UNK N   1      30.034  18.360  10.121  0.00  0.00    -0.390 OA
HETATM   25  H   UNK N   1      30.325  19.274  10.263  0.00  0.00     0.210 HD
ENDBRANCH   4  24
TORSDOF 8
ENDMDL
MODEL 3
REMARK VINA RESULT:      -6.4     15.071     16.582
REMARK  8 active torsions:
REMARK  status: ('A' for Active; 'I' for Inactive)
REMARK    1  A    between atoms: C_3  and  N_7 
REMARK    2  A    between atoms: C_6  and  S_10 
REMARK    3  A    between atoms: C_11  and  S_10 
REMARK    4  A    between atoms: C_12  and  O_17 
REMARK    5  A    between atoms: C_13  and  O_18 
REMARK    6  A    between atoms: C_14  and  O_19 
REMARK    7  A    between atoms: C_15  and  C_16 
REMARK    8  A    between atoms: C_16  and  O_21 
ROOT
HETATM    1  C   UNK N   1      21.894  18.131   4.098  0.00  0.00     0.219 C 
HETATM    2  C   UNK N   1      22.471  19.547   3.873  0.00  0.00     0.188 C 
HETATM    3  C   UNK N   1      21.447  20.391   3.091  0.00  0.00     0.181 C 
HETATM    4  C   UNK N   1      21.023  19.650   1.812  0.00  0.00     0.180 C 
HETATM    5  C   UNK N   1      20.507  18.262   2.229  0.00  0.00     0.178 C 
HETATM    6  O   UNK N   1      21.555  17.545   2.852  0.00  0.00    -0.362 OA
ENDROOT
BRANCH   1   7
HETATM    7  S   UNK N   1      23.139  17.064   4.919  0.00  0.00    -0.095 SA
BRANCH   7   8
HETATM    8  C   UNK N   1      22.040  16.528   6.237  0.00  0.00     0.003 A 
HETATM    9  C   UNK N   1      22.155  15.242   6.776  0.00  0.00     0.021 A 
HETATM   10  C   UNK N   1      21.266  14.807   7.758  0.00  0.00     0.037 A 
HETATM   11  C   UNK N   1      20.261  15.663   8.229  0.00  0.00     0.102 A 
HETATM   12  C   UNK N   1      20.166  16.963   7.707  0.00  0.00     0.037 A 
HETATM   13  C   UNK N   1      21.049  17.392   6.710  0.00  0.00     0.021 A 
BRANCH  11  14
HETATM   14  N   UNK N   1      19.344  15.209   9.216  0.00  0.00    -0.116 N 
HETATM   15  O   UNK N   1      19.547  14.185   9.801  0.00  0.00    -0.532 OA
HETATM   16  O   UNK N   1      18.281  15.924   9.513  0.00  0.00    -0.532 OA
ENDBRANCH  11  14
ENDBRANCH   7   8
ENDBRANCH   1   7
BRANCH   2  17
HETATM   17  O   UNK N   1      23.664  19.465   3.148  0.00  0.00    -0.389 OA
HETATM   18  H   UNK N   1      24.486  19.655   2.669  0.00  0.00     0.210 HD
ENDBRANCH   2  17
BRANCH   3  19
HETATM   19  O   UNK N   1      21.985  21.643   2.777  0.00  0.00    -0.390 OA
HETATM   20  H   UNK N   1      22.681  21.739   2.110  0.00  0.00     0.210 HD
ENDBRANCH   3  19
BRANCH   5  21
HETATM   21  C   UNK N   1      19.992  17.448   1.044  0.00  0.00     0.198 C 
BRANCH  21  22
HETATM   22  O   UNK N   1      20.389  18.015  -0.168  0.00  0.00    -0.398 OA
HETATM   23  H   UNK N   1      20.503  18.641  -0.901  0.00  0.00     0.209 HD
ENDBRANCH  21  22
ENDBRANCH   5  21
BRANCH   4  24
HETATM   24  O   UNK N   1      20.020  20.369   1.155  0.00  0.00    -0.390 OA
HETATM   25  H   UNK N   1      19.773  21.307   1.141  0.00  0.00     0.210 HD
ENDBRANCH   4  24
TORSDOF 8
ENDMDL
MODEL 4
REMARK VINA RESULT:      -6.3      1.941      3.313
REMARK  8 active torsions:
REMARK  status: ('A' for Active; 'I' for Inactive)
REMARK    1  A    between atoms: C_3  and  N_7 
REMARK    2  A    between atoms: C_6  and  S_10 
REMARK    3  A    between atoms: C_11  and  S_10 
REMARK    4  A    between atoms: C_12  and  O_17 
REMARK    5  A    between atoms: C_13  and  O_18 
REMARK    6  A    between atoms: C_14  and  O_19 
REMARK    7  A    between atoms: C_15  and  C_16 
REMARK    8  A    between atoms: C_16  and  O_21 
ROOT
HETATM    1  C   UNK N   1      35.469  12.644  13.012  0.00  0.00     0.219 C 
HETATM    2  C   UNK N   1      36.648  12.030  12.221  0.00  0.00     0.188 C 
HETATM    3  C   UNK N   1      37.491  13.165  11.611  0.00  0.00     0.181 C 
HETATM    4  C   UNK N   1      36.590  14.115  10.804  0.00  0.00     0.180 C 
HETATM    5  C   UNK N   1      35.469  14.598  11.740  0.00  0.00     0.178 C 
HETATM    6  O   UNK N   1      34.705  13.485  12.164  0.00  0.00    -0.362 OA
ENDROOT
BRANCH   1   7
HETATM    7  S   UNK N   1      34.375  11.316  13.648  0.00  0.00    -0.095 SA
BRANCH   7   8
HETATM    8  C   UNK N   1      34.724  11.645  15.380  0.00  0.00     0.003 A 
HETATM    9  C   UNK N   1      35.028  10.593  16.253  0.00  0.00     0.021 A 
HETATM   10  C   UNK N   1      35.243  10.843  17.609  0.00  0.00     0.037 A 
HETATM   11  C   UNK N   1      35.178  12.152  18.104  0.00  0.00     0.102 A 
HETATM   12  C   UNK N   1      34.903  13.208  17.220  0.00  0.00     0.037 A 
HETATM   13  C   UNK N   1      34.671  12.954  15.865  0.00  0.00     0.021 A 
BRANCH  11  14
HETATM   14  N   UNK N   1      35.378  12.399  19.490  0.00  0.00    -0.116 N 
HETATM   15  O   UNK N   1      36.022  11.637  20.151  0.00  0.00    -0.532 OA
HETATM   16  O   UNK N   1      34.881  13.480  20.050  0.00  0.00    -0.532 OA
ENDBRANCH  11  14
ENDBRANCH   7   8
ENDBRANCH   1   7
BRANCH   2  17
HETATM   17  O   UNK N   1      36.158  11.207  11.201  0.00  0.00    -0.389 OA
HETATM   18  H   UNK N   1      35.671  10.832  10.451  0.00  0.00     0.210 HD
ENDBRANCH   2  17
BRANCH   3  19
HETATM   19  O   UNK N   1      38.501  12.639  10.799  0.00  0.00    -0.390 OA
HETATM   20  H   UNK N   1      38.926  11.793  11.006  0.00  0.00     0.210 HD
ENDBRANCH   3  19
BRANCH   5  21
HETATM   21  C   UNK N   1      34.539  15.604  11.069  0.00  0.00     0.198 C 
BRANCH  21  22
HETATM   22  O   UNK N   1      35.071  16.894  11.118  0.00  0.00    -0.398 OA
HETATM   23  H   UNK N   1      35.202  17.844  10.973  0.00  0.00     0.209 HD
ENDBRANCH  21  22
ENDBRANCH   5  21
BRANCH   4  24
HETATM   24  O   UNK N   1      37.338  15.198  10.335  0.00  0.00    -0.390 OA
HETATM   25  H   UNK N   1      38.242  15.508  10.507  0.00  0.00     0.210 HD
ENDBRANCH   4  24
TORSDOF 8
ENDMDL
MODEL 5
REMARK VINA RESULT:      -6.3      5.508      8.301
REMARK  8 active torsions:
REMARK  status: ('A' for Active; 'I' for Inactive)
REMARK    1  A    between atoms: C_3  and  N_7 
REMARK    2  A    between atoms: C_6  and  S_10 
REMARK    3  A    between atoms: C_11  and  S_10 
REMARK    4  A    between atoms: C_12  and  O_17 
REMARK    5  A    between atoms: C_13  and  O_18 
REMARK    6  A    between atoms: C_14  and  O_19 
REMARK    7  A    between atoms: C_15  and  C_16 
REMARK    8  A    between atoms: C_16  and  O_21 
ROOT
HETATM    1  C   UNK N   1      30.396  17.168   5.824  0.00  0.00     0.219 C 
HETATM    2  C   UNK N   1      29.626  17.623   4.563  0.00  0.00     0.188 C 
HETATM    3  C   UNK N   1      28.591  18.692   4.961  0.00  0.00     0.181 C 
HETATM    4  C   UNK N   1      27.711  18.170   6.108  0.00  0.00     0.180 C 
HETATM    5  C   UNK N   1      28.646  17.741   7.253  0.00  0.00     0.178 C 
HETATM    6  O   UNK N   1      29.484  16.695   6.802  0.00  0.00    -0.362 OA
ENDROOT
BRANCH   1   7
HETATM    7  S   UNK N   1      31.551  15.807   5.404  0.00  0.00    -0.095 SA
BRANCH   7   8
HETATM    8  C   UNK N   1      32.630  16.077   6.815  0.00  0.00     0.003 A 
HETATM    9  C   UNK N   1      32.604  15.198   7.904  0.00  0.00     0.021 A 
HETATM   10  C   UNK N   1      33.401  15.440   9.024  0.00  0.00     0.037 A 
HETATM   11  C   UNK N   1      34.249  16.555   9.058  0.00  0.00     0.102 A 
HETATM   12  C   UNK N   1      34.294  17.419   7.952  0.00  0.00     0.037 A 
HETATM   13  C   UNK N   1      33.483  17.184   6.837  0.00  0.00     0.021 A 
BRANCH  11  14
HETATM   14  N   UNK N   1      35.044  16.808  10.210  0.00  0.00    -0.116 N 
HETATM   15  O   UNK N   1      35.723  17.792  10.269  0.00  0.00    -0.532 OA
HETATM   16  O   UNK N   1      35.019  15.978  11.229  0.00  0.00    -0.532 OA
ENDBRANCH  11  14
ENDBRANCH   7   8
ENDBRANCH   1   7
BRANCH   2  17
HETATM   17  O   UNK N   1      28.973  16.529   3.984  0.00  0.00    -0.389 OA
HETATM   18  H   UNK N   1      28.318  15.902   3.642  0.00  0.00     0.210 HD
ENDBRANCH   2  17
BRANCH   3  19
HETATM   19  O   UNK N   1      27.805  19.043   3.860  0.00  0.00    -0.390 OA
HETATM   20  H   UNK N   1      27.055  19.651   3.949  0.00  0.00     0.210 HD
ENDBRANCH   3  19
BRANCH   5  21
HETATM   21  C   UNK N   1      27.882  17.261   8.484  0.00  0.00     0.198 C 
BRANCH  21  22
HETATM   22  O   UNK N   1      27.500  18.334   9.291  0.00  0.00    -0.398 OA
HETATM   23  H   UNK N   1      27.490  19.195   9.738  0.00  0.00     0.209 HD
ENDBRANCH  21  22
ENDBRANCH   5  21
BRANCH   4  24
HETATM   24  O   UNK N   1      26.840  19.175   6.537  0.00  0.00    -0.390 OA
HETATM   25  H   UNK N   1      26.189  19.731   6.081  0.00  0.00     0.210 HD
ENDBRANCH   4  24
TORSDOF 8
ENDMDL
MODEL 6
REMARK VINA RESULT:      -6.1     14.721     16.608
REMARK  8 active torsions:
REMARK  status: ('A' for Active; 'I' for Inactive)
REMARK    1  A    between atoms: C_3  and  N_7 
REMARK    2  A    between atoms: C_6  and  S_10 
REMARK    3  A    between atoms: C_11  and  S_10 
REMARK    4  A    between atoms: C_12  and  O_17 
REMARK    5  A    between atoms: C_13  and  O_18 
REMARK    6  A    between atoms: C_14  and  O_19 
REMARK    7  A    between atoms: C_15  and  C_16 
REMARK    8  A    between atoms: C_16  and  O_21 
ROOT
HETATM    1  C   UNK N   1      20.998  17.749   4.451  0.00  0.00     0.219 C 
HETATM    2  C   UNK N   1      20.917  19.024   3.581  0.00  0.00     0.188 C 
HETATM    3  C   UNK N   1      19.774  18.867   2.560  0.00  0.00     0.181 C 
HETATM    4  C   UNK N   1      19.944  17.555   1.778  0.00  0.00     0.180 C 
HETATM    5  C   UNK N   1      20.034  16.411   2.803  0.00  0.00     0.178 C 
HETATM    6  O   UNK N   1      21.169  16.610   3.623  0.00  0.00    -0.362 OA
ENDROOT
BRANCH   1   7
HETATM    7  S   UNK N   1      22.429  17.853   5.594  0.00  0.00    -0.095 SA
BRANCH   7   8
HETATM    8  C   UNK N   1      21.761  16.683   6.784  0.00  0.00     0.003 A 
HETATM    9  C   UNK N   1      20.630  17.012   7.541  0.00  0.00     0.021 A 
HETATM   10  C   UNK N   1      20.146  16.127   8.505  0.00  0.00     0.037 A 
HETATM   11  C   UNK N   1      20.776  14.891   8.708  0.00  0.00     0.102 A 
HETATM   12  C   UNK N   1      21.892  14.553   7.926  0.00  0.00     0.037 A 
HETATM   13  C   UNK N   1      22.386  15.448   6.973  0.00  0.00     0.021 A 
BRANCH  11  14
HETATM   14  N   UNK N   1      20.291  14.001   9.705  0.00  0.00    -0.116 N 
HETATM   15  O   UNK N   1      19.147  14.049  10.050  0.00  0.00    -0.532 OA
HETATM   16  O   UNK N   1      21.089  13.101  10.236  0.00  0.00    -0.532 OA
ENDBRANCH  11  14
ENDBRANCH   7   8
ENDBRANCH   1   7
BRANCH   2  17
HETATM   17  O   UNK N   1      22.128  19.216   2.905  0.00  0.00    -0.389 OA
HETATM   18  H   UNK N   1      22.973  19.557   2.574  0.00  0.00     0.210 HD
ENDBRANCH   2  17
BRANCH   3  19
HETATM   19  O   UNK N   1      19.747  19.959   1.688  0.00  0.00    -0.390 OA
HETATM   20  H   UNK N   1      19.388  19.879   0.791  0.00  0.00     0.210 HD
ENDBRANCH   3  19
BRANCH   5  21
HETATM   21  C   UNK N   1      20.141  15.040   2.142  0.00  0.00     0.198 C 
BRANCH  21  22
HETATM   22  O   UNK N   1      18.878  14.500   1.893  0.00  0.00    -0.398 OA
HETATM   23  H   UNK N   1      18.088  14.173   1.434  0.00  0.00     0.209 HD
ENDBRANCH  21  22
ENDBRANCH   5  21
BRANCH   4  24
HETATM   24  O   UNK N   1      18.854  17.364   0.924  0.00  0.00    -0.390 OA
HETATM   25  H   UNK N   1      18.713  17.526  -0.022  0.00  0.00     0.210 HD
ENDBRANCH   4  24
TORSDOF 8
ENDMDL
MODEL 7
REMARK VINA RESULT:      -6.1      6.655      9.346
REMARK  8 active torsions:
REMARK  status: ('A' for Active; 'I' for Inactive)
REMARK    1  A    between atoms: C_3  and  N_7 
REMARK    2  A    between atoms: C_6  and  S_10 
REMARK    3  A    between atoms: C_11  and  S_10 
REMARK    4  A    between atoms: C_12  and  O_17 
REMARK    5  A    between atoms: C_13  and  O_18 
REMARK    6  A    between atoms: C_14  and  O_19 
REMARK    7  A    between atoms: C_15  and  C_16 
REMARK    8  A    between atoms: C_16  and  O_21 
ROOT
HETATM    1  C   UNK N   1      29.328  16.397   5.665  0.00  0.00     0.219 C 
HETATM    2  C   UNK N   1      29.500  17.735   4.910  0.00  0.00     0.188 C 
HETATM    3  C   UNK N   1      28.293  18.643   5.209  0.00  0.00     0.181 C 
HETATM    4  C   UNK N   1      26.984  17.892   4.913  0.00  0.00     0.180 C 
HETATM    5  C   UNK N   1      27.005  16.585   5.723  0.00  0.00     0.178 C 
HETATM    6  O   UNK N   1      28.098  15.793   5.301  0.00  0.00    -0.362 OA
ENDROOT
BRANCH   1   7
HETATM    7  S   UNK N   1      30.688  15.246   5.232  0.00  0.00    -0.095 SA
BRANCH   7   8
HETATM    8  C   UNK N   1      31.919  16.071   6.250  0.00  0.00     0.003 A 
HETATM    9  C   UNK N   1      31.798  16.072   7.645  0.00  0.00     0.021 A 
HETATM   10  C   UNK N   1      32.722  16.760   8.432  0.00  0.00     0.037 A 
HETATM   11  C   UNK N   1      33.791  17.440   7.832  0.00  0.00     0.102 A 
HETATM   12  C   UNK N   1      33.926  17.412   6.435  0.00  0.00     0.037 A 
HETATM   13  C   UNK N   1      32.989  16.736   5.647  0.00  0.00     0.021 A 
BRANCH  11  14
HETATM   14  N   UNK N   1      34.719  18.156   8.637  0.00  0.00    -0.116 N 
HETATM   15  O   UNK N   1      35.017  19.280   8.357  0.00  0.00    -0.532 OA
HETATM   16  O   UNK N   1      35.234  17.598   9.711  0.00  0.00    -0.532 OA
ENDBRANCH  11  14
ENDBRANCH   7   8
ENDBRANCH   1   7
BRANCH   2  17
HETATM   17  O   UNK N   1      29.580  17.498   3.533  0.00  0.00    -0.389 OA
HETATM   18  H   UNK N   1      29.425  17.208   2.621  0.00  0.00     0.210 HD
ENDBRANCH   2  17
BRANCH   3  19
HETATM   19  O   UNK N   1      28.366  19.817   4.454  0.00  0.00    -0.390 OA
HETATM   20  H   UNK N   1      28.159  20.680   4.842  0.00  0.00     0.210 HD
ENDBRANCH   3  19
BRANCH   5  21
HETATM   21  C   UNK N   1      25.721  15.775   5.562  0.00  0.00     0.198 C 
BRANCH  21  22
HETATM   22  O   UNK N   1      24.791  16.101   6.551  0.00  0.00    -0.398 OA
HETATM   23  H   UNK N   1      24.353  16.192   7.412  0.00  0.00     0.209 HD
ENDBRANCH  21  22
ENDBRANCH   5  21
BRANCH   4  24
HETATM   24  O   UNK N   1      25.889  18.679   5.280  0.00  0.00    -0.390 OA
HETATM   25  H   UNK N   1      25.782  19.432   5.882  0.00  0.00     0.210 HD
ENDBRANCH   4  24
TORSDOF 8
ENDMDL
MODEL 8
REMARK VINA RESULT:      -6.0     13.188     16.343
REMARK  8 active torsions:
REMARK  status: ('A' for Active; 'I' for Inactive)
REMARK    1  A    between atoms: C_3  and  N_7 
REMARK    2  A    between atoms: C_6  and  S_10 
REMARK    3  A    between atoms: C_11  and  S_10 
REMARK    4  A    between atoms: C_12  and  O_17 
REMARK    5  A    between atoms: C_13  and  O_18 
REMARK    6  A    between atoms: C_14  and  O_19 
REMARK    7  A    between atoms: C_15  and  C_16 
REMARK    8  A    between atoms: C_16  and  O_21 
ROOT
HETATM    1  C   UNK N   1      21.218  17.863   3.997  0.00  0.00     0.219 C 
HETATM    2  C   UNK N   1      20.349  16.674   3.528  0.00  0.00     0.188 C 
HETATM    3  C   UNK N   1      20.374  16.606   1.990  0.00  0.00     0.181 C 
HETATM    4  C   UNK N   1      19.986  17.970   1.396  0.00  0.00     0.180 C 
HETATM    5  C   UNK N   1      20.934  19.023   1.995  0.00  0.00     0.178 C 
HETATM    6  O   UNK N   1      20.758  19.063   3.398  0.00  0.00    -0.362 OA
ENDROOT
BRANCH   1   7
HETATM    7  S   UNK N   1      21.109  18.047   5.819  0.00  0.00    -0.095 SA
BRANCH   7   8
HETATM    8  C   UNK N   1      22.222  16.682   6.179  0.00  0.00     0.003 A 
HETATM    9  C   UNK N   1      21.831  15.663   7.055  0.00  0.00     0.021 A 
HETATM   10  C   UNK N   1      22.716  14.634   7.378  0.00  0.00     0.037 A 
HETATM   11  C   UNK N   1      23.997  14.601   6.810  0.00  0.00     0.102 A 
HETATM   12  C   UNK N   1      24.374  15.608   5.908  0.00  0.00     0.037 A 
HETATM   13  C   UNK N   1      23.492  16.648   5.599  0.00  0.00     0.021 A 
BRANCH  11  14
HETATM   14  N   UNK N   1      24.902  13.561   7.158  0.00  0.00    -0.116 N 
HETATM   15  O   UNK N   1      25.136  13.325   8.307  0.00  0.00    -0.532 OA
HETATM   16  O   UNK N   1      25.466  12.832   6.220  0.00  0.00    -0.532 OA
ENDBRANCH  11  14
ENDBRANCH   7   8
ENDBRANCH   1   7
BRANCH   2  17
HETATM   17  O   UNK N   1      19.031  16.845   3.969  0.00  0.00    -0.389 OA
HETATM   18  H   UNK N   1      18.102  17.102   4.069  0.00  0.00     0.210 HD
ENDBRANCH   2  17
BRANCH   3  19
HETATM   19  O   UNK N   1      19.509  15.608   1.532  0.00  0.00    -0.390 OA
HETATM   20  H   UNK N   1      18.566  15.784   1.391  0.00  0.00     0.210 HD
ENDBRANCH   3  19
BRANCH   5  21
HETATM   21  C   UNK N   1      20.690  20.420   1.430  0.00  0.00     0.198 C 
BRANCH  21  22
HETATM   22  O   UNK N   1      21.049  20.490   0.083  0.00  0.00    -0.398 OA
HETATM   23  H   UNK N   1      21.011  20.629  -0.876  0.00  0.00     0.209 HD
ENDBRANCH  21  22
ENDBRANCH   5  21
BRANCH   4  24
HETATM   24  O   UNK N   1      20.108  17.936   0.004  0.00  0.00    -0.390 OA
HETATM   25  H   UNK N   1      20.812  18.199  -0.609  0.00  0.00     0.210 HD
ENDBRANCH   4  24
TORSDOF 8
ENDMDL
MODEL 9
REMARK VINA RESULT:      -5.9     18.536     21.761
REMARK  8 active torsions:
REMARK  status: ('A' for Active; 'I' for Inactive)
REMARK    1  A    between atoms: C_3  and  N_7 
REMARK    2  A    between atoms: C_6  and  S_10 
REMARK    3  A    between atoms: C_11  and  S_10 
REMARK    4  A    between atoms: C_12  and  O_17 
REMARK    5  A    between atoms: C_13  and  O_18 
REMARK    6  A    between atoms: C_14  and  O_19 
REMARK    7  A    between atoms: C_15  and  C_16 
REMARK    8  A    between atoms: C_16  and  O_21 
ROOT
HETATM    1  C   UNK N   1      31.026  21.204  -5.960  0.00  0.00     0.219 C 
HETATM    2  C   UNK N   1      32.298  20.352  -5.750  0.00  0.00     0.188 C 
HETATM    3  C   UNK N   1      32.455  20.039  -4.250  0.00  0.00     0.181 C 
HETATM    4  C   UNK N   1      32.401  21.341  -3.433  0.00  0.00     0.180 C 
HETATM    5  C   UNK N   1      31.089  22.061  -3.793  0.00  0.00     0.178 C 
HETATM    6  O   UNK N   1      31.097  22.380  -5.170  0.00  0.00    -0.362 OA
ENDROOT
BRANCH   1   7
HETATM    7  S   UNK N   1      30.879  21.698  -7.720  0.00  0.00    -0.095 SA
BRANCH   7   8
HETATM    8  C   UNK N   1      29.083  21.786  -7.707  0.00  0.00     0.003 A 
HETATM    9  C   UNK N   1      28.435  22.938  -7.248  0.00  0.00     0.021 A 
HETATM   10  C   UNK N   1      27.042  22.985  -7.185  0.00  0.00     0.037 A 
HETATM   11  C   UNK N   1      26.280  21.884  -7.600  0.00  0.00     0.102 A 
HETATM   12  C   UNK N   1      26.933  20.741  -8.087  0.00  0.00     0.037 A 
HETATM   13  C   UNK N   1      28.330  20.690  -8.134  0.00  0.00     0.021 A 
BRANCH  11  14
HETATM   14  N   UNK N   1      24.861  21.929  -7.515  0.00  0.00    -0.116 N 
HETATM   15  O   UNK N   1      24.290  21.331  -6.650  0.00  0.00    -0.532 OA
HETATM   16  O   UNK N   1      24.168  22.650  -8.369  0.00  0.00    -0.532 OA
ENDBRANCH  11  14
ENDBRANCH   7   8
ENDBRANCH   1   7
BRANCH   2  17
HETATM   17  O   UNK N   1      33.421  21.054  -6.203  0.00  0.00    -0.389 OA
HETATM   18  H   UNK N   1      34.301  21.314  -6.515  0.00  0.00     0.210 HD
ENDBRANCH   2  17
BRANCH   3  19
HETATM   19  O   UNK N   1      33.655  19.363  -4.015  0.00  0.00    -0.390 OA
HETATM   20  H   UNK N   1      33.964  19.181  -3.115  0.00  0.00     0.210 HD
ENDBRANCH   3  19
BRANCH   5  21
HETATM   21  C   UNK N   1      30.887  23.345  -2.992  0.00  0.00     0.198 C 
BRANCH  21  22
HETATM   22  O   UNK N   1      30.564  23.065  -1.664  0.00  0.00    -0.398 OA
HETATM   23  H   UNK N   1      30.072  22.980  -0.831  0.00  0.00     0.209 HD
ENDBRANCH  21  22
ENDBRANCH   5  21
BRANCH   4  24
HETATM   24  O   UNK N   1      32.440  21.048  -2.067  0.00  0.00    -0.390 OA
HETATM   25  H   UNK N   1      32.228  21.560  -1.270  0.00  0.00     0.210 HD
ENDBRANCH   4  24
TORSDOF 8
ENDMDL
