MODEL 1
REMARK VINA RESULT:      -4.9      0.000      0.000
REMARK  6 active torsions:
REMARK  status: ('A' for Active; 'I' for Inactive)
REMARK    1  A    between atoms: C_2  and  C_3 
REMARK    2  A    between atoms: C_3  and  O_4 
REMARK    3  A    between atoms: C_3  and  C_5 
REMARK    4  A    between atoms: C_5  and  C_7 
REMARK    5  A    between atoms: C_7  and  C_9 
REMARK    6  A    between atoms: P_10  and  O_12 
ROOT
HETATM    1  C   UNK N   1      30.131  22.962  -2.582  0.00  0.00     0.141 C 
HETATM    2  O   UNK N   1      30.388  23.057  -1.389  0.00  0.00    -0.297 OA
ENDROOT
BRANCH   1   3
HETATM    3  C   UNK N   1      29.357  24.053  -3.295  0.00  0.00     0.080 C 
HETATM    4  C   UNK N   1      29.834  24.104  -4.742  0.00  0.00     0.020 C 
BRANCH   3   5
HETATM    5  C   UNK N   1      27.825  23.823  -3.256  0.00  0.00     0.128 C 
BRANCH   5   6
HETATM    6  C   UNK N   1      27.021  25.025  -3.766  0.00  0.00     0.028 C 
HETATM    7  C   UNK N   1      25.918  24.632  -4.734  0.00  0.00     0.007 C 
ENDBRANCH   5   6
BRANCH   5   8
HETATM    8  O   UNK N   1      27.414  23.514  -1.955  0.00  0.00    -0.395 OA
HETATM    9  H   UNK N   1      27.121  22.833  -1.330  0.00  0.00     0.210 HD
ENDBRANCH   5   8
ENDBRANCH   3   5
ENDBRANCH   1   3
BRANCH   1  10
HETATM   10  C   UNK N   1      30.541  21.718  -3.334  0.00  0.00     0.169 A 
HETATM   11  P   UNK N   1      32.385  21.647  -3.633  0.00  0.00     0.096 P 
HETATM   12  O   UNK N   1      32.661  20.215  -4.165  0.00  0.00    -0.675 OA
HETATM   13  H   UNK N   1      31.103  21.013  -3.893  0.00  0.00     0.120 HD
BRANCH  11  14
HETATM   14  O   UNK N   1      32.653  21.165  -1.986  0.00  0.00    -0.351 OA
HETATM   15  H   UNK N   1      32.504  20.318  -1.536  0.00  0.00     0.217 HD
ENDBRANCH  11  14
ENDBRANCH   1  10
TORSDOF 6
ENDMDL
MODEL 2
REMARK VINA RESULT:      -4.9     14.974     16.716
REMARK  6 active torsions:
REMARK  status: ('A' for Active; 'I' for Inactive)
REMARK    1  A    between atoms: C_2  and  C_3 
REMARK    2  A    between atoms: C_3  and  O_4 
REMARK    3  A    between atoms: C_3  and  C_5 
REMARK    4  A    between atoms: C_5  and  C_7 
REMARK    5  A    between atoms: C_7  and  C_9 
REMARK    6  A    between atoms: P_10  and  O_12 
ROOT
HETATM    1  C   UNK N   1      35.058  16.447  10.074  0.00  0.00     0.141 C 
HETATM    2  O   UNK N   1      35.591  17.339  10.720  0.00  0.00    -0.297 OA
ENDROOT
BRANCH   1   3
HETATM    3  C   UNK N   1      34.506  15.216  10.765  0.00  0.00     0.080 C 
HETATM    4  C   UNK N   1      33.614  14.477   9.774  0.00  0.00     0.020 C 
BRANCH   3   5
HETATM    5  C   UNK N   1      35.618  14.267  11.279  0.00  0.00     0.128 C 
BRANCH   5   6
HETATM    6  C   UNK N   1      35.377  13.775  12.711  0.00  0.00     0.028 C 
HETATM    7  C   UNK N   1      36.344  14.380  13.715  0.00  0.00     0.007 C 
ENDBRANCH   5   6
BRANCH   5   8
HETATM    8  O   UNK N   1      36.863  14.901  11.213  0.00  0.00    -0.395 OA
HETATM    9  H   UNK N   1      37.745  15.014  11.600  0.00  0.00     0.210 HD
ENDBRANCH   5   8
ENDBRANCH   3   5
ENDBRANCH   1   3
BRANCH   1  10
HETATM   10  C   UNK N   1      35.005  16.550   8.568  0.00  0.00     0.169 A 
HETATM   11  P   UNK N   1      33.957  17.987   7.992  0.00  0.00     0.096 P 
HETATM   12  O   UNK N   1      34.222  18.104   6.468  0.00  0.00    -0.675 OA
HETATM   13  H   UNK N   1      34.725  16.823   7.582  0.00  0.00     0.120 HD
BRANCH  11  14
HETATM   14  O   UNK N   1      35.236  19.098   8.375  0.00  0.00    -0.351 OA
HETATM   15  H   UNK N   1      35.886  19.541   7.808  0.00  0.00     0.217 HD
ENDBRANCH  11  14
ENDBRANCH   1  10
TORSDOF 6
ENDMDL
MODEL 3
REMARK VINA RESULT:      -4.7     13.130     14.529
REMARK  6 active torsions:
REMARK  status: ('A' for Active; 'I' for Inactive)
REMARK    1  A    between atoms: C_2  and  C_3 
REMARK    2  A    between atoms: C_3  and  O_4 
REMARK    3  A    between atoms: C_3  and  C_5 
REMARK    4  A    between atoms: C_5  and  C_7 
REMARK    5  A    between atoms: C_7  and  C_9 
REMARK    6  A    between atoms: P_10  and  O_12 
ROOT
HETATM    1  C   UNK N   1      34.383  16.636   9.290  0.00  0.00     0.141 C 
HETATM    2  O   UNK N   1      34.865  17.752   9.433  0.00  0.00    -0.297 OA
ENDROOT
BRANCH   1   3
HETATM    3  C   UNK N   1      33.533  16.311   8.078  0.00  0.00     0.080 C 
HETATM    4  C   UNK N   1      32.193  15.774   8.571  0.00  0.00     0.020 C 
BRANCH   3   5
HETATM    5  C   UNK N   1      33.301  17.539   7.162  0.00  0.00     0.128 C 
BRANCH   5   6
HETATM    6  C   UNK N   1      32.319  17.260   6.018  0.00  0.00     0.028 C 
HETATM    7  C   UNK N   1      32.922  17.511   4.646  0.00  0.00     0.007 C 
ENDBRANCH   5   6
BRANCH   5   8
HETATM    8  O   UNK N   1      34.516  17.981   6.628  0.00  0.00    -0.395 OA
HETATM    9  H   UNK N   1      35.342  17.751   6.175  0.00  0.00     0.210 HD
ENDBRANCH   5   8
ENDBRANCH   3   5
ENDBRANCH   1   3
BRANCH   1  10
HETATM   10  C   UNK N   1      34.592  15.595  10.364  0.00  0.00     0.169 A 
HETATM   11  P   UNK N   1      36.239  14.727  10.198  0.00  0.00     0.096 P 
HETATM   12  O   UNK N   1      36.402  13.901  11.502  0.00  0.00    -0.675 OA
HETATM   13  H   UNK N   1      34.978  14.777  10.919  0.00  0.00     0.120 HD
BRANCH  11  14
HETATM   14  O   UNK N   1      37.053  16.101  10.881  0.00  0.00    -0.351 OA
HETATM   15  H   UNK N   1      37.917  16.496  10.681  0.00  0.00     0.217 HD
ENDBRANCH  11  14
ENDBRANCH   1  10
TORSDOF 6
ENDMDL
MODEL 4
REMARK VINA RESULT:      -4.5      1.474      2.772
REMARK  6 active torsions:
REMARK  status: ('A' for Active; 'I' for Inactive)
REMARK    1  A    between atoms: C_2  and  C_3 
REMARK    2  A    between atoms: C_3  and  O_4 
REMARK    3  A    between atoms: C_3  and  C_5 
REMARK    4  A    between atoms: C_5  and  C_7 
REMARK    5  A    between atoms: C_7  and  C_9 
REMARK    6  A    between atoms: P_10  and  O_12 
ROOT
HETATM    1  C   UNK N   1      30.284  22.586  -2.822  0.00  0.00     0.141 C 
HETATM    2  O   UNK N   1      30.550  22.878  -1.664  0.00  0.00    -0.297 OA
ENDROOT
BRANCH   1   3
HETATM    3  C   UNK N   1      29.383  23.476  -3.656  0.00  0.00     0.080 C 
HETATM    4  C   UNK N   1      28.132  23.780  -2.838  0.00  0.00     0.020 C 
BRANCH   3   5
HETATM    5  C   UNK N   1      30.070  24.800  -4.076  0.00  0.00     0.128 C 
BRANCH   5   6
HETATM    6  C   UNK N   1      31.074  24.621  -5.220  0.00  0.00     0.028 C 
HETATM    7  C   UNK N   1      32.465  25.126  -4.873  0.00  0.00     0.007 C 
ENDBRANCH   5   6
BRANCH   5   8
HETATM    8  O   UNK N   1      30.719  25.377  -2.980  0.00  0.00    -0.395 OA
HETATM    9  H   UNK N   1      31.560  25.624  -2.564  0.00  0.00     0.210 HD
ENDBRANCH   5   8
ENDBRANCH   3   5
ENDBRANCH   1   3
BRANCH   1  10
HETATM   10  C   UNK N   1      30.814  21.297  -3.404  0.00  0.00     0.169 A 
HETATM   11  P   UNK N   1      32.661  21.354  -3.686  0.00  0.00     0.096 P 
HETATM   12  O   UNK N   1      33.070  19.896  -4.027  0.00  0.00    -0.675 OA
HETATM   13  H   UNK N   1      31.444  20.579  -3.865  0.00  0.00     0.120 HD
BRANCH  11  14
HETATM   14  O   UNK N   1      32.947  21.116  -1.990  0.00  0.00    -0.351 OA
HETATM   15  H   UNK N   1      33.509  21.600  -1.364  0.00  0.00     0.217 HD
ENDBRANCH  11  14
ENDBRANCH   1  10
TORSDOF 6
ENDMDL
MODEL 5
REMARK VINA RESULT:      -4.4     11.780     12.526
REMARK  6 active torsions:
REMARK  status: ('A' for Active; 'I' for Inactive)
REMARK    1  A    between atoms: C_2  and  C_3 
REMARK    2  A    between atoms: C_3  and  O_4 
REMARK    3  A    between atoms: C_3  and  C_5 
REMARK    4  A    between atoms: C_5  and  C_7 
REMARK    5  A    between atoms: C_7  and  C_9 
REMARK    6  A    between atoms: P_10  and  O_12 
ROOT
HETATM    1  C   UNK N   1      31.549  17.204   7.947  0.00  0.00     0.141 C 
HETATM    2  O   UNK N   1      31.435  16.191   8.625  0.00  0.00    -0.297 OA
ENDROOT
BRANCH   1   3
HETATM    3  C   UNK N   1      30.782  17.354   6.648  0.00  0.00     0.080 C 
HETATM    4  C   UNK N   1      30.985  16.084   5.830  0.00  0.00     0.020 C 
BRANCH   3   5
HETATM    5  C   UNK N   1      29.268  17.598   6.871  0.00  0.00     0.128 C 
BRANCH   5   6
HETATM    6  C   UNK N   1      28.977  18.578   8.014  0.00  0.00     0.028 C 
HETATM    7  C   UNK N   1      28.152  17.959   9.130  0.00  0.00     0.007 C 
ENDBRANCH   5   6
BRANCH   5   8
HETATM    8  O   UNK N   1      28.615  16.388   7.126  0.00  0.00    -0.395 OA
HETATM    9  H   UNK N   1      28.648  15.513   7.543  0.00  0.00     0.210 HD
ENDBRANCH   5   8
ENDBRANCH   3   5
ENDBRANCH   1   3
BRANCH   1  10
HETATM   10  C   UNK N   1      32.510  18.285   8.382  0.00  0.00     0.169 A 
HETATM   11  P   UNK N   1      34.295  17.766   8.190  0.00  0.00     0.096 P 
HETATM   12  O   UNK N   1      35.126  19.056   8.423  0.00  0.00    -0.675 OA
HETATM   13  H   UNK N   1      33.392  18.797   8.673  0.00  0.00     0.120 HD
BRANCH  11  14
HETATM   14  O   UNK N   1      34.211  18.041   6.477  0.00  0.00    -0.351 OA
HETATM   15  H   UNK N   1      34.868  17.908   5.777  0.00  0.00     0.217 HD
ENDBRANCH  11  14
ENDBRANCH   1  10
TORSDOF 6
ENDMDL
MODEL 6
REMARK VINA RESULT:      -4.3     21.029     22.272
REMARK  6 active torsions:
REMARK  status: ('A' for Active; 'I' for Inactive)
REMARK    1  A    between atoms: C_2  and  C_3 
REMARK    2  A    between atoms: C_3  and  O_4 
REMARK    3  A    between atoms: C_3  and  C_5 
REMARK    4  A    between atoms: C_5  and  C_7 
REMARK    5  A    between atoms: C_7  and  C_9 
REMARK    6  A    between atoms: P_10  and  O_12 
ROOT
HETATM    1  C   UNK N   1      35.788  12.839  14.285  0.00  0.00     0.141 C 
HETATM    2  O   UNK N   1      35.208  13.647  13.573  0.00  0.00    -0.297 OA
ENDROOT
BRANCH   1   3
HETATM    3  C   UNK N   1      36.299  13.242  15.654  0.00  0.00     0.080 C 
HETATM    4  C   UNK N   1      36.990  14.595  15.521  0.00  0.00     0.020 C 
BRANCH   3   5
HETATM    5  C   UNK N   1      35.171  13.331  16.713  0.00  0.00     0.128 C 
BRANCH   5   6
HETATM    6  C   UNK N   1      35.243  12.219  17.766  0.00  0.00     0.028 C 
HETATM    7  C   UNK N   1      35.246  12.751  19.189  0.00  0.00     0.007 C 
ENDBRANCH   5   6
BRANCH   5   8
HETATM    8  O   UNK N   1      33.919  13.294  16.090  0.00  0.00    -0.395 OA
HETATM    9  H   UNK N   1      32.985  13.039  16.145  0.00  0.00     0.210 HD
ENDBRANCH   5   8
ENDBRANCH   3   5
ENDBRANCH   1   3
BRANCH   1  10
HETATM   10  C   UNK N   1      36.048  11.444  13.767  0.00  0.00     0.169 A 
HETATM   11  P   UNK N   1      34.505  10.389  13.770  0.00  0.00     0.096 P 
HETATM   12  O   UNK N   1      34.881   9.108  12.978  0.00  0.00    -0.675 OA
HETATM   13  H   UNK N   1      35.939  10.415  13.534  0.00  0.00     0.120 HD
BRANCH  11  14
HETATM   14  O   UNK N   1      33.930  11.192  12.341  0.00  0.00    -0.351 OA
HETATM   15  H   UNK N   1      34.336  11.878  11.788  0.00  0.00     0.217 HD
ENDBRANCH  11  14
ENDBRANCH   1  10
TORSDOF 6
ENDMDL
MODEL 7
REMARK VINA RESULT:      -4.2     18.829     20.406
REMARK  6 active torsions:
REMARK  status: ('A' for Active; 'I' for Inactive)
REMARK    1  A    between atoms: C_2  and  C_3 
REMARK    2  A    between atoms: C_3  and  O_4 
REMARK    3  A    between atoms: C_3  and  C_5 
REMARK    4  A    between atoms: C_5  and  C_7 
REMARK    5  A    between atoms: C_7  and  C_9 
REMARK    6  A    between atoms: P_10  and  O_12 
ROOT
HETATM    1  C   UNK N   1      36.149  13.897  13.091  0.00  0.00     0.141 C 
HETATM    2  O   UNK N   1      36.413  14.933  13.687  0.00  0.00    -0.297 OA
ENDROOT
BRANCH   1   3
HETATM    3  C   UNK N   1      35.139  12.918  13.655  0.00  0.00     0.080 C 
HETATM    4  C   UNK N   1      35.071  11.717  12.719  0.00  0.00     0.020 C 
BRANCH   3   5
HETATM    5  C   UNK N   1      35.495  12.448  15.088  0.00  0.00     0.128 C 
BRANCH   5   6
HETATM    6  C   UNK N   1      34.536  12.986  16.156  0.00  0.00     0.028 C 
HETATM    7  C   UNK N   1      35.254  13.498  17.393  0.00  0.00     0.007 C 
ENDBRANCH   5   6
BRANCH   5   8
HETATM    8  O   UNK N   1      36.802  12.826  15.411  0.00  0.00    -0.395 OA
HETATM    9  H   UNK N   1      37.542  13.432  15.248  0.00  0.00     0.210 HD
ENDBRANCH   5   8
ENDBRANCH   3   5
ENDBRANCH   1   3
BRANCH   1  10
HETATM   10  C   UNK N   1      36.883  13.567  11.813  0.00  0.00     0.169 A 
HETATM   11  P   UNK N   1      36.243  14.547  10.356  0.00  0.00     0.096 P 
HETATM   12  O   UNK N   1      37.257  14.290   9.210  0.00  0.00    -0.675 OA
HETATM   13  H   UNK N   1      37.148  13.495  10.789  0.00  0.00     0.120 HD
BRANCH  11  14
HETATM   14  O   UNK N   1      37.103  15.955  10.899  0.00  0.00    -0.351 OA
HETATM   15  H   UNK N   1      37.713  16.082  11.643  0.00  0.00     0.217 HD
ENDBRANCH  11  14
ENDBRANCH   1  10
TORSDOF 6
ENDMDL
MODEL 8
REMARK VINA RESULT:      -4.2      2.405      3.586
REMARK  6 active torsions:
REMARK  status: ('A' for Active; 'I' for Inactive)
REMARK    1  A    between atoms: C_2  and  C_3 
REMARK    2  A    between atoms: C_3  and  O_4 
REMARK    3  A    between atoms: C_3  and  C_5 
REMARK    4  A    between atoms: C_5  and  C_7 
REMARK    5  A    between atoms: C_7  and  C_9 
REMARK    6  A    between atoms: P_10  and  O_12 
ROOT
HETATM    1  C   UNK N   1      27.332  24.200  -3.399  0.00  0.00     0.141 C 
HETATM    2  O   UNK N   1      27.220  23.725  -2.277  0.00  0.00    -0.297 OA
ENDROOT
BRANCH   1   3
HETATM    3  C   UNK N   1      26.246  25.088  -3.974  0.00  0.00     0.080 C 
HETATM    4  C   UNK N   1      26.588  26.534  -3.635  0.00  0.00     0.020 C 
BRANCH   3   5
HETATM    5  C   UNK N   1      26.093  24.931  -5.508  0.00  0.00     0.128 C 
BRANCH   5   6
HETATM    6  C   UNK N   1      25.491  26.168  -6.184  0.00  0.00     0.028 C 
HETATM    7  C   UNK N   1      25.945  26.336  -7.625  0.00  0.00     0.007 C 
ENDBRANCH   5   6
BRANCH   5   8
HETATM    8  O   UNK N   1      25.305  23.815  -5.805  0.00  0.00    -0.395 OA
HETATM    9  H   UNK N   1      24.961  22.956  -5.514  0.00  0.00     0.210 HD
ENDBRANCH   5   8
ENDBRANCH   3   5
ENDBRANCH   1   3
BRANCH   1  10
HETATM   10  C   UNK N   1      28.538  23.850  -4.238  0.00  0.00     0.169 A 
HETATM   11  P   UNK N   1      30.063  24.799  -3.717  0.00  0.00     0.096 P 
HETATM   12  O   UNK N   1      31.239  24.139  -4.484  0.00  0.00    -0.675 OA
HETATM   13  H   UNK N   1      29.501  23.870  -4.684  0.00  0.00     0.120 HD
BRANCH  11  14
HETATM   14  O   UNK N   1      30.271  23.750  -2.348  0.00  0.00    -0.351 OA
HETATM   15  H   UNK N   1      30.461  22.800  -2.296  0.00  0.00     0.217 HD
ENDBRANCH  11  14
ENDBRANCH   1  10
TORSDOF 6
ENDMDL
MODEL 9
REMARK VINA RESULT:      -4.2     11.313     12.775
REMARK  6 active torsions:
REMARK  status: ('A' for Active; 'I' for Inactive)
REMARK    1  A    between atoms: C_2  and  C_3 
REMARK    2  A    between atoms: C_3  and  O_4 
REMARK    3  A    between atoms: C_3  and  C_5 
REMARK    4  A    between atoms: C_5  and  C_7 
REMARK    5  A    between atoms: C_7  and  C_9 
REMARK    6  A    between atoms: P_10  and  O_12 
ROOT
HETATM    1  C   UNK N   1      33.420  15.573   7.141  0.00  0.00     0.141 C 
HETATM    2  O   UNK N   1      33.161  14.845   8.090  0.00  0.00    -0.297 OA
ENDROOT
BRANCH   1   3
HETATM    3  C   UNK N   1      32.686  15.415   5.824  0.00  0.00     0.080 C 
HETATM    4  C   UNK N   1      32.527  13.924   5.547  0.00  0.00     0.020 C 
BRANCH   3   5
HETATM    5  C   UNK N   1      31.296  16.099   5.827  0.00  0.00     0.128 C 
BRANCH   5   6
HETATM    6  C   UNK N   1      31.225  17.325   4.909  0.00  0.00     0.028 C 
HETATM    7  C   UNK N   1      32.545  17.625   4.218  0.00  0.00     0.007 C 
ENDBRANCH   5   6
BRANCH   5   8
HETATM    8  O   UNK N   1      30.945  16.477   7.127  0.00  0.00    -0.395 OA
HETATM    9  H   UNK N   1      30.251  16.540   7.801  0.00  0.00     0.210 HD
ENDBRANCH   5   8
ENDBRANCH   3   5
ENDBRANCH   1   3
BRANCH   1  10
HETATM   10  C   UNK N   1      34.522  16.597   7.269  0.00  0.00     0.169 A 
HETATM   11  P   UNK N   1      33.937  18.166   8.100  0.00  0.00     0.096 P 
HETATM   12  O   UNK N   1      35.224  18.985   8.386  0.00  0.00    -0.675 OA
HETATM   13  H   UNK N   1      35.044  17.507   7.426  0.00  0.00     0.120 HD
BRANCH  11  14
HETATM   14  O   UNK N   1      33.998  17.390   9.652  0.00  0.00    -0.351 OA
HETATM   15  H   UNK N   1      34.683  17.390  10.339  0.00  0.00     0.217 HD
ENDBRANCH  11  14
ENDBRANCH   1  10
TORSDOF 6
ENDMDL
