MODEL 1
REMARK VINA RESULT:      -6.4      0.000      0.000
REMARK  7 active torsions:
REMARK  status: ('A' for Active; 'I' for Inactive)
REMARK    1  A    between atoms: P_1  and  O_2 
REMARK    2  A    between atoms: P_1  and  O_3 
REMARK    3  A    between atoms: P_1  and  O_5 
REMARK    4  A    between atoms: O_5  and  C_6 
REMARK    5  A    between atoms: C_7  and  C_6 
REMARK    6  A    between atoms: C_9  and  O_10 
REMARK    7  A    between atoms: C_12  and  N_13 
ROOT
HETATM    1  C   UNK N   1      35.032  12.501  11.467  0.00  0.00     0.177 C 
HETATM    2  O   UNK N   1      34.762  13.873  11.272  0.00  0.00    -0.356 OA
HETATM    3  C   UNK N   1      36.361  12.175  10.784  0.00  0.00     0.153 C 
HETATM    4  C   UNK N   1      36.305  13.154   9.648  0.00  0.00     0.088 C 
HETATM    5  C   UNK N   1      35.753  14.360  10.395  0.00  0.00     0.235 C 
ENDROOT
BRANCH   5   6
HETATM    6  N   UNK N   1      35.268  15.427   9.493  0.00  0.00    -0.282 N 
HETATM    7  C   UNK N   1      35.077  16.746   9.890  0.00  0.00     0.331 A 
HETATM    8  O   UNK N   1      35.253  17.091  11.044  0.00  0.00    -0.246 OA
HETATM    9  N   UNK N   1      34.701  17.689   8.968  0.00  0.00    -0.275 N 
HETATM   10  C   UNK N   1      34.509  17.360   7.658  0.00  0.00     0.256 A 
HETATM   11  H   UNK N   1      34.567  18.621   9.257  0.00  0.00     0.173 HD
HETATM   12  O   UNK N   1      34.190  18.224   6.858  0.00  0.00    -0.267 OA
HETATM   13  C   UNK N   1      34.686  16.040   7.245  0.00  0.00     0.022 A 
HETATM   14  C   UNK N   1      34.490  15.633   5.824  0.00  0.00     0.056 C 
HETATM   15  C   UNK N   1      35.068  15.089   8.187  0.00  0.00     0.110 A 
ENDBRANCH   5   6
BRANCH   1  16
HETATM   16  C   UNK N   1      34.994  12.226  12.972  0.00  0.00     0.213 C 
BRANCH  16  17
HETATM   17  O   UNK N   1      35.218  13.354  13.779  0.00  0.00    -0.311 OA
BRANCH  17  18
HETATM   18  P   UNK N   1      36.661  13.064  14.719  0.00  0.00     0.324 P 
HETATM   19  S   UNK N   1      35.583  13.428  16.080  0.00  0.00    -0.008 SA
BRANCH  18  20
HETATM   20  O   UNK N   1      37.520  14.351  15.503  0.00  0.00    -0.324 OA
HETATM   21  H   UNK N   1      38.406  14.611  15.206  0.00  0.00     0.220 HD
ENDBRANCH  18  20
BRANCH  18  22
HETATM   22  O   UNK N   1      36.774  14.500  13.748  0.00  0.00    -0.324 OA
HETATM   23  H   UNK N   1      37.614  14.738  13.326  0.00  0.00     0.220 HD
ENDBRANCH  18  22
ENDBRANCH  17  18
ENDBRANCH  16  17
ENDBRANCH   1  16
BRANCH   3  24
HETATM   24  O   UNK N   1      37.450  12.494  11.604  0.00  0.00    -0.393 OA
HETATM   25  H   UNK N   1      37.854  13.031  12.304  0.00  0.00     0.210 HD
ENDBRANCH   3  24
TORSDOF 7
ENDMDL
MODEL 2
REMARK VINA RESULT:      -6.3     17.671     20.580
REMARK  7 active torsions:
REMARK  status: ('A' for Active; 'I' for Inactive)
REMARK    1  A    between atoms: P_1  and  O_2 
REMARK    2  A    between atoms: P_1  and  O_3 
REMARK    3  A    between atoms: P_1  and  O_5 
REMARK    4  A    between atoms: O_5  and  C_6 
REMARK    5  A    between atoms: C_7  and  C_6 
REMARK    6  A    between atoms: C_9  and  O_10 
REMARK    7  A    between atoms: C_12  and  N_13 
ROOT
HETATM    1  C   UNK N   1      28.450  25.039  -3.986  0.00  0.00     0.177 C 
HETATM    2  O   UNK N   1      28.291  24.382  -5.224  0.00  0.00    -0.356 OA
HETATM    3  C   UNK N   1      27.138  24.918  -3.209  0.00  0.00     0.153 C 
HETATM    4  C   UNK N   1      26.169  24.911  -4.354  0.00  0.00     0.088 C 
HETATM    5  C   UNK N   1      26.934  24.008  -5.312  0.00  0.00     0.235 C 
ENDROOT
BRANCH   5   6
HETATM    6  N   UNK N   1      26.402  24.044  -6.692  0.00  0.00    -0.282 N 
HETATM    7  C   UNK N   1      25.432  23.168  -7.168  0.00  0.00     0.331 A 
HETATM    8  O   UNK N   1      24.998  22.267  -6.475  0.00  0.00    -0.246 OA
HETATM    9  N   UNK N   1      24.936  23.324  -8.437  0.00  0.00    -0.275 N 
HETATM   10  C   UNK N   1      25.375  24.329  -9.250  0.00  0.00     0.256 A 
HETATM   11  H   UNK N   1      24.251  22.699  -8.768  0.00  0.00     0.173 HD
HETATM   12  O   UNK N   1      24.904  24.451 -10.368  0.00  0.00    -0.267 OA
HETATM   13  C   UNK N   1      26.354  25.209  -8.791  0.00  0.00     0.022 A 
HETATM   14  C   UNK N   1      26.863  26.323  -9.641  0.00  0.00     0.056 C 
HETATM   15  C   UNK N   1      26.851  25.045  -7.502  0.00  0.00     0.110 A 
ENDBRANCH   5   6
BRANCH   1  16
HETATM   16  C   UNK N   1      29.671  24.434  -3.289  0.00  0.00     0.213 C 
BRANCH  16  17
HETATM   17  O   UNK N   1      29.732  23.030  -3.327  0.00  0.00    -0.311 OA
BRANCH  17  18
HETATM   18  P   UNK N   1      31.415  22.565  -3.326  0.00  0.00     0.324 P 
HETATM   19  S   UNK N   1      30.755  20.999  -3.838  0.00  0.00    -0.008 SA
BRANCH  18  20
HETATM   20  O   UNK N   1      32.073  21.503  -2.121  0.00  0.00    -0.324 OA
HETATM   21  H   UNK N   1      31.959  21.692  -1.177  0.00  0.00     0.220 HD
ENDBRANCH  18  20
BRANCH  18  22
HETATM   22  O   UNK N   1      30.810  22.885  -1.729  0.00  0.00    -0.324 OA
HETATM   23  H   UNK N   1      30.071  23.500  -1.602  0.00  0.00     0.220 HD
ENDBRANCH  18  22
ENDBRANCH  17  18
ENDBRANCH  16  17
ENDBRANCH   1  16
BRANCH   3  24
HETATM   24  O   UNK N   1      27.052  23.694  -2.536  0.00  0.00    -0.393 OA
HETATM   25  H   UNK N   1      27.409  22.816  -2.325  0.00  0.00     0.210 HD
ENDBRANCH   3  24
TORSDOF 7
ENDMDL
MODEL 3
REMARK VINA RESULT:      -6.3      4.096      5.492
REMARK  7 active torsions:
REMARK  status: ('A' for Active; 'I' for Inactive)
REMARK    1  A    between atoms: P_1  and  O_2 
REMARK    2  A    between atoms: P_1  and  O_3 
REMARK    3  A    between atoms: P_1  and  O_5 
REMARK    4  A    between atoms: O_5  and  C_6 
REMARK    5  A    between atoms: C_7  and  C_6 
REMARK    6  A    between atoms: C_9  and  O_10 
REMARK    7  A    between atoms: C_12  and  N_13 
ROOT
HETATM    1  C   UNK N   1      34.044  16.194   7.814  0.00  0.00     0.177 C 
HETATM    2  O   UNK N   1      32.645  16.021   7.874  0.00  0.00    -0.356 OA
HETATM    3  C   UNK N   1      34.391  17.519   8.494  0.00  0.00     0.153 C 
HETATM    4  C   UNK N   1      33.153  18.300   8.167  0.00  0.00     0.088 C 
HETATM    5  C   UNK N   1      32.112  17.214   8.405  0.00  0.00     0.235 C 
ENDROOT
BRANCH   5   6
HETATM    6  N   UNK N   1      30.782  17.558   7.858  0.00  0.00    -0.282 N 
HETATM    7  C   UNK N   1      29.823  18.281   8.560  0.00  0.00     0.331 A 
HETATM    8  O   UNK N   1      30.012  18.633   9.710  0.00  0.00    -0.246 OA
HETATM    9  N   UNK N   1      28.645  18.627   7.948  0.00  0.00    -0.275 N 
HETATM   10  C   UNK N   1      28.390  18.274   6.654  0.00  0.00     0.256 A 
HETATM   11  H   UNK N   1      27.970  19.137   8.452  0.00  0.00     0.173 HD
HETATM   12  O   UNK N   1      27.340  18.608   6.133  0.00  0.00    -0.267 OA
HETATM   13  C   UNK N   1      29.336  17.539   5.941  0.00  0.00     0.022 A 
HETATM   14  C   UNK N   1      29.104  17.133   4.525  0.00  0.00     0.056 C 
HETATM   15  C   UNK N   1      30.529  17.194   6.569  0.00  0.00     0.110 A 
ENDBRANCH   5   6
BRANCH   1  16
HETATM   16  C   UNK N   1      34.696  14.958   8.437  0.00  0.00     0.213 C 
BRANCH  16  17
HETATM   17  O   UNK N   1      33.950  14.358   9.466  0.00  0.00    -0.311 OA
BRANCH  17  18
HETATM   18  P   UNK N   1      34.999  14.165  10.849  0.00  0.00     0.324 P 
HETATM   19  S   UNK N   1      34.745  12.439  10.524  0.00  0.00    -0.008 SA
BRANCH  18  20
HETATM   20  O   UNK N   1      34.404  13.611  12.382  0.00  0.00    -0.324 OA
HETATM   21  H   UNK N   1      33.462  13.422  12.510  0.00  0.00     0.220 HD
ENDBRANCH  18  20
BRANCH  18  22
HETATM   22  O   UNK N   1      33.457  14.846  11.270  0.00  0.00    -0.324 OA
HETATM   23  H   UNK N   1      32.753  14.906  10.606  0.00  0.00     0.220 HD
ENDBRANCH  18  22
ENDBRANCH  17  18
ENDBRANCH  16  17
ENDBRANCH   1  16
BRANCH   3  24
HETATM   24  O   UNK N   1      34.480  17.373   9.884  0.00  0.00    -0.393 OA
HETATM   25  H   UNK N   1      34.814  16.907  10.666  0.00  0.00     0.210 HD
ENDBRANCH   3  24
TORSDOF 7
ENDMDL
MODEL 4
REMARK VINA RESULT:      -6.1      3.857      7.089
REMARK  7 active torsions:
REMARK  status: ('A' for Active; 'I' for Inactive)
REMARK    1  A    between atoms: P_1  and  O_2 
REMARK    2  A    between atoms: P_1  and  O_3 
REMARK    3  A    between atoms: P_1  and  O_5 
REMARK    4  A    between atoms: O_5  and  C_6 
REMARK    5  A    between atoms: C_7  and  C_6 
REMARK    6  A    between atoms: C_9  and  O_10 
REMARK    7  A    between atoms: C_12  and  N_13 
ROOT
HETATM    1  C   UNK N   1      34.581  15.267  10.812  0.00  0.00     0.177 C 
HETATM    2  O   UNK N   1      34.829  13.879  10.770  0.00  0.00    -0.356 OA
HETATM    3  C   UNK N   1      35.710  15.931  11.601  0.00  0.00     0.153 C 
HETATM    4  C   UNK N   1      36.029  14.822  12.561  0.00  0.00     0.088 C 
HETATM    5  C   UNK N   1      35.942  13.641  11.603  0.00  0.00     0.235 C 
ENDROOT
BRANCH   5   6
HETATM    6  N   UNK N   1      35.889  12.336  12.297  0.00  0.00    -0.282 N 
HETATM    7  C   UNK N   1      36.889  11.374  12.208  0.00  0.00     0.331 A 
HETATM    8  O   UNK N   1      37.861  11.535  11.493  0.00  0.00    -0.246 OA
HETATM    9  N   UNK N   1      36.797  10.223  12.950  0.00  0.00    -0.275 N 
HETATM   10  C   UNK N   1      35.739  10.000  13.781  0.00  0.00     0.256 A 
HETATM   11  H   UNK N   1      37.508   9.546  12.880  0.00  0.00     0.173 HD
HETATM   12  O   UNK N   1      35.692   8.974  14.439  0.00  0.00    -0.267 OA
HETATM   13  C   UNK N   1      34.722  10.950  13.874  0.00  0.00     0.022 A 
HETATM   14  C   UNK N   1      33.547  10.752  14.769  0.00  0.00     0.056 C 
HETATM   15  C   UNK N   1      34.823  12.115  13.119  0.00  0.00     0.110 A 
ENDBRANCH   5   6
BRANCH   1  16
HETATM   16  C   UNK N   1      34.425  15.759   9.371  0.00  0.00     0.213 C 
BRANCH  16  17
HETATM   17  O   UNK N   1      34.518  17.152   9.215  0.00  0.00    -0.311 OA
BRANCH  17  18
HETATM   18  P   UNK N   1      33.557  17.603   7.827  0.00  0.00     0.324 P 
HETATM   19  S   UNK N   1      34.089  16.021   7.222  0.00  0.00    -0.008 SA
BRANCH  18  20
HETATM   20  O   UNK N   1      34.281  18.040   6.312  0.00  0.00    -0.324 OA
HETATM   21  H   UNK N   1      33.976  18.820   5.823  0.00  0.00     0.220 HD
ENDBRANCH  18  20
BRANCH  18  22
HETATM   22  O   UNK N   1      34.973  18.592   8.008  0.00  0.00    -0.324 OA
HETATM   23  H   UNK N   1      35.585  18.707   7.265  0.00  0.00     0.220 HD
ENDBRANCH  18  22
ENDBRANCH  17  18
ENDBRANCH  16  17
ENDBRANCH   1  16
BRANCH   3  24
HETATM   24  O   UNK N   1      36.829  16.167  10.794  0.00  0.00    -0.393 OA
HETATM   25  H   UNK N   1      37.773  16.051  10.600  0.00  0.00     0.210 HD
ENDBRANCH   3  24
TORSDOF 7
ENDMDL
MODEL 5
REMARK VINA RESULT:      -6.0     17.154     19.626
REMARK  7 active torsions:
REMARK  status: ('A' for Active; 'I' for Inactive)
REMARK    1  A    between atoms: P_1  and  O_2 
REMARK    2  A    between atoms: P_1  and  O_3 
REMARK    3  A    between atoms: P_1  and  O_5 
REMARK    4  A    between atoms: O_5  and  C_6 
REMARK    5  A    between atoms: C_7  and  C_6 
REMARK    6  A    between atoms: C_9  and  O_10 
REMARK    7  A    between atoms: C_12  and  N_13 
ROOT
HETATM    1  C   UNK N   1      28.282  26.030  -4.561  0.00  0.00     0.177 C 
HETATM    2  O   UNK N   1      29.348  25.264  -4.044  0.00  0.00    -0.356 OA
HETATM    3  C   UNK N   1      26.979  25.272  -4.301  0.00  0.00     0.153 C 
HETATM    4  C   UNK N   1      27.488  23.863  -4.388  0.00  0.00     0.088 C 
HETATM    5  C   UNK N   1      28.798  24.033  -3.630  0.00  0.00     0.235 C 
ENDROOT
BRANCH   5   6
HETATM    6  N   UNK N   1      29.719  22.889  -3.803  0.00  0.00    -0.282 N 
HETATM    7  C   UNK N   1      30.557  22.414  -2.799  0.00  0.00     0.331 A 
HETATM    8  O   UNK N   1      30.617  22.961  -1.714  0.00  0.00    -0.246 OA
HETATM    9  N   UNK N   1      31.320  21.296  -3.020  0.00  0.00    -0.275 N 
HETATM   10  C   UNK N   1      31.277  20.633  -4.212  0.00  0.00     0.256 A 
HETATM   11  H   UNK N   1      31.912  20.967  -2.305  0.00  0.00     0.173 HD
HETATM   12  O   UNK N   1      31.957  19.634  -4.373  0.00  0.00    -0.267 OA
HETATM   13  C   UNK N   1      30.451  21.103  -5.232  0.00  0.00     0.022 A 
HETATM   14  C   UNK N   1      30.367  20.412  -6.551  0.00  0.00     0.056 C 
HETATM   15  C   UNK N   1      29.678  22.237  -5.000  0.00  0.00     0.110 A 
ENDBRANCH   5   6
BRANCH   1  16
HETATM   16  C   UNK N   1      28.356  27.422  -3.929  0.00  0.00     0.213 C 
BRANCH  16  17
HETATM   17  O   UNK N   1      27.275  28.265  -4.239  0.00  0.00    -0.311 OA
BRANCH  17  18
HETATM   18  P   UNK N   1      27.337  29.637  -3.162  0.00  0.00     0.324 P 
HETATM   19  S   UNK N   1      29.078  29.295  -3.181  0.00  0.00    -0.008 SA
BRANCH  18  20
HETATM   20  O   UNK N   1      27.672  29.461  -1.468  0.00  0.00    -0.324 OA
HETATM   21  H   UNK N   1      28.070  28.646  -1.123  0.00  0.00     0.220 HD
ENDBRANCH  18  20
BRANCH  18  22
HETATM   22  O   UNK N   1      26.546  28.265  -2.449  0.00  0.00    -0.324 OA
HETATM   23  H   UNK N   1      25.968  27.702  -2.986  0.00  0.00     0.220 HD
ENDBRANCH  18  22
ENDBRANCH  17  18
ENDBRANCH  16  17
ENDBRANCH   1  16
BRANCH   3  24
HETATM   24  O   UNK N   1      26.502  25.502  -3.006  0.00  0.00    -0.393 OA
HETATM   25  H   UNK N   1      26.053  25.196  -2.202  0.00  0.00     0.210 HD
ENDBRANCH   3  24
TORSDOF 7
ENDMDL
MODEL 6
REMARK VINA RESULT:      -6.0     13.936     14.979
REMARK  7 active torsions:
REMARK  status: ('A' for Active; 'I' for Inactive)
REMARK    1  A    between atoms: P_1  and  O_2 
REMARK    2  A    between atoms: P_1  and  O_3 
REMARK    3  A    between atoms: P_1  and  O_5 
REMARK    4  A    between atoms: O_5  and  C_6 
REMARK    5  A    between atoms: C_7  and  C_6 
REMARK    6  A    between atoms: C_9  and  O_10 
REMARK    7  A    between atoms: C_12  and  N_13 
ROOT
HETATM    1  C   UNK N   1      21.779  14.615   8.647  0.00  0.00     0.177 C 
HETATM    2  O   UNK N   1      21.515  14.556   7.262  0.00  0.00    -0.356 OA
HETATM    3  C   UNK N   1      20.525  15.140   9.349  0.00  0.00     0.153 C 
HETATM    4  C   UNK N   1      19.995  16.040   8.272  0.00  0.00     0.088 C 
HETATM    5  C   UNK N   1      20.252  15.150   7.064  0.00  0.00     0.235 C 
ENDROOT
BRANCH   5   6
HETATM    6  N   UNK N   1      20.136  15.871   5.778  0.00  0.00    -0.282 N 
HETATM    7  C   UNK N   1      19.131  15.631   4.846  0.00  0.00     0.331 A 
HETATM    8  O   UNK N   1      18.305  14.755   5.019  0.00  0.00    -0.246 OA
HETATM    9  N   UNK N   1      19.050  16.402   3.715  0.00  0.00    -0.275 N 
HETATM   10  C   UNK N   1      19.940  17.410   3.481  0.00  0.00     0.256 A 
HETATM   11  H   UNK N   1      18.338  16.225   3.059  0.00  0.00     0.173 HD
HETATM   12  O   UNK N   1      19.834  18.089   2.473  0.00  0.00    -0.267 OA
HETATM   13  C   UNK N   1      20.960  17.657   4.400  0.00  0.00     0.022 A 
HETATM   14  C   UNK N   1      21.954  18.748   4.189  0.00  0.00     0.056 C 
HETATM   15  C   UNK N   1      21.034  16.871   5.546  0.00  0.00     0.110 A 
ENDBRANCH   5   6
BRANCH   1  16
HETATM   16  C   UNK N   1      22.235  13.225   9.096  0.00  0.00     0.213 C 
BRANCH  16  17
HETATM   17  O   UNK N   1      22.405  13.084  10.484  0.00  0.00    -0.311 OA
BRANCH  17  18
HETATM   18  P   UNK N   1      23.588  11.829  10.756  0.00  0.00     0.324 P 
HETATM   19  S   UNK N   1      23.025  11.966  12.433  0.00  0.00    -0.008 SA
BRANCH  18  20
HETATM   20  O   UNK N   1      25.076  12.136  11.595  0.00  0.00    -0.324 OA
HETATM   21  H   UNK N   1      25.930  11.944  11.177  0.00  0.00     0.220 HD
ENDBRANCH  18  20
BRANCH  18  22
HETATM   22  O   UNK N   1      24.313  13.348  10.326  0.00  0.00    -0.324 OA
HETATM   23  H   UNK N   1      25.140  13.368   9.821  0.00  0.00     0.220 HD
ENDBRANCH  18  22
ENDBRANCH  17  18
ENDBRANCH  16  17
ENDBRANCH   1  16
BRANCH   3  24
HETATM   24  O   UNK N   1      19.600  14.116   9.579  0.00  0.00    -0.393 OA
HETATM   25  H   UNK N   1      18.707  13.746   9.491  0.00  0.00     0.210 HD
ENDBRANCH   3  24
TORSDOF 7
ENDMDL
MODEL 7
REMARK VINA RESULT:      -5.9      2.840      3.848
REMARK  7 active torsions:
REMARK  status: ('A' for Active; 'I' for Inactive)
REMARK    1  A    between atoms: P_1  and  O_2 
REMARK    2  A    between atoms: P_1  and  O_3 
REMARK    3  A    between atoms: P_1  and  O_5 
REMARK    4  A    between atoms: O_5  and  C_6 
REMARK    5  A    between atoms: C_7  and  C_6 
REMARK    6  A    between atoms: C_9  and  O_10 
REMARK    7  A    between atoms: C_12  and  N_13 
ROOT
HETATM    1  C   UNK N   1      34.588  15.167   9.741  0.00  0.00     0.177 C 
HETATM    2  O   UNK N   1      33.259  15.335   9.296  0.00  0.00    -0.356 OA
HETATM    3  C   UNK N   1      35.263  16.539   9.758  0.00  0.00     0.153 C 
HETATM    4  C   UNK N   1      34.541  17.187   8.614  0.00  0.00     0.088 C 
HETATM    5  C   UNK N   1      33.133  16.683   8.900  0.00  0.00     0.235 C 
ENDROOT
BRANCH   5   6
HETATM    6  N   UNK N   1      32.206  16.877   7.764  0.00  0.00    -0.282 N 
HETATM    7  C   UNK N   1      30.828  16.998   7.905  0.00  0.00     0.331 A 
HETATM    8  O   UNK N   1      30.291  16.894   8.992  0.00  0.00    -0.246 OA
HETATM    9  N   UNK N   1      30.050  17.258   6.805  0.00  0.00    -0.275 N 
HETATM   10  C   UNK N   1      30.602  17.403   5.566  0.00  0.00     0.256 A 
HETATM   11  H   UNK N   1      29.075  17.341   6.912  0.00  0.00     0.173 HD
HETATM   12  O   UNK N   1      29.886  17.648   4.610  0.00  0.00    -0.267 OA
HETATM   13  C   UNK N   1      31.981  17.274   5.406  0.00  0.00     0.022 A 
HETATM   14  C   UNK N   1      32.631  17.426   4.073  0.00  0.00     0.056 C 
HETATM   15  C   UNK N   1      32.764  17.012   6.527  0.00  0.00     0.110 A 
ENDBRANCH   5   6
BRANCH   1  16
HETATM   16  C   UNK N   1      34.541  14.453  11.095  0.00  0.00     0.213 C 
BRANCH  16  17
HETATM   17  O   UNK N   1      35.729  14.536  11.841  0.00  0.00    -0.311 OA
BRANCH  17  18
HETATM   18  P   UNK N   1      36.117  12.932  12.413  0.00  0.00     0.324 P 
HETATM   19  S   UNK N   1      35.852  13.673  14.003  0.00  0.00    -0.008 SA
BRANCH  18  20
HETATM   20  O   UNK N   1      37.617  12.580  13.211  0.00  0.00    -0.324 OA
HETATM   21  H   UNK N   1      38.463  12.690  12.749  0.00  0.00     0.220 HD
ENDBRANCH  18  20
BRANCH  18  22
HETATM   22  O   UNK N   1      37.479  13.731  11.689  0.00  0.00    -0.324 OA
HETATM   23  H   UNK N   1      38.139  14.173  12.247  0.00  0.00     0.220 HD
ENDBRANCH  18  22
ENDBRANCH  17  18
ENDBRANCH  16  17
ENDBRANCH   1  16
BRANCH   3  24
HETATM   24  O   UNK N   1      34.970  17.240  10.934  0.00  0.00    -0.393 OA
HETATM   25  H   UNK N   1      34.442  17.360  11.739  0.00  0.00     0.210 HD
ENDBRANCH   3  24
TORSDOF 7
ENDMDL
MODEL 8
REMARK VINA RESULT:      -5.7      6.864      8.578
REMARK  7 active torsions:
REMARK  status: ('A' for Active; 'I' for Inactive)
REMARK    1  A    between atoms: P_1  and  O_2 
REMARK    2  A    between atoms: P_1  and  O_3 
REMARK    3  A    between atoms: P_1  and  O_5 
REMARK    4  A    between atoms: O_5  and  C_6 
REMARK    5  A    between atoms: C_7  and  C_6 
REMARK    6  A    between atoms: C_9  and  O_10 
REMARK    7  A    between atoms: C_12  and  N_13 
ROOT
HETATM    1  C   UNK N   1      30.845  17.474   8.564  0.00  0.00     0.177 C 
HETATM    2  O   UNK N   1      29.952  17.278   7.490  0.00  0.00    -0.356 OA
HETATM    3  C   UNK N   1      30.033  17.893   9.790  0.00  0.00     0.153 C 
HETATM    4  C   UNK N   1      28.921  18.637   9.111  0.00  0.00     0.088 C 
HETATM    5  C   UNK N   1      28.682  17.695   7.939  0.00  0.00     0.235 C 
ENDROOT
BRANCH   5   6
HETATM    6  N   UNK N   1      27.850  18.296   6.874  0.00  0.00    -0.282 N 
HETATM    7  C   UNK N   1      27.144  17.553   5.934  0.00  0.00     0.331 A 
HETATM    8  O   UNK N   1      27.218  16.339   5.903  0.00  0.00    -0.246 OA
HETATM    9  N   UNK N   1      26.332  18.189   5.030  0.00  0.00    -0.275 N 
HETATM   10  C   UNK N   1      26.198  19.548   5.033  0.00  0.00     0.256 A 
HETATM   11  H   UNK N   1      25.837  17.657   4.367  0.00  0.00     0.173 HD
HETATM   12  O   UNK N   1      25.457  20.084   4.227  0.00  0.00    -0.267 OA
HETATM   13  C   UNK N   1      26.907  20.308   5.962  0.00  0.00     0.022 A 
HETATM   14  C   UNK N   1      26.792  21.794   6.006  0.00  0.00     0.056 C 
HETATM   15  C   UNK N   1      27.728  19.655   6.876  0.00  0.00     0.110 A 
ENDBRANCH   5   6
BRANCH   1  16
HETATM   16  C   UNK N   1      31.659  16.189   8.737  0.00  0.00     0.213 C 
BRANCH  16  17
HETATM   17  O   UNK N   1      33.044  16.344   8.561  0.00  0.00    -0.311 OA
BRANCH  17  18
HETATM   18  P   UNK N   1      33.331  17.961   7.965  0.00  0.00     0.324 P 
HETATM   19  S   UNK N   1      34.105  17.093   6.624  0.00  0.00    -0.008 SA
BRANCH  18  20
HETATM   20  O   UNK N   1      34.915  18.671   7.963  0.00  0.00    -0.324 OA
HETATM   21  H   UNK N   1      35.199  19.252   8.686  0.00  0.00     0.220 HD
ENDBRANCH  18  20
BRANCH  18  22
HETATM   22  O   UNK N   1      34.239  17.608   9.404  0.00  0.00    -0.324 OA
HETATM   23  H   UNK N   1      34.578  16.713   9.559  0.00  0.00     0.220 HD
ENDBRANCH  18  22
ENDBRANCH  17  18
ENDBRANCH  16  17
ENDBRANCH   1  16
BRANCH   3  24
HETATM   24  O   UNK N   1      29.497  16.784  10.454  0.00  0.00    -0.393 OA
HETATM   25  H   UNK N   1      29.136  16.367  11.253  0.00  0.00     0.210 HD
ENDBRANCH   3  24
TORSDOF 7
ENDMDL
MODEL 9
REMARK VINA RESULT:      -5.6      4.259      7.543
REMARK  7 active torsions:
REMARK  status: ('A' for Active; 'I' for Inactive)
REMARK    1  A    between atoms: P_1  and  O_2 
REMARK    2  A    between atoms: P_1  and  O_3 
REMARK    3  A    between atoms: P_1  and  O_5 
REMARK    4  A    between atoms: O_5  and  C_6 
REMARK    5  A    between atoms: C_7  and  C_6 
REMARK    6  A    between atoms: C_9  and  O_10 
REMARK    7  A    between atoms: C_12  and  N_13 
ROOT
HETATM    1  C   UNK N   1      34.722  14.687  11.774  0.00  0.00     0.177 C 
HETATM    2  O   UNK N   1      34.554  13.458  12.447  0.00  0.00    -0.356 OA
HETATM    3  C   UNK N   1      36.146  15.183  12.034  0.00  0.00     0.153 C 
HETATM    4  C   UNK N   1      36.358  14.623  13.409  0.00  0.00     0.088 C 
HETATM    5  C   UNK N   1      35.719  13.255  13.215  0.00  0.00     0.235 C 
ENDROOT
BRANCH   5   6
HETATM    6  N   UNK N   1      35.468  12.547  14.489  0.00  0.00    -0.282 N 
HETATM    7  C   UNK N   1      35.385  11.163  14.599  0.00  0.00     0.331 A 
HETATM    8  O   UNK N   1      35.462  10.444  13.620  0.00  0.00    -0.246 OA
HETATM    9  N   UNK N   1      35.230  10.584  15.833  0.00  0.00    -0.275 N 
HETATM   10  C   UNK N   1      35.156  11.342  16.966  0.00  0.00     0.256 A 
HETATM   11  H   UNK N   1      35.170   9.604  15.903  0.00  0.00     0.173 HD
HETATM   12  O   UNK N   1      35.033  10.799  18.050  0.00  0.00    -0.267 OA
HETATM   13  C   UNK N   1      35.227  12.732  16.871  0.00  0.00     0.022 A 
HETATM   14  C   UNK N   1      35.153  13.602  18.080  0.00  0.00     0.056 C 
HETATM   15  C   UNK N   1      35.385  13.311  15.615  0.00  0.00     0.110 A 
ENDBRANCH   5   6
BRANCH   1  16
HETATM   16  C   UNK N   1      34.375  14.465  10.300  0.00  0.00     0.213 C 
BRANCH  16  17
HETATM   17  O   UNK N   1      34.836  15.470   9.432  0.00  0.00    -0.311 OA
BRANCH  17  18
HETATM   18  P   UNK N   1      33.442  16.234   8.707  0.00  0.00     0.324 P 
HETATM   19  S   UNK N   1      34.453  16.193   7.249  0.00  0.00    -0.008 SA
BRANCH  18  20
HETATM   20  O   UNK N   1      33.449  17.907   8.246  0.00  0.00    -0.324 OA
HETATM   21  H   UNK N   1      34.124  18.253   7.643  0.00  0.00     0.220 HD
ENDBRANCH  18  20
BRANCH  18  22
HETATM   22  O   UNK N   1      34.239  17.257   9.863  0.00  0.00    -0.324 OA
HETATM   23  H   UNK N   1      34.632  16.876  10.663  0.00  0.00     0.220 HD
ENDBRANCH  18  22
ENDBRANCH  17  18
ENDBRANCH  16  17
ENDBRANCH   1  16
BRANCH   3  24
HETATM   24  O   UNK N   1      37.062  14.590  11.157  0.00  0.00    -0.393 OA
HETATM   25  H   UNK N   1      37.868  14.074  10.996  0.00  0.00     0.210 HD
ENDBRANCH   3  24
TORSDOF 7
ENDMDL
