REMARK  3 active torsions:
REMARK  status: ('A' for Active; 'I' for Inactive)
REMARK    1  A    between atoms: C_6  and  O_7 
REMARK    2  A    between atoms: S_8  and  O_7 
REMARK    3  A    between atoms: C_11  and  S_8 
ROOT
HETATM    1  C   UNK N   1       3.610   0.732   0.130  0.00  0.00     0.000 A 
HETATM    2  C   UNK N   1       3.678  -0.649   0.332  0.00  0.00     0.003 A 
HETATM    3  C   UNK N   1       2.370   1.354  -0.037  0.00  0.00     0.003 A 
HETATM    4  C   UNK N   1       2.504  -1.409   0.366  0.00  0.00     0.038 A 
HETATM    5  C   UNK N   1       1.197   0.593  -0.012  0.00  0.00     0.038 A 
HETATM    6  C   UNK N   1       1.261  -0.795   0.190  0.00  0.00     0.089 A 
ENDROOT
BRANCH   6   7
HETATM    7  O   UNK N   1       0.144  -1.562   0.207  0.00  0.00    -0.230 OA
BRANCH   7   8
HETATM    8  S   UNK N   1      -1.397  -1.002  -0.253  0.00  0.00     0.292 S 
HETATM    9  O   UNK N   1      -1.332  -0.867  -1.782  0.00  0.00    -0.194 OA
HETATM   10  O   UNK N   1      -2.312  -2.225  -0.097  0.00  0.00    -0.194 OA
BRANCH   8  11
HETATM   11  C   UNK N   1      -2.104   0.448   0.526  0.00  0.00     0.129 C 
HETATM   12  C   UNK N   1      -3.409   0.687   0.429  0.00  0.00     0.026 C 
ENDBRANCH   8  11
ENDBRANCH   7   8
ENDBRANCH   6   7
TORSDOF 3
