MODEL 1
REMARK VINA RESULT:      -4.9      0.000      0.000
REMARK  3 active torsions:
REMARK  status: ('A' for Active; 'I' for Inactive)
REMARK    1  A    between atoms: C_6  and  O_7 
REMARK    2  A    between atoms: S_8  and  O_7 
REMARK    3  A    between atoms: C_11  and  S_8 
ROOT
HETATM    1  C   UNK N   1      35.418  11.638  19.041  0.00  0.00     0.000 A 
HETATM    2  C   UNK N   1      35.244  13.011  18.853  0.00  0.00     0.003 A 
HETATM    3  C   UNK N   1      35.325  10.766  17.953  0.00  0.00     0.003 A 
HETATM    4  C   UNK N   1      34.974  13.513  17.575  0.00  0.00     0.038 A 
HETATM    5  C   UNK N   1      35.046  11.266  16.677  0.00  0.00     0.038 A 
HETATM    6  C   UNK N   1      34.870  12.646  16.484  0.00  0.00     0.089 A 
ENDROOT
BRANCH   6   7
HETATM    7  O   UNK N   1      34.587  13.161  15.263  0.00  0.00    -0.230 OA
BRANCH   7   8
HETATM    8  S   UNK N   1      35.729  13.310  14.009  0.00  0.00     0.292 S 
HETATM    9  O   UNK N   1      34.950  13.907  12.828  0.00  0.00    -0.194 OA
HETATM   10  O   UNK N   1      36.604  14.501  14.427  0.00  0.00    -0.194 OA
BRANCH   8  11
HETATM   11  C   UNK N   1      36.728  11.905  13.522  0.00  0.00     0.129 C 
HETATM   12  C   UNK N   1      37.777  11.546  14.256  0.00  0.00     0.026 C 
ENDBRANCH   8  11
ENDBRANCH   7   8
ENDBRANCH   6   7
TORSDOF 3
ENDMDL
MODEL 2
REMARK VINA RESULT:      -4.8      9.038     11.456
REMARK  3 active torsions:
REMARK  status: ('A' for Active; 'I' for Inactive)
REMARK    1  A    between atoms: C_6  and  O_7 
REMARK    2  A    between atoms: S_8  and  O_7 
REMARK    3  A    between atoms: C_11  and  S_8 
ROOT
HETATM    1  C   UNK N   1      32.135  15.515   3.892  0.00  0.00     0.000 A 
HETATM    2  C   UNK N   1      33.148  14.948   4.669  0.00  0.00     0.003 A 
HETATM    3  C   UNK N   1      31.917  16.895   3.926  0.00  0.00     0.003 A 
HETATM    4  C   UNK N   1      33.943  15.761   5.483  0.00  0.00     0.038 A 
HETATM    5  C   UNK N   1      32.706  17.707   4.747  0.00  0.00     0.038 A 
HETATM    6  C   UNK N   1      33.724  17.141   5.530  0.00  0.00     0.089 A 
ENDROOT
BRANCH   6   7
HETATM    7  O   UNK N   1      34.498  17.899   6.345  0.00  0.00    -0.230 OA
BRANCH   7   8
HETATM    8  S   UNK N   1      34.296  17.983   8.034  0.00  0.00     0.292 S 
HETATM    9  O   UNK N   1      35.099  19.218   8.470  0.00  0.00    -0.194 OA
HETATM   10  O   UNK N   1      32.855  18.477   8.224  0.00  0.00    -0.194 OA
BRANCH   8  11
HETATM   11  C   UNK N   1      34.639  16.555   9.060  0.00  0.00     0.129 C 
HETATM   12  C   UNK N   1      33.678  15.670   9.313  0.00  0.00     0.026 C 
ENDBRANCH   8  11
ENDBRANCH   7   8
ENDBRANCH   6   7
TORSDOF 3
ENDMDL
MODEL 3
REMARK VINA RESULT:      -4.7     25.783     27.078
REMARK  3 active torsions:
REMARK  status: ('A' for Active; 'I' for Inactive)
REMARK    1  A    between atoms: C_6  and  O_7 
REMARK    2  A    between atoms: S_8  and  O_7 
REMARK    3  A    between atoms: C_11  and  S_8 
ROOT
HETATM    1  C   UNK N   1      25.367  25.547  -5.641  0.00  0.00     0.000 A 
HETATM    2  C   UNK N   1      24.896  26.857  -5.765  0.00  0.00     0.003 A 
HETATM    3  C   UNK N   1      26.142  25.184  -4.537  0.00  0.00     0.003 A 
HETATM    4  C   UNK N   1      25.202  27.805  -4.783  0.00  0.00     0.038 A 
HETATM    5  C   UNK N   1      26.455  26.134  -3.560  0.00  0.00     0.038 A 
HETATM    6  C   UNK N   1      25.984  27.451  -3.680  0.00  0.00     0.089 A 
ENDROOT
BRANCH   6   7
HETATM    7  O   UNK N   1      26.281  28.398  -2.758  0.00  0.00    -0.230 OA
BRANCH   7   8
HETATM    8  S   UNK N   1      27.285  29.739  -3.064  0.00  0.00     0.292 S 
HETATM    9  O   UNK N   1      26.324  30.923  -3.249  0.00  0.00    -0.194 OA
HETATM   10  O   UNK N   1      27.912  30.069  -1.702  0.00  0.00    -0.194 OA
BRANCH   8  11
HETATM   11  C   UNK N   1      28.525  29.666  -4.355  0.00  0.00     0.129 C 
HETATM   12  C   UNK N   1      28.173  29.824  -5.628  0.00  0.00     0.026 C 
ENDBRANCH   8  11
ENDBRANCH   7   8
ENDBRANCH   6   7
TORSDOF 3
ENDMDL
MODEL 4
REMARK VINA RESULT:      -4.7      9.581     11.736
REMARK  3 active torsions:
REMARK  status: ('A' for Active; 'I' for Inactive)
REMARK    1  A    between atoms: C_6  and  O_7 
REMARK    2  A    between atoms: S_8  and  O_7 
REMARK    3  A    between atoms: C_11  and  S_8 
ROOT
HETATM    1  C   UNK N   1      32.376  16.363   3.206  0.00  0.00     0.000 A 
HETATM    2  C   UNK N   1      32.451  17.593   3.866  0.00  0.00     0.003 A 
HETATM    3  C   UNK N   1      33.089  15.264   3.693  0.00  0.00     0.003 A 
HETATM    4  C   UNK N   1      33.240  17.723   5.014  0.00  0.00     0.038 A 
HETATM    5  C   UNK N   1      33.884  15.397   4.835  0.00  0.00     0.038 A 
HETATM    6  C   UNK N   1      33.962  16.631   5.501  0.00  0.00     0.089 A 
ENDROOT
BRANCH   6   7
HETATM    7  O   UNK N   1      34.734  16.796   6.602  0.00  0.00    -0.230 OA
BRANCH   7   8
HETATM    8  S   UNK N   1      34.223  17.618   8.003  0.00  0.00     0.292 S 
HETATM    9  O   UNK N   1      34.895  16.877   9.168  0.00  0.00    -0.194 OA
HETATM   10  O   UNK N   1      35.014  18.934   7.985  0.00  0.00    -0.194 OA
BRANCH   8  11
HETATM   11  C   UNK N   1      32.480  17.907   8.299  0.00  0.00     0.129 C 
HETATM   12  C   UNK N   1      31.629  16.885   8.322  0.00  0.00     0.026 C 
ENDBRANCH   8  11
ENDBRANCH   7   8
ENDBRANCH   6   7
TORSDOF 3
ENDMDL
MODEL 5
REMARK VINA RESULT:      -4.6     10.391     11.423
REMARK  3 active torsions:
REMARK  status: ('A' for Active; 'I' for Inactive)
REMARK    1  A    between atoms: C_6  and  O_7 
REMARK    2  A    between atoms: S_8  and  O_7 
REMARK    3  A    between atoms: C_11  and  S_8 
ROOT
HETATM    1  C   UNK N   1      29.036  18.446   8.371  0.00  0.00     0.000 A 
HETATM    2  C   UNK N   1      30.255  18.568   9.043  0.00  0.00     0.003 A 
HETATM    3  C   UNK N   1      28.941  17.633   7.238  0.00  0.00     0.003 A 
HETATM    4  C   UNK N   1      31.381  17.877   8.581  0.00  0.00     0.038 A 
HETATM    5  C   UNK N   1      30.068  16.949   6.771  0.00  0.00     0.038 A 
HETATM    6  C   UNK N   1      31.295  17.070   7.444  0.00  0.00     0.089 A 
ENDROOT
BRANCH   6   7
HETATM    7  O   UNK N   1      32.408  16.431   7.010  0.00  0.00    -0.230 OA
BRANCH   7   8
HETATM    8  S   UNK N   1      33.416  17.019   5.769  0.00  0.00     0.292 S 
HETATM    9  O   UNK N   1      34.336  18.041   6.454  0.00  0.00    -0.194 OA
HETATM   10  O   UNK N   1      34.395  15.869   5.493  0.00  0.00    -0.194 OA
BRANCH   8  11
HETATM   11  C   UNK N   1      32.708  17.655   4.252  0.00  0.00     0.129 C 
HETATM   12  C   UNK N   1      32.620  16.873   3.179  0.00  0.00     0.026 C 
ENDBRANCH   8  11
ENDBRANCH   7   8
ENDBRANCH   6   7
TORSDOF 3
ENDMDL
MODEL 6
REMARK VINA RESULT:      -4.6     25.088     26.580
REMARK  3 active torsions:
REMARK  status: ('A' for Active; 'I' for Inactive)
REMARK    1  A    between atoms: C_6  and  O_7 
REMARK    2  A    between atoms: S_8  and  O_7 
REMARK    3  A    between atoms: C_11  and  S_8 
ROOT
HETATM    1  C   UNK N   1      25.323  25.760  -5.560  0.00  0.00     0.000 A 
HETATM    2  C   UNK N   1      26.140  25.291  -4.528  0.00  0.00     0.003 A 
HETATM    3  C   UNK N   1      24.902  27.093  -5.568  0.00  0.00     0.003 A 
HETATM    4  C   UNK N   1      26.536  26.156  -3.502  0.00  0.00     0.038 A 
HETATM    5  C   UNK N   1      25.291  27.955  -4.538  0.00  0.00     0.038 A 
HETATM    6  C   UNK N   1      26.111  27.487  -3.498  0.00  0.00     0.089 A 
ENDROOT
BRANCH   6   7
HETATM    7  O   UNK N   1      26.495  28.293  -2.479  0.00  0.00    -0.230 OA
BRANCH   7   8
HETATM    8  S   UNK N   1      27.667  29.519  -2.631  0.00  0.00     0.292 S 
HETATM    9  O   UNK N   1      28.557  29.077  -3.803  0.00  0.00    -0.194 OA
HETATM   10  O   UNK N   1      26.909  30.700  -3.256  0.00  0.00    -0.194 OA
BRANCH   8  11
HETATM   11  C   UNK N   1      28.626  30.037  -1.209  0.00  0.00     0.129 C 
HETATM   12  C   UNK N   1      28.207  29.745   0.019  0.00  0.00     0.026 C 
ENDBRANCH   8  11
ENDBRANCH   7   8
ENDBRANCH   6   7
TORSDOF 3
ENDMDL
MODEL 7
REMARK VINA RESULT:      -4.5     14.437     15.366
REMARK  3 active torsions:
REMARK  status: ('A' for Active; 'I' for Inactive)
REMARK    1  A    between atoms: C_6  and  O_7 
REMARK    2  A    between atoms: S_8  and  O_7 
REMARK    3  A    between atoms: C_11  and  S_8 
ROOT
HETATM    1  C   UNK N   1      24.184  12.054  11.644  0.00  0.00     0.000 A 
HETATM    2  C   UNK N   1      24.668  12.241  10.346  0.00  0.00     0.003 A 
HETATM    3  C   UNK N   1      22.808  12.003  11.877  0.00  0.00     0.003 A 
HETATM    4  C   UNK N   1      23.773  12.377   9.280  0.00  0.00     0.038 A 
HETATM    5  C   UNK N   1      21.913  12.148  10.812  0.00  0.00     0.038 A 
HETATM    6  C   UNK N   1      22.394  12.336   9.507  0.00  0.00     0.089 A 
ENDROOT
BRANCH   6   7
HETATM    7  O   UNK N   1      21.553  12.493   8.456  0.00  0.00    -0.230 OA
BRANCH   7   8
HETATM    8  S   UNK N   1      21.017  14.006   7.889  0.00  0.00     0.292 S 
HETATM    9  O   UNK N   1      22.198  14.573   7.086  0.00  0.00    -0.194 OA
HETATM   10  O   UNK N   1      20.026  13.666   6.766  0.00  0.00    -0.194 OA
BRANCH   8  11
HETATM   11  C   UNK N   1      20.331  15.208   9.025  0.00  0.00     0.129 C 
HETATM   12  C   UNK N   1      20.228  16.485   8.664  0.00  0.00     0.026 C 
ENDBRANCH   8  11
ENDBRANCH   7   8
ENDBRANCH   6   7
TORSDOF 3
ENDMDL
MODEL 8
REMARK VINA RESULT:      -4.4     25.619     27.355
REMARK  3 active torsions:
REMARK  status: ('A' for Active; 'I' for Inactive)
REMARK    1  A    between atoms: C_6  and  O_7 
REMARK    2  A    between atoms: S_8  and  O_7 
REMARK    3  A    between atoms: C_11  and  S_8 
ROOT
HETATM    1  C   UNK N   1      27.198  29.649  -4.817  0.00  0.00     0.000 A 
HETATM    2  C   UNK N   1      26.121  29.002  -4.207  0.00  0.00     0.003 A 
HETATM    3  C   UNK N   1      27.749  29.132  -5.992  0.00  0.00     0.003 A 
HETATM    4  C   UNK N   1      25.595  27.835  -4.772  0.00  0.00     0.038 A 
HETATM    5  C   UNK N   1      27.230  27.961  -6.552  0.00  0.00     0.038 A 
HETATM    6  C   UNK N   1      26.148  27.307  -5.942  0.00  0.00     0.089 A 
ENDROOT
BRANCH   6   7
HETATM    7  O   UNK N   1      25.629  26.164  -6.453  0.00  0.00    -0.230 OA
BRANCH   7   8
HETATM    8  S   UNK N   1      26.090  24.605  -5.945  0.00  0.00     0.292 S 
HETATM    9  O   UNK N   1      25.187  23.646  -6.735  0.00  0.00    -0.194 OA
HETATM   10  O   UNK N   1      27.448  24.367  -6.623  0.00  0.00    -0.194 OA
BRANCH   8  11
HETATM   11  C   UNK N   1      26.149  24.200  -4.201  0.00  0.00     0.129 C 
HETATM   12  C   UNK N   1      27.107  24.709  -3.431  0.00  0.00     0.026 C 
ENDBRANCH   8  11
ENDBRANCH   7   8
ENDBRANCH   6   7
TORSDOF 3
ENDMDL
MODEL 9
REMARK VINA RESULT:      -4.4     15.406     16.319
REMARK  3 active torsions:
REMARK  status: ('A' for Active; 'I' for Inactive)
REMARK    1  A    between atoms: C_6  and  O_7 
REMARK    2  A    between atoms: S_8  and  O_7 
REMARK    3  A    between atoms: C_11  and  S_8 
ROOT
HETATM    1  C   UNK N   1      22.984  11.726  10.870  0.00  0.00     0.000 A 
HETATM    2  C   UNK N   1      21.789  12.359  11.223  0.00  0.00     0.003 A 
HETATM    3  C   UNK N   1      23.359  11.639   9.526  0.00  0.00     0.003 A 
HETATM    4  C   UNK N   1      20.968  12.905  10.231  0.00  0.00     0.038 A 
HETATM    5  C   UNK N   1      22.533  12.177   8.534  0.00  0.00     0.038 A 
HETATM    6  C   UNK N   1      21.331  12.813   8.885  0.00  0.00     0.089 A 
ENDROOT
BRANCH   6   7
HETATM    7  O   UNK N   1      20.504  13.334   7.947  0.00  0.00    -0.230 OA
BRANCH   7   8
HETATM    8  S   UNK N   1      20.570  14.950   7.416  0.00  0.00     0.292 S 
HETATM    9  O   UNK N   1      21.805  15.021   6.505  0.00  0.00    -0.194 OA
HETATM   10  O   UNK N   1      19.432  15.065   6.392  0.00  0.00    -0.194 OA
BRANCH   8  11
HETATM   11  C   UNK N   1      20.523  16.295   8.599  0.00  0.00     0.129 C 
HETATM   12  C   UNK N   1      19.381  16.934   8.836  0.00  0.00     0.026 C 
ENDBRANCH   8  11
ENDBRANCH   7   8
ENDBRANCH   6   7
TORSDOF 3
ENDMDL
