MODEL 1
REMARK VINA RESULT:      -6.6      0.000      0.000
REMARK  8 active torsions:
REMARK  status: ('A' for Active; 'I' for Inactive)
REMARK       I    between atoms: C_1  and  N_3 
REMARK    1  A    between atoms: C_16  and  C_1 
REMARK    2  A    between atoms: C_5  and  C_6 
REMARK    3  A    between atoms: C_6  and  O_21 
REMARK    4  A    between atoms: C_8  and  C_9 
REMARK    5  A    between atoms: C_14  and  O_15 
REMARK    6  A    between atoms: O_15  and  P_17 
REMARK    7  A    between atoms: P_17  and  O_19 
REMARK    8  A    between atoms: P_17  and  O_20 
ROOT
HETATM    1  C   UNK N   1      25.331  19.560   3.795  0.00  0.00    -0.052 A 
HETATM    2  C   UNK N   1      24.702  20.475   2.937  0.00  0.00     0.010 A 
HETATM    3  C   UNK N   1      24.554  18.597   4.447  0.00  0.00     0.010 A 
HETATM    4  C   UNK N   1      23.315  20.451   2.772  0.00  0.00     0.038 A 
HETATM    5  C   UNK N   1      23.172  18.550   4.259  0.00  0.00     0.038 A 
HETATM    6  C   UNK N   1      22.539  19.497   3.452  0.00  0.00     0.081 A 
ENDROOT
BRANCH   1   7
HETATM    7  C   UNK N   1      26.802  19.735   4.112  0.00  0.00     0.047 A 
HETATM    8  C   UNK N   1      27.219  18.426   4.826  0.00  0.00     0.106 A 
HETATM    9  C   UNK N   1      27.661  19.748   5.399  0.00  0.00     0.102 A 
BRANCH   8  10
HETATM   10  C   UNK N   1      28.190  17.657   3.973  0.00  0.00     0.145 C 
HETATM   11  O   UNK N   1      27.791  16.778   3.227  0.00  0.00    -0.650 OA
BRANCH  10  12
HETATM   12  O   UNK N   1      29.505  17.945   4.023  0.00  0.00    -0.776 OA
HETATM   13  H   UNK N   1      30.136  17.368   3.641  0.00  0.00     0.167 HD
ENDBRANCH  10  12
ENDBRANCH   8  10
BRANCH   9  14
HETATM   14  C   UNK N   1      26.983  20.377   6.604  0.00  0.00     0.223 C 
HETATM   15  O   UNK N   1      26.241  21.335   6.473  0.00  0.00    -0.273 OA
HETATM   16  N   UNK N   1      27.245  19.932   7.856  0.00  0.00    -0.365 N 
HETATM   17  C   UNK N   1      28.131  18.826   8.114  0.00  0.00     0.149 C 
HETATM   18  H   UNK N   1      26.813  20.380   8.618  0.00  0.00     0.161 HD
ENDBRANCH   9  14
ENDBRANCH   1   7
BRANCH   6  19
HETATM   19  O   UNK N   1      21.186  19.519   3.417  0.00  0.00    -0.255 OA
BRANCH  19  20
HETATM   20  P   UNK N   1      20.269  18.726   2.195  0.00  0.00     0.396 P 
HETATM   21  O   UNK N   1      20.714  17.240   2.137  0.00  0.00    -0.631 OA
BRANCH  20  22
HETATM   22  O   UNK N   1      18.573  18.770   2.556  0.00  0.00    -0.307 OA
HETATM   23  H   UNK N   1      17.921  18.867   1.844  0.00  0.00     0.222 HD
ENDBRANCH  20  22
BRANCH  20  24
HETATM   24  O   UNK N   1      20.594  19.439   0.645  0.00  0.00    -0.307 OA
HETATM   25  H   UNK N   1      20.946  19.520  -0.255  0.00  0.00     0.222 HD
ENDBRANCH  20  24
ENDBRANCH  19  20
ENDBRANCH   6  19
TORSDOF 8
ENDMDL
MODEL 2
REMARK VINA RESULT:      -6.6     10.479     12.943
REMARK  8 active torsions:
REMARK  status: ('A' for Active; 'I' for Inactive)
REMARK       I    between atoms: C_1  and  N_3 
REMARK    1  A    between atoms: C_16  and  C_1 
REMARK    2  A    between atoms: C_5  and  C_6 
REMARK    3  A    between atoms: C_6  and  O_21 
REMARK    4  A    between atoms: C_8  and  C_9 
REMARK    5  A    between atoms: C_14  and  O_15 
REMARK    6  A    between atoms: O_15  and  P_17 
REMARK    7  A    between atoms: P_17  and  O_19 
REMARK    8  A    between atoms: P_17  and  O_20 
ROOT
HETATM    1  C   UNK N   1      28.472  25.773  -4.476  0.00  0.00    -0.052 A 
HETATM    2  C   UNK N   1      27.976  24.554  -3.988  0.00  0.00     0.010 A 
HETATM    3  C   UNK N   1      29.831  26.065  -4.320  0.00  0.00     0.010 A 
HETATM    4  C   UNK N   1      28.821  23.665  -3.318  0.00  0.00     0.038 A 
HETATM    5  C   UNK N   1      30.684  25.164  -3.679  0.00  0.00     0.038 A 
HETATM    6  C   UNK N   1      30.180  23.979  -3.142  0.00  0.00     0.081 A 
ENDROOT
BRANCH   1   7
HETATM    7  C   UNK N   1      27.500  26.802  -5.016  0.00  0.00     0.047 A 
HETATM    8  C   UNK N   1      26.361  26.871  -3.969  0.00  0.00     0.106 A 
HETATM    9  C   UNK N   1      26.009  26.803  -5.433  0.00  0.00     0.102 A 
BRANCH   8  10
HETATM   10  C   UNK N   1      26.358  28.216  -3.296  0.00  0.00     0.145 C 
HETATM   11  O   UNK N   1      26.929  28.372  -2.230  0.00  0.00    -0.650 OA
BRANCH  10  12
HETATM   12  O   UNK N   1      25.730  29.257  -3.876  0.00  0.00    -0.776 OA
HETATM   13  H   UNK N   1      24.852  29.171  -4.194  0.00  0.00     0.167 HD
ENDBRANCH  10  12
ENDBRANCH   8  10
BRANCH   9  14
HETATM   14  C   UNK N   1      25.539  25.519  -6.094  0.00  0.00     0.223 C 
HETATM   15  O   UNK N   1      25.019  24.632  -5.437  0.00  0.00    -0.273 OA
HETATM   16  N   UNK N   1      25.751  25.301  -7.413  0.00  0.00    -0.365 N 
HETATM   17  C   UNK N   1      26.385  26.275  -8.266  0.00  0.00     0.149 C 
HETATM   18  H   UNK N   1      25.462  24.447  -7.806  0.00  0.00     0.161 HD
ENDBRANCH   9  14
ENDBRANCH   1   7
BRANCH   6  19
HETATM   19  O   UNK N   1      31.000  23.206  -2.393  0.00  0.00    -0.255 OA
BRANCH  19  20
HETATM   20  P   UNK N   1      31.840  21.844  -3.028  0.00  0.00     0.396 P 
HETATM   21  O   UNK N   1      32.684  22.313  -4.243  0.00  0.00    -0.631 OA
BRANCH  20  22
HETATM   22  O   UNK N   1      32.917  21.166  -1.849  0.00  0.00    -0.307 OA
HETATM   23  H   UNK N   1      33.729  20.714  -2.126  0.00  0.00     0.222 HD
ENDBRANCH  20  22
BRANCH  20  24
HETATM   24  O   UNK N   1      30.709  20.654  -3.593  0.00  0.00    -0.307 OA
HETATM   25  H   UNK N   1      29.893  20.133  -3.633  0.00  0.00     0.222 HD
ENDBRANCH  20  24
ENDBRANCH  19  20
ENDBRANCH   6  19
TORSDOF 8
ENDMDL
MODEL 3
REMARK VINA RESULT:      -6.2     11.166     14.382
REMARK  8 active torsions:
REMARK  status: ('A' for Active; 'I' for Inactive)
REMARK       I    between atoms: C_1  and  N_3 
REMARK    1  A    between atoms: C_16  and  C_1 
REMARK    2  A    between atoms: C_5  and  C_6 
REMARK    3  A    between atoms: C_6  and  O_21 
REMARK    4  A    between atoms: C_8  and  C_9 
REMARK    5  A    between atoms: C_14  and  O_15 
REMARK    6  A    between atoms: O_15  and  P_17 
REMARK    7  A    between atoms: P_17  and  O_19 
REMARK    8  A    between atoms: P_17  and  O_20 
ROOT
HETATM    1  C   UNK N   1      35.269  14.847   9.826  0.00  0.00    -0.052 A 
HETATM    2  C   UNK N   1      34.946  13.542  10.229  0.00  0.00     0.010 A 
HETATM    3  C   UNK N   1      35.691  15.771  10.788  0.00  0.00     0.010 A 
HETATM    4  C   UNK N   1      35.004  13.186  11.579  0.00  0.00     0.038 A 
HETATM    5  C   UNK N   1      35.779  15.408  12.133  0.00  0.00     0.038 A 
HETATM    6  C   UNK N   1      35.402  14.128  12.543  0.00  0.00     0.081 A 
ENDROOT
BRANCH   1   7
HETATM    7  C   UNK N   1      35.006  15.263   8.393  0.00  0.00     0.047 A 
HETATM    8  C   UNK N   1      33.952  16.393   8.488  0.00  0.00     0.106 A 
HETATM    9  C   UNK N   1      33.770  15.303   7.463  0.00  0.00     0.102 A 
BRANCH   8  10
HETATM   10  C   UNK N   1      34.550  17.699   8.043  0.00  0.00     0.145 C 
HETATM   11  O   UNK N   1      34.485  18.037   6.872  0.00  0.00    -0.650 OA
BRANCH  10  12
HETATM   12  O   UNK N   1      35.152  18.504   8.938  0.00  0.00    -0.776 OA
HETATM   13  H   UNK N   1      35.598  18.146   9.681  0.00  0.00     0.167 HD
ENDBRANCH  10  12
ENDBRANCH   8  10
BRANCH   9  14
HETATM   14  C   UNK N   1      32.793  14.157   7.662  0.00  0.00     0.223 C 
HETATM   15  O   UNK N   1      32.025  14.150   8.609  0.00  0.00    -0.273 OA
HETATM   16  N   UNK N   1      32.805  13.086   6.835  0.00  0.00    -0.365 N 
HETATM   17  C   UNK N   1      33.697  12.988   5.707  0.00  0.00     0.149 C 
HETATM   18  H   UNK N   1      32.180  12.346   7.009  0.00  0.00     0.161 HD
ENDBRANCH   9  14
ENDBRANCH   1   7
BRANCH   6  19
HETATM   19  O   UNK N   1      35.351  13.860  13.868  0.00  0.00    -0.255 OA
BRANCH  19  20
HETATM   20  P   UNK N   1      36.696  13.250  14.752  0.00  0.00     0.396 P 
HETATM   21  O   UNK N   1      36.164  12.333  15.884  0.00  0.00    -0.631 OA
BRANCH  20  22
HETATM   22  O   UNK N   1      37.739  12.307  13.735  0.00  0.00    -0.307 OA
HETATM   23  H   UNK N   1      37.529  11.380  13.540  0.00  0.00     0.222 HD
ENDBRANCH  20  22
BRANCH  20  24
HETATM   24  O   UNK N   1      37.568  14.558  15.492  0.00  0.00    -0.307 OA
HETATM   25  H   UNK N   1      38.218  15.271  15.583  0.00  0.00     0.222 HD
ENDBRANCH  20  24
ENDBRANCH  19  20
ENDBRANCH   6  19
TORSDOF 8
ENDMDL
MODEL 4
REMARK VINA RESULT:      -6.2      5.557      8.292
REMARK  8 active torsions:
REMARK  status: ('A' for Active; 'I' for Inactive)
REMARK       I    between atoms: C_1  and  N_3 
REMARK    1  A    between atoms: C_16  and  C_1 
REMARK    2  A    between atoms: C_5  and  C_6 
REMARK    3  A    between atoms: C_6  and  O_21 
REMARK    4  A    between atoms: C_8  and  C_9 
REMARK    5  A    between atoms: C_14  and  O_15 
REMARK    6  A    between atoms: O_15  and  P_17 
REMARK    7  A    between atoms: P_17  and  O_19 
REMARK    8  A    between atoms: P_17  and  O_20 
ROOT
HETATM    1  C   UNK N   1      31.771  17.119   7.682  0.00  0.00    -0.052 A 
HETATM    2  C   UNK N   1      31.051  17.945   8.558  0.00  0.00     0.010 A 
HETATM    3  C   UNK N   1      31.178  16.724   6.478  0.00  0.00     0.010 A 
HETATM    4  C   UNK N   1      29.743  18.331   8.250  0.00  0.00     0.038 A 
HETATM    5  C   UNK N   1      29.884  17.135   6.154  0.00  0.00     0.038 A 
HETATM    6  C   UNK N   1      29.146  17.907   7.051  0.00  0.00     0.081 A 
ENDROOT
BRANCH   1   7
HETATM    7  C   UNK N   1      33.104  16.553   8.129  0.00  0.00     0.047 A 
HETATM    8  C   UNK N   1      34.169  17.496   7.517  0.00  0.00     0.106 A 
HETATM    9  C   UNK N   1      34.365  16.005   7.420  0.00  0.00     0.102 A 
BRANCH   8  10
HETATM   10  C   UNK N   1      34.888  18.241   8.607  0.00  0.00     0.145 C 
HETATM   11  O   UNK N   1      35.156  19.424   8.470  0.00  0.00    -0.650 OA
BRANCH  10  12
HETATM   12  O   UNK N   1      35.232  17.606   9.744  0.00  0.00    -0.776 OA
HETATM   13  H   UNK N   1      35.936  16.988   9.753  0.00  0.00     0.167 HD
ENDBRANCH  10  12
ENDBRANCH   8  10
BRANCH   9  14
HETATM   14  C   UNK N   1      34.085  15.232   6.143  0.00  0.00     0.223 C 
HETATM   15  O   UNK N   1      34.130  15.785   5.057  0.00  0.00    -0.273 OA
HETATM   16  N   UNK N   1      33.710  13.932   6.189  0.00  0.00    -0.365 N 
HETATM   17  C   UNK N   1      33.600  13.202   7.427  0.00  0.00     0.149 C 
HETATM   18  H   UNK N   1      33.506  13.467   5.346  0.00  0.00     0.161 HD
ENDBRANCH   9  14
ENDBRANCH   1   7
BRANCH   6  19
HETATM   19  O   UNK N   1      27.844  18.154   6.775  0.00  0.00    -0.255 OA
BRANCH  19  20
HETATM   20  P   UNK N   1      27.331  19.451   5.765  0.00  0.00     0.396 P 
HETATM   21  O   UNK N   1      27.679  20.788   6.471  0.00  0.00    -0.631 OA
BRANCH  20  22
HETATM   22  O   UNK N   1      28.150  19.416   4.236  0.00  0.00    -0.307 OA
HETATM   23  H   UNK N   1      29.100  19.223   4.190  0.00  0.00     0.222 HD
ENDBRANCH  20  22
BRANCH  20  24
HETATM   24  O   UNK N   1      25.609  19.396   5.549  0.00  0.00    -0.307 OA
HETATM   25  H   UNK N   1      24.739  19.031   5.325  0.00  0.00     0.222 HD
ENDBRANCH  20  24
ENDBRANCH  19  20
ENDBRANCH   6  19
TORSDOF 8
ENDMDL
MODEL 5
REMARK VINA RESULT:      -6.2      6.442     10.117
REMARK  8 active torsions:
REMARK  status: ('A' for Active; 'I' for Inactive)
REMARK       I    between atoms: C_1  and  N_3 
REMARK    1  A    between atoms: C_16  and  C_1 
REMARK    2  A    between atoms: C_5  and  C_6 
REMARK    3  A    between atoms: C_6  and  O_21 
REMARK    4  A    between atoms: C_8  and  C_9 
REMARK    5  A    between atoms: C_14  and  O_15 
REMARK    6  A    between atoms: O_15  and  P_17 
REMARK    7  A    between atoms: P_17  and  O_19 
REMARK    8  A    between atoms: P_17  and  O_20 
ROOT
HETATM    1  C   UNK N   1      31.264  16.808   6.565  0.00  0.00    -0.052 A 
HETATM    2  C   UNK N   1      32.586  16.837   6.096  0.00  0.00     0.010 A 
HETATM    3  C   UNK N   1      31.018  17.065   7.918  0.00  0.00     0.010 A 
HETATM    4  C   UNK N   1      33.644  17.076   6.977  0.00  0.00     0.038 A 
HETATM    5  C   UNK N   1      32.070  17.335   8.794  0.00  0.00     0.038 A 
HETATM    6  C   UNK N   1      33.389  17.306   8.340  0.00  0.00     0.081 A 
ENDROOT
BRANCH   1   7
HETATM    7  C   UNK N   1      30.160  16.350   5.634  0.00  0.00     0.047 A 
HETATM    8  C   UNK N   1      30.069  17.448   4.546  0.00  0.00     0.106 A 
HETATM    9  C   UNK N   1      28.800  16.923   5.168  0.00  0.00     0.102 A 
BRANCH   8  10
HETATM   10  C   UNK N   1      30.493  16.894   3.214  0.00  0.00     0.145 C 
HETATM   11  O   UNK N   1      29.753  16.147   2.596  0.00  0.00    -0.650 OA
BRANCH  10  12
HETATM   12  O   UNK N   1      31.690  17.229   2.695  0.00  0.00    -0.776 OA
HETATM   13  H   UNK N   1      31.777  17.431   1.784  0.00  0.00     0.167 HD
ENDBRANCH  10  12
ENDBRANCH   8  10
BRANCH   9  14
HETATM   14  C   UNK N   1      28.040  17.693   6.234  0.00  0.00     0.223 C 
HETATM   15  O   UNK N   1      28.359  18.833   6.526  0.00  0.00    -0.273 OA
HETATM   16  N   UNK N   1      27.041  17.105   6.933  0.00  0.00    -0.365 N 
HETATM   17  C   UNK N   1      26.613  15.752   6.682  0.00  0.00     0.149 C 
HETATM   18  H   UNK N   1      26.589  17.621   7.638  0.00  0.00     0.161 HD
ENDBRANCH   9  14
ENDBRANCH   1   7
BRANCH   6  19
HETATM   19  O   UNK N   1      34.390  17.416   9.245  0.00  0.00    -0.255 OA
BRANCH  19  20
HETATM   20  P   UNK N   1      35.063  16.061  10.066  0.00  0.00     0.396 P 
HETATM   21  O   UNK N   1      35.335  14.944   9.024  0.00  0.00    -0.631 OA
BRANCH  20  22
HETATM   22  O   UNK N   1      36.567  16.472  10.826  0.00  0.00    -0.307 OA
HETATM   23  H   UNK N   1      37.065  15.806  11.324  0.00  0.00     0.222 HD
ENDBRANCH  20  22
BRANCH  20  24
HETATM   24  O   UNK N   1      33.929  15.441  11.226  0.00  0.00    -0.307 OA
HETATM   25  H   UNK N   1      33.495  14.800  11.809  0.00  0.00     0.222 HD
ENDBRANCH  20  24
ENDBRANCH  19  20
ENDBRANCH   6  19
TORSDOF 8
ENDMDL
MODEL 6
REMARK VINA RESULT:      -6.1      1.951      3.346
REMARK  8 active torsions:
REMARK  status: ('A' for Active; 'I' for Inactive)
REMARK       I    between atoms: C_1  and  N_3 
REMARK    1  A    between atoms: C_16  and  C_1 
REMARK    2  A    between atoms: C_5  and  C_6 
REMARK    3  A    between atoms: C_6  and  O_21 
REMARK    4  A    between atoms: C_8  and  C_9 
REMARK    5  A    between atoms: C_14  and  O_15 
REMARK    6  A    between atoms: O_15  and  P_17 
REMARK    7  A    between atoms: P_17  and  O_19 
REMARK    8  A    between atoms: P_17  and  O_20 
ROOT
HETATM    1  C   UNK N   1      25.432  18.934   4.729  0.00  0.00    -0.052 A 
HETATM    2  C   UNK N   1      24.084  18.547   4.701  0.00  0.00     0.010 A 
HETATM    3  C   UNK N   1      25.862  19.959   3.880  0.00  0.00     0.010 A 
HETATM    4  C   UNK N   1      23.195  19.148   3.805  0.00  0.00     0.038 A 
HETATM    5  C   UNK N   1      24.970  20.583   3.007  0.00  0.00     0.038 A 
HETATM    6  C   UNK N   1      23.642  20.158   2.936  0.00  0.00     0.081 A 
ENDROOT
BRANCH   1   7
HETATM    7  C   UNK N   1      26.413  18.134   5.562  0.00  0.00     0.047 A 
HETATM    8  C   UNK N   1      27.616  19.082   5.790  0.00  0.00     0.106 A 
HETATM    9  C   UNK N   1      27.873  17.652   5.388  0.00  0.00     0.102 A 
BRANCH   8  10
HETATM   10  C   UNK N   1      27.721  19.444   7.245  0.00  0.00     0.145 C 
HETATM   11  O   UNK N   1      28.651  19.027   7.917  0.00  0.00    -0.650 OA
BRANCH  10  12
HETATM   12  O   UNK N   1      26.792  20.239   7.811  0.00  0.00    -0.776 OA
HETATM   13  H   UNK N   1      25.885  20.141   7.598  0.00  0.00     0.167 HD
ENDBRANCH  10  12
ENDBRANCH   8  10
BRANCH   9  14
HETATM   14  C   UNK N   1      28.245  17.263   3.967  0.00  0.00     0.223 C 
HETATM   15  O   UNK N   1      27.388  16.929   3.167  0.00  0.00    -0.273 OA
HETATM   16  N   UNK N   1      29.542  17.210   3.582  0.00  0.00    -0.365 N 
HETATM   17  C   UNK N   1      30.627  17.557   4.464  0.00  0.00     0.149 C 
HETATM   18  H   UNK N   1      29.751  16.925   2.663  0.00  0.00     0.161 HD
ENDBRANCH   9  14
ENDBRANCH   1   7
BRANCH   6  19
HETATM   19  O   UNK N   1      22.846  20.675   1.972  0.00  0.00    -0.255 OA
BRANCH  19  20
HETATM   20  P   UNK N   1      21.130  20.539   2.003  0.00  0.00     0.396 P 
HETATM   21  O   UNK N   1      20.755  19.039   1.871  0.00  0.00    -0.631 OA
BRANCH  20  22
HETATM   22  O   UNK N   1      20.482  21.131   3.500  0.00  0.00    -0.307 OA
HETATM   23  H   UNK N   1      20.586  22.063   3.747  0.00  0.00     0.222 HD
ENDBRANCH  20  22
BRANCH  20  24
HETATM   24  O   UNK N   1      20.439  21.381   0.650  0.00  0.00    -0.307 OA
HETATM   25  H   UNK N   1      19.776  21.637  -0.009  0.00  0.00     0.222 HD
ENDBRANCH  20  24
ENDBRANCH  19  20
ENDBRANCH   6  19
TORSDOF 8
ENDMDL
MODEL 7
REMARK VINA RESULT:      -6.0      6.596     10.762
REMARK  8 active torsions:
REMARK  status: ('A' for Active; 'I' for Inactive)
REMARK       I    between atoms: C_1  and  N_3 
REMARK    1  A    between atoms: C_16  and  C_1 
REMARK    2  A    between atoms: C_5  and  C_6 
REMARK    3  A    between atoms: C_6  and  O_21 
REMARK    4  A    between atoms: C_8  and  C_9 
REMARK    5  A    between atoms: C_14  and  O_15 
REMARK    6  A    between atoms: O_15  and  P_17 
REMARK    7  A    between atoms: P_17  and  O_19 
REMARK    8  A    between atoms: P_17  and  O_20 
ROOT
HETATM    1  C   UNK N   1      32.050  17.171   6.206  0.00  0.00    -0.052 A 
HETATM    2  C   UNK N   1      33.393  17.550   6.061  0.00  0.00     0.010 A 
HETATM    3  C   UNK N   1      31.540  16.956   7.491  0.00  0.00     0.010 A 
HETATM    4  C   UNK N   1      34.219  17.667   7.182  0.00  0.00     0.038 A 
HETATM    5  C   UNK N   1      32.354  17.104   8.615  0.00  0.00     0.038 A 
HETATM    6  C   UNK N   1      33.705  17.423   8.467  0.00  0.00     0.081 A 
ENDROOT
BRANCH   1   7
HETATM    7  C   UNK N   1      31.233  16.855   4.969  0.00  0.00     0.047 A 
HETATM    8  C   UNK N   1      29.774  16.729   5.471  0.00  0.00     0.106 A 
HETATM    9  C   UNK N   1      30.315  15.695   4.518  0.00  0.00     0.102 A 
BRANCH   8  10
HETATM   10  C   UNK N   1      28.936  17.845   4.911  0.00  0.00     0.145 C 
HETATM   11  O   UNK N   1      28.524  18.731   5.643  0.00  0.00    -0.650 OA
BRANCH  10  12
HETATM   12  O   UNK N   1      28.644  17.875   3.597  0.00  0.00    -0.776 OA
HETATM   13  H   UNK N   1      28.930  18.587   3.059  0.00  0.00     0.167 HD
ENDBRANCH  10  12
ENDBRANCH   8  10
BRANCH   9  14
HETATM   14  C   UNK N   1      30.762  14.319   4.983  0.00  0.00     0.223 C 
HETATM   15  O   UNK N   1      31.923  14.112   5.294  0.00  0.00    -0.273 OA
HETATM   16  N   UNK N   1      29.897  13.278   4.993  0.00  0.00    -0.365 N 
HETATM   17  C   UNK N   1      28.514  13.416   4.613  0.00  0.00     0.149 C 
HETATM   18  H   UNK N   1      30.225  12.392   5.271  0.00  0.00     0.161 HD
ENDBRANCH   9  14
ENDBRANCH   1   7
BRANCH   6  19
HETATM   19  O   UNK N   1      34.500  17.404   9.563  0.00  0.00    -0.255 OA
BRANCH  19  20
HETATM   20  P   UNK N   1      35.153  15.954  10.219  0.00  0.00     0.396 P 
HETATM   21  O   UNK N   1      35.301  14.920   9.072  0.00  0.00    -0.631 OA
BRANCH  20  22
HETATM   22  O   UNK N   1      36.722  16.228  10.907  0.00  0.00    -0.307 OA
HETATM   23  H   UNK N   1      37.109  17.118  10.911  0.00  0.00     0.222 HD
ENDBRANCH  20  22
BRANCH  20  24
HETATM   24  O   UNK N   1      34.066  15.288  11.399  0.00  0.00    -0.307 OA
HETATM   25  H   UNK N   1      33.517  15.245  12.197  0.00  0.00     0.222 HD
ENDBRANCH  20  24
ENDBRANCH  19  20
ENDBRANCH   6  19
TORSDOF 8
ENDMDL
MODEL 8
REMARK VINA RESULT:      -6.0      6.513     10.422
REMARK  8 active torsions:
REMARK  status: ('A' for Active; 'I' for Inactive)
REMARK       I    between atoms: C_1  and  N_3 
REMARK    1  A    between atoms: C_16  and  C_1 
REMARK    2  A    between atoms: C_5  and  C_6 
REMARK    3  A    between atoms: C_6  and  O_21 
REMARK    4  A    between atoms: C_8  and  C_9 
REMARK    5  A    between atoms: C_14  and  O_15 
REMARK    6  A    between atoms: O_15  and  P_17 
REMARK    7  A    between atoms: P_17  and  O_19 
REMARK    8  A    between atoms: P_17  and  O_20 
ROOT
HETATM    1  C   UNK N   1      30.847  16.843   6.927  0.00  0.00    -0.052 A 
HETATM    2  C   UNK N   1      31.495  17.604   7.911  0.00  0.00     0.010 A 
HETATM    3  C   UNK N   1      31.339  15.570   6.619  0.00  0.00     0.010 A 
HETATM    4  C   UNK N   1      32.642  17.113   8.543  0.00  0.00     0.038 A 
HETATM    5  C   UNK N   1      32.465  15.065   7.271  0.00  0.00     0.038 A 
HETATM    6  C   UNK N   1      33.145  15.845   8.208  0.00  0.00     0.081 A 
ENDROOT
BRANCH   1   7
HETATM    7  C   UNK N   1      29.733  17.476   6.118  0.00  0.00     0.047 A 
HETATM    8  C   UNK N   1      28.453  17.271   6.967  0.00  0.00     0.106 A 
HETATM    9  C   UNK N   1      28.409  16.984   5.488  0.00  0.00     0.102 A 
BRANCH   8  10
HETATM   10  C   UNK N   1      27.936  18.598   7.451  0.00  0.00     0.145 C 
HETATM   11  O   UNK N   1      27.692  19.490   6.655  0.00  0.00    -0.650 OA
BRANCH  10  12
HETATM   12  O   UNK N   1      27.731  18.801   8.766  0.00  0.00    -0.776 OA
HETATM   13  H   UNK N   1      27.288  18.160   9.287  0.00  0.00     0.167 HD
ENDBRANCH  10  12
ENDBRANCH   8  10
BRANCH   9  14
HETATM   14  C   UNK N   1      28.460  15.569   4.935  0.00  0.00     0.223 C 
HETATM   15  O   UNK N   1      28.085  14.623   5.607  0.00  0.00    -0.273 OA
HETATM   16  N   UNK N   1      28.992  15.322   3.715  0.00  0.00    -0.365 N 
HETATM   17  C   UNK N   1      29.490  16.370   2.861  0.00  0.00     0.149 C 
HETATM   18  H   UNK N   1      29.039  14.392   3.398  0.00  0.00     0.161 HD
ENDBRANCH   9  14
ENDBRANCH   1   7
BRANCH   6  19
HETATM   19  O   UNK N   1      34.318  15.388   8.704  0.00  0.00    -0.255 OA
BRANCH  19  20
HETATM   20  P   UNK N   1      34.726  15.478  10.374  0.00  0.00     0.396 P 
HETATM   21  O   UNK N   1      35.989  14.610  10.616  0.00  0.00    -0.631 OA
BRANCH  20  22
HETATM   22  O   UNK N   1      35.089  17.108  10.843  0.00  0.00    -0.307 OA
HETATM   23  H   UNK N   1      34.780  17.455  11.694  0.00  0.00     0.222 HD
ENDBRANCH  20  22
BRANCH  20  24
HETATM   24  O   UNK N   1      33.439  14.825  11.340  0.00  0.00    -0.307 OA
HETATM   25  H   UNK N   1      32.547  14.521  11.567  0.00  0.00     0.222 HD
ENDBRANCH  20  24
ENDBRANCH  19  20
ENDBRANCH   6  19
TORSDOF 8
ENDMDL
MODEL 9
REMARK VINA RESULT:      -5.9      6.152     10.118
REMARK  8 active torsions:
REMARK  status: ('A' for Active; 'I' for Inactive)
REMARK       I    between atoms: C_1  and  N_3 
REMARK    1  A    between atoms: C_16  and  C_1 
REMARK    2  A    between atoms: C_5  and  C_6 
REMARK    3  A    between atoms: C_6  and  O_21 
REMARK    4  A    between atoms: C_8  and  C_9 
REMARK    5  A    between atoms: C_14  and  O_15 
REMARK    6  A    between atoms: O_15  and  P_17 
REMARK    7  A    between atoms: P_17  and  O_19 
REMARK    8  A    between atoms: P_17  and  O_20 
ROOT
HETATM    1  C   UNK N   1      30.907  16.299   6.912  0.00  0.00    -0.052 A 
HETATM    2  C   UNK N   1      31.668  15.143   6.682  0.00  0.00     0.010 A 
HETATM    3  C   UNK N   1      31.467  17.344   7.655  0.00  0.00     0.010 A 
HETATM    4  C   UNK N   1      32.950  15.021   7.225  0.00  0.00     0.038 A 
HETATM    5  C   UNK N   1      32.759  17.238   8.171  0.00  0.00     0.038 A 
HETATM    6  C   UNK N   1      33.494  16.065   7.993  0.00  0.00     0.081 A 
ENDROOT
BRANCH   1   7
HETATM    7  C   UNK N   1      29.453  16.323   6.486  0.00  0.00     0.047 A 
HETATM    8  C   UNK N   1      29.285  17.648   5.702  0.00  0.00     0.106 A 
HETATM    9  C   UNK N   1      28.247  17.262   6.725  0.00  0.00     0.102 A 
BRANCH   8  10
HETATM   10  C   UNK N   1      29.000  17.359   4.254  0.00  0.00     0.145 C 
HETATM   11  O   UNK N   1      27.850  17.336   3.847  0.00  0.00    -0.650 OA
BRANCH  10  12
HETATM   12  O   UNK N   1      30.016  17.136   3.399  0.00  0.00    -0.776 OA
HETATM   13  H   UNK N   1      30.845  16.828   3.710  0.00  0.00     0.167 HD
ENDBRANCH  10  12
ENDBRANCH   8  10
BRANCH   9  14
HETATM   14  C   UNK N   1      28.200  17.889   8.108  0.00  0.00     0.223 C 
HETATM   15  O   UNK N   1      28.459  17.230   9.101  0.00  0.00    -0.273 OA
HETATM   16  N   UNK N   1      27.800  19.172   8.272  0.00  0.00    -0.365 N 
HETATM   17  C   UNK N   1      27.444  20.020   7.163  0.00  0.00     0.149 C 
HETATM   18  H   UNK N   1      27.752  19.540   9.184  0.00  0.00     0.161 HD
ENDBRANCH   9  14
ENDBRANCH   1   7
BRANCH   6  19
HETATM   19  O   UNK N   1      34.677  15.937   8.638  0.00  0.00    -0.255 OA
BRANCH  19  20
HETATM   20  P   UNK N   1      34.793  15.673  10.335  0.00  0.00     0.396 P 
HETATM   21  O   UNK N   1      35.167  17.016  11.015  0.00  0.00    -0.631 OA
BRANCH  20  22
HETATM   22  O   UNK N   1      33.280  15.135  10.991  0.00  0.00    -0.307 OA
HETATM   23  H   UNK N   1      33.224  14.823  11.908  0.00  0.00     0.222 HD
ENDBRANCH  20  22
BRANCH  20  24
HETATM   24  O   UNK N   1      36.059  14.533  10.677  0.00  0.00    -0.307 OA
HETATM   25  H   UNK N   1      36.928  14.108  10.623  0.00  0.00     0.222 HD
ENDBRANCH  20  24
ENDBRANCH  19  20
ENDBRANCH   6  19
TORSDOF 8
ENDMDL
