MODEL 1
REMARK VINA RESULT:      -5.9      0.000      0.000
REMARK  12 active torsions:
REMARK  status: ('A' for Active; 'I' for Inactive)
REMARK    1  A    between atoms: C_2  and  C_3 
REMARK    2  A    between atoms: C_3  and  C_4 
REMARK    3  A    between atoms: C_4  and  C_5 
REMARK    4  A    between atoms: C_5  and  C_6 
REMARK    5  A    between atoms: C_7  and  C_8 
REMARK    6  A    between atoms: C_14  and  C_15 
REMARK    7  A    between atoms: C_15  and  C_16 
REMARK    8  A    between atoms: C_17  and  C_18 
REMARK    9  A    between atoms: C_18  and  C_19 
REMARK   10  A    between atoms: C_19  and  C_20 
REMARK   11  A    between atoms: C_20  and  C_21 
REMARK   12  A    between atoms: C_21  and  O_23 
ROOT
HETATM    1  C   UNK N   1      27.142  25.013  -4.003  0.00  0.00     0.011 C 
HETATM    2  C   UNK N   1      26.952  26.339  -4.122  0.00  0.00    -0.000 A 
HETATM    3  C   UNK N   1      27.944  27.384  -3.953  0.00  0.00     0.178 A 
HETATM    4  O   UNK N   1      29.122  27.225  -3.666  0.00  0.00    -0.288 OA
HETATM    5  C   UNK N   1      27.312  28.661  -4.170  0.00  0.00     0.052 A 
HETATM    6  C   UNK N   1      26.020  28.457  -4.454  0.00  0.00    -0.013 A 
HETATM    7  C   UNK N   1      25.633  26.985  -4.462  0.00  0.00     0.049 A 
ENDROOT
BRANCH   7   8
HETATM    8  C   UNK N   1      25.112  26.595  -5.845  0.00  0.00     0.040 C 
BRANCH   8   9
HETATM    9  C   UNK N   1      26.142  26.838  -6.907  0.00  0.00    -0.030 C 
HETATM   10  C   UNK N   1      26.381  25.993  -7.909  0.00  0.00    -0.031 C 
BRANCH  10  11
HETATM   11  C   UNK N   1      25.648  24.706  -8.086  0.00  0.00     0.027 C 
BRANCH  11  12
HETATM   12  C   UNK N   1      26.505  23.612  -7.493  0.00  0.00     0.014 C 
BRANCH  12  13
HETATM   13  C   UNK N   1      25.646  22.590  -6.771  0.00  0.00     0.110 C 
BRANCH  13  14
HETATM   14  C   UNK N   1      24.872  21.746  -7.739  0.00  0.00     0.139 C 
HETATM   15  O   UNK N   1      25.427  20.815  -8.297  0.00  0.00    -0.650 OA
BRANCH  14  16
HETATM   16  O   UNK N   1      23.572  21.999  -7.996  0.00  0.00    -0.776 OA
HETATM   17  H   UNK N   1      23.238  21.897  -8.865  0.00  0.00     0.167 HD
ENDBRANCH  14  16
ENDBRANCH  13  14
ENDBRANCH  12  13
ENDBRANCH  11  12
ENDBRANCH  10  11
ENDBRANCH   8   9
ENDBRANCH   7   8
BRANCH   1  18
HETATM   18  C   UNK N   1      28.452  24.439  -3.682  0.00  0.00    -0.003 C 
HETATM   19  C   UNK N   1      28.580  23.491  -2.761  0.00  0.00    -0.027 C 
BRANCH  19  20
HETATM   20  C   UNK N   1      29.939  22.947  -2.499  0.00  0.00     0.027 C 
BRANCH  20  21
HETATM   21  C   UNK N   1      30.658  22.608  -3.784  0.00  0.00     0.004 C 
BRANCH  21  22
HETATM   22  C   UNK N   1      30.443  21.132  -4.047  0.00  0.00    -0.000 C 
BRANCH  22  23
HETATM   23  C   UNK N   1      30.507  20.840  -5.529  0.00  0.00    -0.005 C 
HETATM   24  C   UNK N   1      29.455  21.668  -6.237  0.00  0.00     0.005 C 
ENDBRANCH  22  23
ENDBRANCH  21  22
ENDBRANCH  20  21
ENDBRANCH  19  20
ENDBRANCH   1  18
TORSDOF 12
ENDMDL
MODEL 2
REMARK VINA RESULT:      -5.8      2.261      6.822
REMARK  12 active torsions:
REMARK  status: ('A' for Active; 'I' for Inactive)
REMARK    1  A    between atoms: C_2  and  C_3 
REMARK    2  A    between atoms: C_3  and  C_4 
REMARK    3  A    between atoms: C_4  and  C_5 
REMARK    4  A    between atoms: C_5  and  C_6 
REMARK    5  A    between atoms: C_7  and  C_8 
REMARK    6  A    between atoms: C_14  and  C_15 
REMARK    7  A    between atoms: C_15  and  C_16 
REMARK    8  A    between atoms: C_17  and  C_18 
REMARK    9  A    between atoms: C_18  and  C_19 
REMARK   10  A    between atoms: C_19  and  C_20 
REMARK   11  A    between atoms: C_20  and  C_21 
REMARK   12  A    between atoms: C_21  and  O_23 
ROOT
HETATM    1  C   UNK N   1      27.648  23.224  -6.057  0.00  0.00     0.011 C 
HETATM    2  C   UNK N   1      27.013  22.614  -7.073  0.00  0.00    -0.000 A 
HETATM    3  C   UNK N   1      25.911  23.139  -7.857  0.00  0.00     0.178 A 
HETATM    4  O   UNK N   1      25.374  24.228  -7.714  0.00  0.00    -0.288 OA
HETATM    5  C   UNK N   1      25.536  22.156  -8.842  0.00  0.00     0.052 A 
HETATM    6  C   UNK N   1      26.328  21.086  -8.704  0.00  0.00    -0.013 A 
HETATM    7  C   UNK N   1      27.349  21.237  -7.586  0.00  0.00     0.049 A 
ENDROOT
BRANCH   7   8
HETATM    8  C   UNK N   1      28.763  21.138  -8.160  0.00  0.00     0.040 C 
BRANCH   8   9
HETATM    9  C   UNK N   1      29.479  19.924  -7.648  0.00  0.00    -0.030 C 
HETATM   10  C   UNK N   1      30.363  19.957  -6.651  0.00  0.00    -0.031 C 
BRANCH  10  11
HETATM   11  C   UNK N   1      30.738  21.208  -5.932  0.00  0.00     0.027 C 
BRANCH  11  12
HETATM   12  C   UNK N   1      30.392  21.013  -4.473  0.00  0.00     0.014 C 
BRANCH  12  13
HETATM   13  C   UNK N   1      30.268  22.350  -3.768  0.00  0.00     0.110 C 
BRANCH  13  14
HETATM   14  C   UNK N   1      31.005  22.348  -2.461  0.00  0.00     0.139 C 
HETATM   15  O   UNK N   1      30.625  23.074  -1.559  0.00  0.00    -0.650 OA
BRANCH  14  16
HETATM   16  O   UNK N   1      32.075  21.550  -2.269  0.00  0.00    -0.776 OA
HETATM   17  H   UNK N   1      32.312  21.283  -1.403  0.00  0.00     0.167 HD
ENDBRANCH  14  16
ENDBRANCH  13  14
ENDBRANCH  12  13
ENDBRANCH  11  12
ENDBRANCH  10  11
ENDBRANCH   8   9
ENDBRANCH   7   8
BRANCH   1  18
HETATM   18  C   UNK N   1      27.286  24.571  -5.607  0.00  0.00    -0.003 C 
HETATM   19  C   UNK N   1      26.551  24.759  -4.518  0.00  0.00    -0.027 C 
BRANCH  19  20
HETATM   20  C   UNK N   1      26.235  26.156  -4.116  0.00  0.00     0.027 C 
BRANCH  20  21
HETATM   21  C   UNK N   1      25.931  27.023  -5.316  0.00  0.00     0.004 C 
BRANCH  21  22
HETATM   22  C   UNK N   1      26.627  28.350  -5.102  0.00  0.00    -0.000 C 
BRANCH  22  23
HETATM   23  C   UNK N   1      27.568  28.650  -6.247  0.00  0.00    -0.005 C 
HETATM   24  C   UNK N   1      27.389  27.593  -7.317  0.00  0.00     0.005 C 
ENDBRANCH  22  23
ENDBRANCH  21  22
ENDBRANCH  20  21
ENDBRANCH  19  20
ENDBRANCH   1  18
TORSDOF 12
ENDMDL
MODEL 3
REMARK VINA RESULT:      -5.7     23.545     27.036
REMARK  12 active torsions:
REMARK  status: ('A' for Active; 'I' for Inactive)
REMARK    1  A    between atoms: C_2  and  C_3 
REMARK    2  A    between atoms: C_3  and  C_4 
REMARK    3  A    between atoms: C_4  and  C_5 
REMARK    4  A    between atoms: C_5  and  C_6 
REMARK    5  A    between atoms: C_7  and  C_8 
REMARK    6  A    between atoms: C_14  and  C_15 
REMARK    7  A    between atoms: C_15  and  C_16 
REMARK    8  A    between atoms: C_17  and  C_18 
REMARK    9  A    between atoms: C_18  and  C_19 
REMARK   10  A    between atoms: C_19  and  C_20 
REMARK   11  A    between atoms: C_20  and  C_21 
REMARK   12  A    between atoms: C_21  and  O_23 
ROOT
HETATM    1  C   UNK N   1      34.917  10.329  17.541  0.00  0.00     0.011 C 
HETATM    2  C   UNK N   1      35.057  11.661  17.668  0.00  0.00    -0.000 A 
HETATM    3  C   UNK N   1      35.151  12.416  18.904  0.00  0.00     0.178 A 
HETATM    4  O   UNK N   1      35.111  11.960  20.037  0.00  0.00    -0.288 OA
HETATM    5  C   UNK N   1      35.292  13.814  18.581  0.00  0.00     0.052 A 
HETATM    6  C   UNK N   1      35.288  13.949  17.249  0.00  0.00    -0.013 A 
HETATM    7  C   UNK N   1      35.143  12.625  16.512  0.00  0.00     0.049 A 
ENDROOT
BRANCH   7   8
HETATM    8  C   UNK N   1      36.366  12.391  15.625  0.00  0.00     0.040 C 
BRANCH   8   9
HETATM    9  C   UNK N   1      36.849  13.669  15.008  0.00  0.00    -0.030 C 
HETATM   10  C   UNK N   1      36.420  14.128  13.833  0.00  0.00    -0.031 C 
BRANCH  10  11
HETATM   11  C   UNK N   1      35.409  13.418  12.998  0.00  0.00     0.027 C 
BRANCH  11  12
HETATM   12  C   UNK N   1      35.602  13.872  11.569  0.00  0.00     0.014 C 
BRANCH  12  13
HETATM   13  C   UNK N   1      34.875  15.180  11.320  0.00  0.00     0.110 C 
BRANCH  13  14
HETATM   14  C   UNK N   1      35.819  16.249  10.855  0.00  0.00     0.139 C 
HETATM   15  O   UNK N   1      35.374  17.325  10.494  0.00  0.00    -0.650 OA
BRANCH  14  16
HETATM   16  O   UNK N   1      37.151  16.039  10.837  0.00  0.00    -0.776 OA
HETATM   17  H   UNK N   1      37.615  15.904  11.639  0.00  0.00     0.167 HD
ENDBRANCH  14  16
ENDBRANCH  13  14
ENDBRANCH  12  13
ENDBRANCH  11  12
ENDBRANCH  10  11
ENDBRANCH   8   9
ENDBRANCH   7   8
BRANCH   1  18
HETATM   18  C   UNK N   1      34.850   9.437  18.701  0.00  0.00    -0.003 C 
HETATM   19  C   UNK N   1      33.701   8.897  19.090  0.00  0.00    -0.027 C 
BRANCH  19  20
HETATM   20  C   UNK N   1      33.714   7.990  20.269  0.00  0.00     0.027 C 
BRANCH  20  21
HETATM   21  C   UNK N   1      33.885   8.760  21.558  0.00  0.00     0.004 C 
BRANCH  21  22
HETATM   22  C   UNK N   1      32.679   9.661  21.711  0.00  0.00    -0.000 C 
BRANCH  22  23
HETATM   23  C   UNK N   1      32.449  10.004  23.165  0.00  0.00    -0.005 C 
HETATM   24  C   UNK N   1      33.736   9.779  23.931  0.00  0.00     0.005 C 
ENDBRANCH  22  23
ENDBRANCH  21  22
ENDBRANCH  20  21
ENDBRANCH  19  20
ENDBRANCH   1  18
TORSDOF 12
ENDMDL
MODEL 4
REMARK VINA RESULT:      -5.6     11.981     13.783
REMARK  12 active torsions:
REMARK  status: ('A' for Active; 'I' for Inactive)
REMARK    1  A    between atoms: C_2  and  C_3 
REMARK    2  A    between atoms: C_3  and  C_4 
REMARK    3  A    between atoms: C_4  and  C_5 
REMARK    4  A    between atoms: C_5  and  C_6 
REMARK    5  A    between atoms: C_7  and  C_8 
REMARK    6  A    between atoms: C_14  and  C_15 
REMARK    7  A    between atoms: C_15  and  C_16 
REMARK    8  A    between atoms: C_17  and  C_18 
REMARK    9  A    between atoms: C_18  and  C_19 
REMARK   10  A    between atoms: C_19  and  C_20 
REMARK   11  A    between atoms: C_20  and  C_21 
REMARK   12  A    between atoms: C_21  and  O_23 
ROOT
HETATM    1  C   UNK N   1      23.330  18.743   4.209  0.00  0.00     0.011 C 
HETATM    2  C   UNK N   1      22.156  19.037   3.622  0.00  0.00    -0.000 A 
HETATM    3  C   UNK N   1      21.827  20.238   2.878  0.00  0.00     0.178 A 
HETATM    4  O   UNK N   1      22.568  21.188   2.670  0.00  0.00    -0.288 OA
HETATM    5  C   UNK N   1      20.463  20.140   2.422  0.00  0.00     0.052 A 
HETATM    6  C   UNK N   1      19.954  18.974   2.839  0.00  0.00    -0.013 A 
HETATM    7  C   UNK N   1      20.945  18.138   3.636  0.00  0.00     0.049 A 
ENDROOT
BRANCH   7   8
HETATM    8  C   UNK N   1      21.180  16.802   2.931  0.00  0.00     0.040 C 
BRANCH   8   9
HETATM    9  C   UNK N   1      20.468  15.682   3.628  0.00  0.00    -0.030 C 
HETATM   10  C   UNK N   1      20.953  15.054   4.700  0.00  0.00    -0.031 C 
BRANCH  10  11
HETATM   11  C   UNK N   1      22.262  15.398   5.325  0.00  0.00     0.027 C 
BRANCH  11  12
HETATM   12  C   UNK N   1      21.969  16.084   6.640  0.00  0.00     0.014 C 
BRANCH  12  13
HETATM   13  C   UNK N   1      21.282  15.132   7.600  0.00  0.00     0.110 C 
BRANCH  13  14
HETATM   14  C   UNK N   1      20.383  15.868   8.549  0.00  0.00     0.139 C 
HETATM   15  O   UNK N   1      20.562  17.059   8.740  0.00  0.00    -0.650 OA
BRANCH  14  16
HETATM   16  O   UNK N   1      19.378  15.234   9.187  0.00  0.00    -0.776 OA
HETATM   17  H   UNK N   1      19.426  14.311   9.337  0.00  0.00     0.167 HD
ENDBRANCH  14  16
ENDBRANCH  13  14
ENDBRANCH  12  13
ENDBRANCH  11  12
ENDBRANCH  10  11
ENDBRANCH   8   9
ENDBRANCH   7   8
BRANCH   1  18
HETATM   18  C   UNK N   1      24.479  19.650   4.152  0.00  0.00    -0.003 C 
HETATM   19  C   UNK N   1      25.560  19.348   3.443  0.00  0.00    -0.027 C 
BRANCH  19  20
HETATM   20  C   UNK N   1      26.682  20.324   3.422  0.00  0.00     0.027 C 
BRANCH  20  21
HETATM   21  C   UNK N   1      27.754  19.958   4.422  0.00  0.00     0.004 C 
BRANCH  21  22
HETATM   22  C   UNK N   1      27.562  20.843   5.636  0.00  0.00    -0.000 C 
BRANCH  22  23
HETATM   23  C   UNK N   1      27.576  20.020   6.903  0.00  0.00    -0.005 C 
HETATM   24  C   UNK N   1      27.914  18.586   6.553  0.00  0.00     0.005 C 
ENDBRANCH  22  23
ENDBRANCH  21  22
ENDBRANCH  20  21
ENDBRANCH  19  20
ENDBRANCH   1  18
TORSDOF 12
ENDMDL
MODEL 5
REMARK VINA RESULT:      -5.6     15.088     18.299
REMARK  12 active torsions:
REMARK  status: ('A' for Active; 'I' for Inactive)
REMARK    1  A    between atoms: C_2  and  C_3 
REMARK    2  A    between atoms: C_3  and  C_4 
REMARK    3  A    between atoms: C_4  and  C_5 
REMARK    4  A    between atoms: C_5  and  C_6 
REMARK    5  A    between atoms: C_7  and  C_8 
REMARK    6  A    between atoms: C_14  and  C_15 
REMARK    7  A    between atoms: C_15  and  C_16 
REMARK    8  A    between atoms: C_17  and  C_18 
REMARK    9  A    between atoms: C_18  and  C_19 
REMARK   10  A    between atoms: C_19  and  C_20 
REMARK   11  A    between atoms: C_20  and  C_21 
REMARK   12  A    between atoms: C_21  and  O_23 
ROOT
HETATM    1  C   UNK N   1      33.495  15.149   9.728  0.00  0.00     0.011 C 
HETATM    2  C   UNK N   1      33.693  16.297   9.056  0.00  0.00    -0.000 A 
HETATM    3  C   UNK N   1      34.729  17.283   9.296  0.00  0.00     0.178 A 
HETATM    4  O   UNK N   1      35.592  17.232  10.160  0.00  0.00    -0.288 OA
HETATM    5  C   UNK N   1      34.574  18.357   8.347  0.00  0.00     0.052 A 
HETATM    6  C   UNK N   1      33.524  18.086   7.561  0.00  0.00    -0.013 A 
HETATM    7  C   UNK N   1      32.844  16.768   7.902  0.00  0.00     0.049 A 
ENDROOT
BRANCH   7   8
HETATM    8  C   UNK N   1      32.898  15.831   6.695  0.00  0.00     0.040 C 
BRANCH   8   9
HETATM    9  C   UNK N   1      32.527  16.545   5.430  0.00  0.00    -0.030 C 
HETATM   10  C   UNK N   1      31.269  16.727   5.030  0.00  0.00    -0.031 C 
BRANCH  10  11
HETATM   11  C   UNK N   1      30.087  16.240   5.798  0.00  0.00     0.027 C 
BRANCH  11  12
HETATM   12  C   UNK N   1      29.300  17.454   6.234  0.00  0.00     0.014 C 
BRANCH  12  13
HETATM   13  C   UNK N   1      29.309  17.584   7.746  0.00  0.00     0.110 C 
BRANCH  13  14
HETATM   14  C   UNK N   1      28.207  18.484   8.222  0.00  0.00     0.139 C 
HETATM   15  O   UNK N   1      27.937  19.487   7.585  0.00  0.00    -0.650 OA
BRANCH  14  16
HETATM   16  O   UNK N   1      27.509  18.195   9.340  0.00  0.00    -0.776 OA
HETATM   17  H   UNK N   1      27.302  18.873   9.952  0.00  0.00     0.167 HD
ENDBRANCH  14  16
ENDBRANCH  13  14
ENDBRANCH  12  13
ENDBRANCH  11  12
ENDBRANCH  10  11
ENDBRANCH   8   9
ENDBRANCH   7   8
BRANCH   1  18
HETATM   18  C   UNK N   1      34.360  14.734  10.836  0.00  0.00    -0.003 C 
HETATM   19  C   UNK N   1      35.281  13.792  10.675  0.00  0.00    -0.027 C 
BRANCH  19  20
HETATM   20  C   UNK N   1      36.131  13.434  11.842  0.00  0.00     0.027 C 
BRANCH  20  21
HETATM   21  C   UNK N   1      35.444  13.759  13.149  0.00  0.00     0.004 C 
BRANCH  21  22
HETATM   22  C   UNK N   1      36.475  14.401  14.053  0.00  0.00    -0.000 C 
BRANCH  22  23
HETATM   23  C   UNK N   1      36.865  13.460  15.170  0.00  0.00    -0.005 C 
HETATM   24  C   UNK N   1      35.662  13.231  16.061  0.00  0.00     0.005 C 
ENDBRANCH  22  23
ENDBRANCH  21  22
ENDBRANCH  20  21
ENDBRANCH  19  20
ENDBRANCH   1  18
TORSDOF 12
ENDMDL
MODEL 6
REMARK VINA RESULT:      -5.6     11.160     15.153
REMARK  12 active torsions:
REMARK  status: ('A' for Active; 'I' for Inactive)
REMARK    1  A    between atoms: C_2  and  C_3 
REMARK    2  A    between atoms: C_3  and  C_4 
REMARK    3  A    between atoms: C_4  and  C_5 
REMARK    4  A    between atoms: C_5  and  C_6 
REMARK    5  A    between atoms: C_7  and  C_8 
REMARK    6  A    between atoms: C_14  and  C_15 
REMARK    7  A    between atoms: C_15  and  C_16 
REMARK    8  A    between atoms: C_17  and  C_18 
REMARK    9  A    between atoms: C_18  and  C_19 
REMARK   10  A    between atoms: C_19  and  C_20 
REMARK   11  A    between atoms: C_20  and  C_21 
REMARK   12  A    between atoms: C_21  and  O_23 
ROOT
HETATM    1  C   UNK N   1      30.700  16.990   5.584  0.00  0.00     0.011 C 
HETATM    2  C   UNK N   1      31.701  16.538   4.808  0.00  0.00    -0.000 A 
HETATM    3  C   UNK N   1      31.681  16.364   3.367  0.00  0.00     0.178 A 
HETATM    4  O   UNK N   1      30.740  16.596   2.623  0.00  0.00    -0.288 OA
HETATM    5  C   UNK N   1      32.962  15.856   2.946  0.00  0.00     0.052 A 
HETATM    6  C   UNK N   1      33.743  15.713   4.024  0.00  0.00    -0.013 A 
HETATM    7  C   UNK N   1      33.057  16.122   5.319  0.00  0.00     0.049 A 
ENDROOT
BRANCH   7   8
HETATM    8  C   UNK N   1      33.829  17.268   5.974  0.00  0.00     0.040 C 
BRANCH   8   9
HETATM    9  C   UNK N   1      34.181  16.949   7.396  0.00  0.00    -0.030 C 
HETATM   10  C   UNK N   1      33.519  17.437   8.446  0.00  0.00    -0.031 C 
BRANCH  10  11
HETATM   11  C   UNK N   1      32.352  18.356   8.321  0.00  0.00     0.027 C 
BRANCH  11  12
HETATM   12  C   UNK N   1      31.157  17.654   8.923  0.00  0.00     0.014 C 
BRANCH  12  13
HETATM   13  C   UNK N   1      29.984  18.609   9.053  0.00  0.00     0.110 C 
BRANCH  13  14
HETATM   14  C   UNK N   1      28.759  17.902   9.553  0.00  0.00     0.139 C 
HETATM   15  O   UNK N   1      28.883  16.887  10.217  0.00  0.00    -0.650 OA
BRANCH  14  16
HETATM   16  O   UNK N   1      27.525  18.376   9.284  0.00  0.00    -0.776 OA
HETATM   17  H   UNK N   1      26.997  18.726   9.974  0.00  0.00     0.167 HD
ENDBRANCH  14  16
ENDBRANCH  13  14
ENDBRANCH  12  13
ENDBRANCH  11  12
ENDBRANCH  10  11
ENDBRANCH   8   9
ENDBRANCH   7   8
BRANCH   1  18
HETATM   18  C   UNK N   1      29.405  17.393   5.030  0.00  0.00    -0.003 C 
HETATM   19  C   UNK N   1      28.721  18.407   5.546  0.00  0.00    -0.027 C 
BRANCH  19  20
HETATM   20  C   UNK N   1      27.419  18.766   4.922  0.00  0.00     0.027 C 
BRANCH  20  21
HETATM   21  C   UNK N   1      26.675  19.793   5.744  0.00  0.00     0.004 C 
BRANCH  21  22
HETATM   22  C   UNK N   1      25.857  20.633   4.785  0.00  0.00    -0.000 C 
BRANCH  22  23
HETATM   23  C   UNK N   1      26.315  20.416   3.361  0.00  0.00    -0.005 C 
HETATM   24  C   UNK N   1      25.113  20.493   2.443  0.00  0.00     0.005 C 
ENDBRANCH  22  23
ENDBRANCH  21  22
ENDBRANCH  20  21
ENDBRANCH  19  20
ENDBRANCH   1  18
TORSDOF 12
ENDMDL
MODEL 7
REMARK VINA RESULT:      -5.5      2.221      4.838
REMARK  12 active torsions:
REMARK  status: ('A' for Active; 'I' for Inactive)
REMARK    1  A    between atoms: C_2  and  C_3 
REMARK    2  A    between atoms: C_3  and  C_4 
REMARK    3  A    between atoms: C_4  and  C_5 
REMARK    4  A    between atoms: C_5  and  C_6 
REMARK    5  A    between atoms: C_7  and  C_8 
REMARK    6  A    between atoms: C_14  and  C_15 
REMARK    7  A    between atoms: C_15  and  C_16 
REMARK    8  A    between atoms: C_17  and  C_18 
REMARK    9  A    between atoms: C_18  and  C_19 
REMARK   10  A    between atoms: C_19  and  C_20 
REMARK   11  A    between atoms: C_20  and  C_21 
REMARK   12  A    between atoms: C_21  and  O_23 
ROOT
HETATM    1  C   UNK N   1      26.765  26.157  -7.626  0.00  0.00     0.011 C 
HETATM    2  C   UNK N   1      26.478  26.910  -6.550  0.00  0.00    -0.000 A 
HETATM    3  C   UNK N   1      25.451  26.660  -5.555  0.00  0.00     0.178 A 
HETATM    4  O   UNK N   1      24.671  25.719  -5.540  0.00  0.00    -0.288 OA
HETATM    5  C   UNK N   1      25.489  27.717  -4.576  0.00  0.00     0.052 A 
HETATM    6  C   UNK N   1      26.458  28.578  -4.911  0.00  0.00    -0.013 A 
HETATM    7  C   UNK N   1      27.198  28.183  -6.181  0.00  0.00     0.049 A 
ENDROOT
BRANCH   7   8
HETATM    8  C   UNK N   1      28.679  27.967  -5.871  0.00  0.00     0.040 C 
BRANCH   8   9
HETATM    9  C   UNK N   1      28.881  27.497  -4.461  0.00  0.00    -0.030 C 
HETATM   10  C   UNK N   1      29.219  26.248  -4.142  0.00  0.00    -0.031 C 
BRANCH  10  11
HETATM   11  C   UNK N   1      29.436  25.176  -5.156  0.00  0.00     0.027 C 
BRANCH  11  12
HETATM   12  C   UNK N   1      28.682  23.952  -4.687  0.00  0.00     0.014 C 
BRANCH  12  13
HETATM   13  C   UNK N   1      28.707  23.854  -3.173  0.00  0.00     0.110 C 
BRANCH  13  14
HETATM   14  C   UNK N   1      29.750  22.882  -2.707  0.00  0.00     0.139 C 
HETATM   15  O   UNK N   1      30.033  21.926  -3.409  0.00  0.00    -0.650 OA
BRANCH  14  16
HETATM   16  O   UNK N   1      30.384  23.054  -1.529  0.00  0.00    -0.776 OA
HETATM   17  H   UNK N   1      29.962  23.518  -0.833  0.00  0.00     0.167 HD
ENDBRANCH  14  16
ENDBRANCH  13  14
ENDBRANCH  12  13
ENDBRANCH  11  12
ENDBRANCH  10  11
ENDBRANCH   8   9
ENDBRANCH   7   8
BRANCH   1  18
HETATM   18  C   UNK N   1      26.039  24.921  -7.929  0.00  0.00    -0.003 C 
HETATM   19  C   UNK N   1      26.611  23.732  -7.777  0.00  0.00    -0.027 C 
BRANCH  19  20
HETATM   20  C   UNK N   1      25.807  22.521  -8.091  0.00  0.00     0.027 C 
BRANCH  20  21
HETATM   21  C   UNK N   1      26.661  21.274  -8.096  0.00  0.00     0.004 C 
BRANCH  21  22
HETATM   22  C   UNK N   1      28.105  21.716  -8.211  0.00  0.00    -0.000 C 
BRANCH  22  23
HETATM   23  C   UNK N   1      28.988  20.896  -7.298  0.00  0.00    -0.005 C 
HETATM   24  C   UNK N   1      29.033  19.471  -7.810  0.00  0.00     0.005 C 
ENDBRANCH  22  23
ENDBRANCH  21  22
ENDBRANCH  20  21
ENDBRANCH  19  20
ENDBRANCH   1  18
TORSDOF 12
ENDMDL
MODEL 8
REMARK VINA RESULT:      -5.4      1.936      3.234
REMARK  12 active torsions:
REMARK  status: ('A' for Active; 'I' for Inactive)
REMARK    1  A    between atoms: C_2  and  C_3 
REMARK    2  A    between atoms: C_3  and  C_4 
REMARK    3  A    between atoms: C_4  and  C_5 
REMARK    4  A    between atoms: C_5  and  C_6 
REMARK    5  A    between atoms: C_7  and  C_8 
REMARK    6  A    between atoms: C_14  and  C_15 
REMARK    7  A    between atoms: C_15  and  C_16 
REMARK    8  A    between atoms: C_17  and  C_18 
REMARK    9  A    between atoms: C_18  and  C_19 
REMARK   10  A    between atoms: C_19  and  C_20 
REMARK   11  A    between atoms: C_20  and  C_21 
REMARK   12  A    between atoms: C_21  and  O_23 
ROOT
HETATM    1  C   UNK N   1      30.029  27.426  -3.814  0.00  0.00     0.011 C 
HETATM    2  C   UNK N   1      29.245  28.013  -4.736  0.00  0.00    -0.000 A 
HETATM    3  C   UNK N   1      28.898  27.494  -6.046  0.00  0.00     0.178 A 
HETATM    4  O   UNK N   1      29.273  26.436  -6.529  0.00  0.00    -0.288 OA
HETATM    5  C   UNK N   1      28.037  28.444  -6.705  0.00  0.00     0.052 A 
HETATM    6  C   UNK N   1      27.845  29.487  -5.888  0.00  0.00    -0.013 A 
HETATM    7  C   UNK N   1      28.571  29.350  -4.558  0.00  0.00     0.049 A 
ENDROOT
BRANCH   7   8
HETATM    8  C   UNK N   1      27.559  29.364  -3.413  0.00  0.00     0.040 C 
BRANCH   8   9
HETATM    9  C   UNK N   1      26.183  29.010  -3.892  0.00  0.00    -0.030 C 
HETATM   10  C   UNK N   1      25.653  27.793  -3.776  0.00  0.00    -0.031 C 
BRANCH  10  11
HETATM   11  C   UNK N   1      26.372  26.644  -3.154  0.00  0.00     0.027 C 
BRANCH  11  12
HETATM   12  C   UNK N   1      26.398  25.524  -4.168  0.00  0.00     0.014 C 
BRANCH  12  13
HETATM   13  C   UNK N   1      25.582  25.890  -5.393  0.00  0.00     0.110 C 
BRANCH  13  14
HETATM   14  C   UNK N   1      25.835  24.936  -6.522  0.00  0.00     0.139 C 
HETATM   15  O   UNK N   1      25.287  23.847  -6.519  0.00  0.00    -0.650 OA
BRANCH  14  16
HETATM   16  O   UNK N   1      26.652  25.268  -7.543  0.00  0.00    -0.776 OA
HETATM   17  H   UNK N   1      27.287  25.947  -7.434  0.00  0.00     0.167 HD
ENDBRANCH  14  16
ENDBRANCH  13  14
ENDBRANCH  12  13
ENDBRANCH  11  12
ENDBRANCH  10  11
ENDBRANCH   8   9
ENDBRANCH   7   8
BRANCH   1  18
HETATM   18  C   UNK N   1      30.650  26.118  -4.036  0.00  0.00    -0.003 C 
HETATM   19  C   UNK N   1      30.194  25.028  -3.430  0.00  0.00    -0.027 C 
BRANCH  19  20
HETATM   20  C   UNK N   1      30.867  23.732  -3.715  0.00  0.00     0.027 C 
BRANCH  20  21
HETATM   21  C   UNK N   1      29.935  22.563  -3.492  0.00  0.00     0.004 C 
BRANCH  21  22
HETATM   22  C   UNK N   1      30.392  21.441  -4.400  0.00  0.00    -0.000 C 
BRANCH  22  23
HETATM   23  C   UNK N   1      29.776  21.581  -5.772  0.00  0.00    -0.005 C 
HETATM   24  C   UNK N   1      30.100  20.344  -6.584  0.00  0.00     0.005 C 
ENDBRANCH  22  23
ENDBRANCH  21  22
ENDBRANCH  20  21
ENDBRANCH  19  20
ENDBRANCH   1  18
TORSDOF 12
ENDMDL
MODEL 9
REMARK VINA RESULT:      -5.4     13.323     15.884
REMARK  12 active torsions:
REMARK  status: ('A' for Active; 'I' for Inactive)
REMARK    1  A    between atoms: C_2  and  C_3 
REMARK    2  A    between atoms: C_3  and  C_4 
REMARK    3  A    between atoms: C_4  and  C_5 
REMARK    4  A    between atoms: C_5  and  C_6 
REMARK    5  A    between atoms: C_7  and  C_8 
REMARK    6  A    between atoms: C_14  and  C_15 
REMARK    7  A    between atoms: C_15  and  C_16 
REMARK    8  A    between atoms: C_17  and  C_18 
REMARK    9  A    between atoms: C_18  and  C_19 
REMARK   10  A    between atoms: C_19  and  C_20 
REMARK   11  A    between atoms: C_20  and  C_21 
REMARK   12  A    between atoms: C_21  and  O_23 
ROOT
HETATM    1  C   UNK N   1      32.699  17.437   4.843  0.00  0.00     0.011 C 
HETATM    2  C   UNK N   1      32.259  16.271   4.337  0.00  0.00    -0.000 A 
HETATM    3  C   UNK N   1      32.715  14.939   4.686  0.00  0.00     0.178 A 
HETATM    4  O   UNK N   1      33.586  14.660   5.497  0.00  0.00    -0.288 OA
HETATM    5  C   UNK N   1      31.976  13.979   3.905  0.00  0.00     0.052 A 
HETATM    6  C   UNK N   1      31.116  14.637   3.118  0.00  0.00    -0.013 A 
HETATM    7  C   UNK N   1      31.182  16.148   3.289  0.00  0.00     0.049 A 
ENDROOT
BRANCH   7   8
HETATM    8  C   UNK N   1      29.826  16.675   3.757  0.00  0.00     0.040 C 
BRANCH   8   9
HETATM    9  C   UNK N   1      29.192  15.750   4.753  0.00  0.00    -0.030 C 
HETATM   10  C   UNK N   1      28.989  16.070   6.031  0.00  0.00    -0.031 C 
BRANCH  10  11
HETATM   11  C   UNK N   1      29.371  17.389   6.614  0.00  0.00     0.027 C 
BRANCH  11  12
HETATM   12  C   UNK N   1      30.200  17.116   7.847  0.00  0.00     0.014 C 
BRANCH  12  13
HETATM   13  C   UNK N   1      29.821  18.064   8.969  0.00  0.00     0.110 C 
BRANCH  13  14
HETATM   14  C   UNK N   1      28.473  17.729   9.534  0.00  0.00     0.139 C 
HETATM   15  O   UNK N   1      28.356  16.763  10.269  0.00  0.00    -0.650 OA
BRANCH  14  16
HETATM   16  O   UNK N   1      27.392  18.483   9.247  0.00  0.00    -0.776 OA
HETATM   17  H   UNK N   1      26.958  18.959   9.926  0.00  0.00     0.167 HD
ENDBRANCH  14  16
ENDBRANCH  13  14
ENDBRANCH  12  13
ENDBRANCH  11  12
ENDBRANCH  10  11
ENDBRANCH   8   9
ENDBRANCH   7   8
BRANCH   1  18
HETATM   18  C   UNK N   1      33.742  17.497   5.871  0.00  0.00    -0.003 C 
HETATM   19  C   UNK N   1      33.468  17.896   7.107  0.00  0.00    -0.027 C 
BRANCH  19  20
HETATM   20  C   UNK N   1      34.575  17.918   8.100  0.00  0.00     0.027 C 
BRANCH  20  21
HETATM   21  C   UNK N   1      34.263  17.051   9.298  0.00  0.00     0.004 C 
BRANCH  21  22
HETATM   22  C   UNK N   1      34.640  15.629   8.939  0.00  0.00    -0.000 C 
BRANCH  22  23
HETATM   23  C   UNK N   1      33.706  14.645   9.603  0.00  0.00    -0.005 C 
HETATM   24  C   UNK N   1      32.466  14.492   8.746  0.00  0.00     0.005 C 
ENDBRANCH  22  23
ENDBRANCH  21  22
ENDBRANCH  20  21
ENDBRANCH  19  20
ENDBRANCH   1  18
TORSDOF 12
ENDMDL
