MODEL 1
REMARK VINA RESULT:      -7.2      0.000      0.000
REMARK  6 active torsions:
REMARK  status: ('A' for Active; 'I' for Inactive)
REMARK    1  A    between atoms: C_2  and  C_3 
REMARK    2  A    between atoms: C_3  and  C_4 
REMARK    3  A    between atoms: C_4  and  N_5 
REMARK    4  A    between atoms: C_13  and  N_14 
REMARK    5  A    between atoms: C_17  and  C_18 
REMARK    6  A    between atoms: C_18  and  C_19 
ROOT
HETATM    1  N   UNK N   1      29.882  17.401   5.031  0.00  0.00    -0.320 N 
HETATM    2  C   UNK N   1      28.906  18.320   5.021  0.00  0.00     0.141 A 
HETATM    3  N   UNK N   1      28.329  18.912   3.947  0.00  0.00    -0.336 N 
ATOM      4  HN  UNK N   1      28.629  18.685   2.999  1.00  0.00     0.168 HD
HETATM    5  C   UNK N   1      27.332  19.823   4.173  0.00  0.00     0.183 A 
HETATM    6  N   UNK N   1      26.935  20.118   5.456  0.00  0.00    -0.337 N 
ATOM      7  HN  UNK N   1      26.189  20.798   5.607  1.00  0.00     0.168 HD
HETATM    8  C   UNK N   1      28.532  18.598   6.288  0.00  0.00     0.122 A 
HETATM    9  C   UNK N   1      27.524  19.516   6.531  0.00  0.00     0.131 A 
HETATM   10  N   UNK N   1      29.256  17.864   7.151  0.00  0.00    -0.339 N 
ATOM     11  HN  UNK N   1      29.200  17.862   8.169  1.00  0.00     0.167 HD
HETATM   12  C   UNK N   1      30.078  17.126   6.356  0.00  0.00     0.089 A 
ENDROOT
BRANCH  12  13
HETATM   13  C   UNK N   1      31.021  16.115   6.964  0.00  0.00     0.115 C 
BRANCH  13  14
HETATM   14  C   UNK N   1      32.191  16.586   7.767  0.00  0.00    -0.048 A 
HETATM   15  C   UNK N   1      32.671  15.781   8.819  0.00  0.00     0.047 A 
HETATM   16  C   UNK N   1      33.822  16.200   9.483  0.00  0.00     0.105 A 
HETATM   17  O   UNK N   1      34.464  15.602  10.484  0.00  0.00    -0.323 OA
HETATM   18  C   UNK N   1      34.465  17.327   9.156  0.00  0.00     0.105 A 
HETATM   19  C   UNK N   1      35.576  16.382  10.824  0.00  0.00     0.352 A 
HETATM   20  O   UNK N   1      35.525  17.472   9.949  0.00  0.00    -0.323 OA
HETATM   21  C   UNK N   1      34.039  18.155   8.123  0.00  0.00     0.040 A 
HETATM   22  C   UNK N   1      32.893  17.763   7.405  0.00  0.00     0.010 A 
ENDBRANCH  13  14
ENDBRANCH  12  13
BRANCH   1  23
HETATM   23  C   UNK N   1      30.531  16.830   3.855  0.00  0.00     0.132 C 
BRANCH  23  24
HETATM   24  C   UNK N   1      31.951  17.356   3.696  0.00  0.00     0.020 C 
BRANCH  24  25
HETATM   25  C   UNK N   1      32.870  16.242   3.225  0.00  0.00    -0.003 C 
HETATM   26  C   UNK N   1      33.757  15.757   4.360  0.00  0.00     0.005 C 
ENDBRANCH  24  25
ENDBRANCH  23  24
ENDBRANCH   1  23
BRANCH   9  27
HETATM   27  N   UNK N   1      27.106  19.815   7.843  0.00  0.00    -0.383 N 
HETATM   28  H   UNK N   1      26.720  19.110   8.411  0.00  0.00     0.157 HD
HETATM   29  H   UNK N   1      27.201  20.730   8.192  0.00  0.00     0.157 HD
ENDBRANCH   9  27
TORSDOF 6
ENDMDL
MODEL 2
REMARK VINA RESULT:      -6.6      2.035      3.596
REMARK  6 active torsions:
REMARK  status: ('A' for Active; 'I' for Inactive)
REMARK    1  A    between atoms: C_2  and  C_3 
REMARK    2  A    between atoms: C_3  and  C_4 
REMARK    3  A    between atoms: C_4  and  N_5 
REMARK    4  A    between atoms: C_13  and  N_14 
REMARK    5  A    between atoms: C_17  and  C_18 
REMARK    6  A    between atoms: C_18  and  C_19 
ROOT
HETATM    1  N   UNK N   1      28.558  17.933   6.481  0.00  0.00    -0.320 N 
HETATM    2  C   UNK N   1      27.802  19.028   6.317  0.00  0.00     0.141 A 
HETATM    3  N   UNK N   1      27.280  19.832   7.276  0.00  0.00    -0.336 N 
ATOM      4  HN  UNK N   1      27.432  19.636   8.265  1.00  0.00     0.168 HD
HETATM    5  C   UNK N   1      26.542  20.914   6.876  0.00  0.00     0.183 A 
HETATM    6  N   UNK N   1      26.345  21.168   5.539  0.00  0.00    -0.337 N 
ATOM      7  HN  UNK N   1      25.794  21.979   5.258  1.00  0.00     0.168 HD
HETATM    8  C   UNK N   1      27.619  19.260   5.001  0.00  0.00     0.122 A 
HETATM    9  C   UNK N   1      26.876  20.351   4.582  0.00  0.00     0.131 A 
HETATM   10  N   UNK N   1      28.254  18.321   4.277  0.00  0.00    -0.339 N 
ATOM     11  HN  UNK N   1      28.291  18.233   3.262  1.00  0.00     0.167 HD
HETATM   12  C   UNK N   1      28.834  17.516   5.209  0.00  0.00     0.089 A 
ENDROOT
BRANCH  12  13
HETATM   13  C   UNK N   1      29.701  16.355   4.781  0.00  0.00     0.115 C 
BRANCH  13  14
HETATM   14  C   UNK N   1      31.165  16.375   5.087  0.00  0.00    -0.048 A 
HETATM   15  C   UNK N   1      31.766  15.229   5.643  0.00  0.00     0.047 A 
HETATM   16  C   UNK N   1      33.147  15.244   5.823  0.00  0.00     0.105 A 
HETATM   17  O   UNK N   1      33.929  14.282   6.307  0.00  0.00    -0.323 OA
HETATM   18  C   UNK N   1      33.900  16.301   5.493  0.00  0.00     0.105 A 
HETATM   19  C   UNK N   1      35.252  14.739   6.293  0.00  0.00     0.352 A 
HETATM   20  O   UNK N   1      35.174  16.034   5.769  0.00  0.00    -0.323 OA
HETATM   21  C   UNK N   1      33.359  17.455   4.934  0.00  0.00     0.040 A 
HETATM   22  C   UNK N   1      31.970  17.480   4.710  0.00  0.00     0.010 A 
ENDBRANCH  13  14
ENDBRANCH  12  13
BRANCH   1  23
HETATM   23  C   UNK N   1      28.990  17.376   7.759  0.00  0.00     0.132 C 
BRANCH  23  24
HETATM   24  C   UNK N   1      30.154  18.164   8.343  0.00  0.00     0.020 C 
BRANCH  24  25
HETATM   25  C   UNK N   1      31.312  17.231   8.653  0.00  0.00    -0.003 C 
HETATM   26  C   UNK N   1      32.643  17.942   8.465  0.00  0.00     0.005 C 
ENDBRANCH  24  25
ENDBRANCH  23  24
ENDBRANCH   1  23
BRANCH   9  27
HETATM   27  N   UNK N   1      26.680  20.623   3.213  0.00  0.00    -0.383 N 
HETATM   28  H   UNK N   1      26.854  19.924   2.541  0.00  0.00     0.157 HD
HETATM   29  H   UNK N   1      26.369  21.512   2.928  0.00  0.00     0.157 HD
ENDBRANCH   9  27
TORSDOF 6
ENDMDL
MODEL 3
REMARK VINA RESULT:      -6.5     13.414     15.877
REMARK  6 active torsions:
REMARK  status: ('A' for Active; 'I' for Inactive)
REMARK    1  A    between atoms: C_2  and  C_3 
REMARK    2  A    between atoms: C_3  and  C_4 
REMARK    3  A    between atoms: C_4  and  N_5 
REMARK    4  A    between atoms: C_13  and  N_14 
REMARK    5  A    between atoms: C_17  and  C_18 
REMARK    6  A    between atoms: C_18  and  C_19 
ROOT
HETATM    1  N   UNK N   1      27.648  23.538  -5.848  0.00  0.00    -0.320 N 
HETATM    2  C   UNK N   1      27.210  22.671  -6.773  0.00  0.00     0.141 A 
HETATM    3  N   UNK N   1      27.948  21.898  -7.606  0.00  0.00    -0.336 N 
ATOM      4  HN  UNK N   1      28.967  21.934  -7.590  1.00  0.00     0.168 HD
HETATM    5  C   UNK N   1      27.284  21.068  -8.469  0.00  0.00     0.183 A 
HETATM    6  N   UNK N   1      25.910  21.027  -8.479  0.00  0.00    -0.337 N 
ATOM      7  HN  UNK N   1      25.431  20.401  -9.127  1.00  0.00     0.168 HD
HETATM    8  C   UNK N   1      25.861  22.647  -6.768  0.00  0.00     0.122 A 
HETATM    9  C   UNK N   1      25.177  21.811  -7.635  0.00  0.00     0.131 A 
HETATM   10  N   UNK N   1      25.389  23.497  -5.840  0.00  0.00    -0.339 N 
ATOM     11  HN  UNK N   1      24.416  23.695  -5.610  1.00  0.00     0.167 HD
HETATM   12  C   UNK N   1      26.508  24.032  -5.277  0.00  0.00     0.089 A 
ENDROOT
BRANCH  12  13
HETATM   13  C   UNK N   1      26.393  25.008  -4.130  0.00  0.00     0.115 C 
BRANCH  13  14
HETATM   14  C   UNK N   1      26.497  26.476  -4.396  0.00  0.00    -0.048 A 
HETATM   15  C   UNK N   1      26.313  27.382  -3.333  0.00  0.00     0.047 A 
HETATM   16  C   UNK N   1      26.516  28.735  -3.593  0.00  0.00     0.105 A 
HETATM   17  O   UNK N   1      26.419  29.762  -2.751  0.00  0.00    -0.323 OA
HETATM   18  C   UNK N   1      26.867  29.187  -4.802  0.00  0.00     0.105 A 
HETATM   19  C   UNK N   1      26.721  30.936  -3.452  0.00  0.00     0.352 A 
HETATM   20  O   UNK N   1      26.993  30.511  -4.756  0.00  0.00    -0.323 OA
HETATM   21  C   UNK N   1      27.068  28.337  -5.885  0.00  0.00     0.040 A 
HETATM   22  C   UNK N   1      26.900  26.956  -5.668  0.00  0.00     0.010 A 
ENDBRANCH  13  14
ENDBRANCH  12  13
BRANCH   1  23
HETATM   23  C   UNK N   1      29.045  23.826  -5.539  0.00  0.00     0.132 C 
BRANCH  23  24
HETATM   24  C   UNK N   1      29.513  23.051  -4.316  0.00  0.00     0.020 C 
BRANCH  24  25
HETATM   25  C   UNK N   1      29.876  24.011  -3.196  0.00  0.00    -0.003 C 
HETATM   26  C   UNK N   1      30.127  25.407  -3.743  0.00  0.00     0.005 C 
ENDBRANCH  24  25
ENDBRANCH  23  24
ENDBRANCH   1  23
BRANCH   9  27
HETATM   27  N   UNK N   1      23.768  21.757  -7.642  0.00  0.00    -0.383 N 
HETATM   28  H   UNK N   1      23.258  22.276  -8.305  0.00  0.00     0.157 HD
HETATM   29  H   UNK N   1      23.295  21.199  -6.985  0.00  0.00     0.157 HD
ENDBRANCH   9  27
TORSDOF 6
ENDMDL
MODEL 4
REMARK VINA RESULT:      -6.4      1.792      2.546
REMARK  6 active torsions:
REMARK  status: ('A' for Active; 'I' for Inactive)
REMARK    1  A    between atoms: C_2  and  C_3 
REMARK    2  A    between atoms: C_3  and  C_4 
REMARK    3  A    between atoms: C_4  and  N_5 
REMARK    4  A    between atoms: C_13  and  N_14 
REMARK    5  A    between atoms: C_17  and  C_18 
REMARK    6  A    between atoms: C_18  and  C_19 
ROOT
HETATM    1  N   UNK N   1      31.326  17.077   6.481  0.00  0.00    -0.320 N 
HETATM    2  C   UNK N   1      29.987  17.152   6.520  0.00  0.00     0.141 A 
HETATM    3  N   UNK N   1      29.103  16.770   5.566  0.00  0.00    -0.336 N 
ATOM      4  HN  UNK N   1      29.424  16.376   4.681  1.00  0.00     0.168 HD
HETATM    5  C   UNK N   1      27.768  16.927   5.826  0.00  0.00     0.183 A 
HETATM    6  N   UNK N   1      27.349  17.457   7.024  0.00  0.00    -0.337 N 
ATOM      7  HN  UNK N   1      26.351  17.566   7.203  1.00  0.00     0.168 HD
HETATM    8  C   UNK N   1      29.596  17.674   7.700  0.00  0.00     0.122 A 
HETATM    9  C   UNK N   1      28.249  17.838   7.977  0.00  0.00     0.131 A 
HETATM   10  N   UNK N   1      30.671  17.951   8.458  0.00  0.00    -0.339 N 
ATOM     11  HN  UNK N   1      30.689  18.356   9.394  1.00  0.00     0.167 HD
HETATM   12  C   UNK N   1      31.729  17.568   7.692  0.00  0.00     0.089 A 
ENDROOT
BRANCH  12  13
HETATM   13  C   UNK N   1      33.137  17.668   8.229  0.00  0.00     0.115 C 
BRANCH  13  14
HETATM   14  C   UNK N   1      33.707  16.535   9.021  0.00  0.00    -0.048 A 
HETATM   15  C   UNK N   1      34.703  16.802   9.981  0.00  0.00     0.047 A 
HETATM   16  C   UNK N   1      35.142  15.741  10.772  0.00  0.00     0.105 A 
HETATM   17  O   UNK N   1      36.049  15.755  11.745  0.00  0.00    -0.323 OA
HETATM   18  C   UNK N   1      34.655  14.502  10.639  0.00  0.00     0.105 A 
HETATM   19  C   UNK N   1      36.157  14.461  12.266  0.00  0.00     0.352 A 
HETATM   20  O   UNK N   1      35.249  13.701  11.521  0.00  0.00    -0.323 OA
HETATM   21  C   UNK N   1      33.666  14.185   9.713  0.00  0.00     0.040 A 
HETATM   22  C   UNK N   1      33.172  15.227   8.906  0.00  0.00     0.010 A 
ENDBRANCH  13  14
ENDBRANCH  12  13
BRANCH   1  23
HETATM   23  C   UNK N   1      32.121  16.547   5.379  0.00  0.00     0.132 C 
BRANCH  23  24
HETATM   24  C   UNK N   1      32.370  17.607   4.315  0.00  0.00     0.020 C 
BRANCH  24  25
HETATM   25  C   UNK N   1      32.445  16.962   2.942  0.00  0.00    -0.003 C 
HETATM   26  C   UNK N   1      33.398  15.777   2.953  0.00  0.00     0.005 C 
ENDBRANCH  24  25
ENDBRANCH  23  24
ENDBRANCH   1  23
BRANCH   9  27
HETATM   27  N   UNK N   1      27.813  18.371   9.208  0.00  0.00    -0.383 N 
HETATM   28  H   UNK N   1      28.468  18.597   9.907  0.00  0.00     0.157 HD
HETATM   29  H   UNK N   1      26.853  18.516   9.367  0.00  0.00     0.157 HD
ENDBRANCH   9  27
TORSDOF 6
ENDMDL
MODEL 5
REMARK VINA RESULT:      -6.4      7.562     11.044
REMARK  6 active torsions:
REMARK  status: ('A' for Active; 'I' for Inactive)
REMARK    1  A    between atoms: C_2  and  C_3 
REMARK    2  A    between atoms: C_3  and  C_4 
REMARK    3  A    between atoms: C_4  and  N_5 
REMARK    4  A    between atoms: C_13  and  N_14 
REMARK    5  A    between atoms: C_17  and  C_18 
REMARK    6  A    between atoms: C_18  and  C_19 
ROOT
HETATM    1  N   UNK N   1      36.449  11.983  12.526  0.00  0.00    -0.320 N 
HETATM    2  C   UNK N   1      36.554  13.048  11.717  0.00  0.00     0.141 A 
HETATM    3  N   UNK N   1      37.635  13.450  11.005  0.00  0.00    -0.336 N 
ATOM      4  HN  UNK N   1      38.513  12.934  11.047  1.00  0.00     0.168 HD
HETATM    5  C   UNK N   1      37.511  14.570  10.227  0.00  0.00     0.183 A 
HETATM    6  N   UNK N   1      36.321  15.257  10.176  0.00  0.00    -0.337 N 
ATOM      7  HN  UNK N   1      36.245  16.088   9.590  1.00  0.00     0.168 HD
HETATM    8  C   UNK N   1      35.378  13.708  11.682  0.00  0.00     0.122 A 
HETATM    9  C   UNK N   1      35.239  14.842  10.898  0.00  0.00     0.131 A 
HETATM   10  N   UNK N   1      34.479  13.088  12.466  0.00  0.00    -0.339 N 
ATOM     11  HN  UNK N   1      33.512  13.356  12.642  1.00  0.00     0.167 HD
HETATM   12  C   UNK N   1      35.157  12.021  12.973  0.00  0.00     0.089 A 
ENDROOT
BRANCH  12  13
HETATM   13  C   UNK N   1      34.458  11.029  13.872  0.00  0.00     0.115 C 
BRANCH  13  14
HETATM   14  C   UNK N   1      34.764  11.016  15.335  0.00  0.00    -0.048 A 
HETATM   15  C   UNK N   1      34.886  12.239  16.023  0.00  0.00     0.047 A 
HETATM   16  C   UNK N   1      35.071  12.192  17.403  0.00  0.00     0.105 A 
HETATM   17  O   UNK N   1      35.193  13.206  18.257  0.00  0.00    -0.323 OA
HETATM   18  C   UNK N   1      35.141  11.037  18.075  0.00  0.00     0.105 A 
HETATM   19  C   UNK N   1      35.351  12.681  19.545  0.00  0.00     0.352 A 
HETATM   20  O   UNK N   1      35.316  11.294  19.370  0.00  0.00    -0.323 OA
HETATM   21  C   UNK N   1      35.020   9.801  17.448  0.00  0.00     0.040 A 
HETATM   22  C   UNK N   1      34.807   9.796  16.056  0.00  0.00     0.010 A 
ENDBRANCH  13  14
ENDBRANCH  12  13
BRANCH   1  23
HETATM   23  C   UNK N   1      37.503  11.013  12.804  0.00  0.00     0.132 C 
BRANCH  23  24
HETATM   24  C   UNK N   1      38.098  11.223  14.189  0.00  0.00     0.020 C 
BRANCH  24  25
HETATM   25  C   UNK N   1      38.666   9.916  14.716  0.00  0.00    -0.003 C 
HETATM   26  C   UNK N   1      37.815   8.738  14.270  0.00  0.00     0.005 C 
ENDBRANCH  24  25
ENDBRANCH  23  24
ENDBRANCH   1  23
BRANCH   9  27
HETATM   27  N   UNK N   1      34.018  15.543  10.834  0.00  0.00    -0.383 N 
HETATM   28  H   UNK N   1      33.440  15.457  10.041  0.00  0.00     0.157 HD
HETATM   29  H   UNK N   1      33.742  16.118  11.583  0.00  0.00     0.157 HD
ENDBRANCH   9  27
TORSDOF 6
ENDMDL
MODEL 6
REMARK VINA RESULT:      -6.4      2.185      4.269
REMARK  6 active torsions:
REMARK  status: ('A' for Active; 'I' for Inactive)
REMARK    1  A    between atoms: C_2  and  C_3 
REMARK    2  A    between atoms: C_3  and  C_4 
REMARK    3  A    between atoms: C_4  and  N_5 
REMARK    4  A    between atoms: C_13  and  N_14 
REMARK    5  A    between atoms: C_17  and  C_18 
REMARK    6  A    between atoms: C_18  and  C_19 
ROOT
HETATM    1  N   UNK N   1      31.518  17.196   7.007  0.00  0.00    -0.320 N 
HETATM    2  C   UNK N   1      30.820  17.039   5.873  0.00  0.00     0.141 A 
HETATM    3  N   UNK N   1      29.494  16.796   5.738  0.00  0.00    -0.336 N 
ATOM      4  HN  UNK N   1      28.891  16.700   6.556  1.00  0.00     0.168 HD
HETATM    5  C   UNK N   1      28.986  16.683   4.471  0.00  0.00     0.183 A 
HETATM    6  N   UNK N   1      29.808  16.816   3.376  0.00  0.00    -0.337 N 
ATOM      7  HN  UNK N   1      29.414  16.731   2.439  1.00  0.00     0.168 HD
HETATM    8  C   UNK N   1      31.643  17.171   4.812  0.00  0.00     0.122 A 
HETATM    9  C   UNK N   1      31.143  17.061   3.525  0.00  0.00     0.131 A 
HETATM   10  N   UNK N   1      32.896  17.419   5.231  0.00  0.00    -0.339 N 
ATOM     11  HN  UNK N   1      33.730  17.560   4.661  1.00  0.00     0.167 HD
HETATM   12  C   UNK N   1      32.797  17.438   6.588  0.00  0.00     0.089 A 
ENDROOT
BRANCH  12  13
HETATM   13  C   UNK N   1      34.007  17.750   7.438  0.00  0.00     0.115 C 
BRANCH  13  14
HETATM   14  C   UNK N   1      34.582  16.690   8.321  0.00  0.00    -0.048 A 
HETATM   15  C   UNK N   1      34.851  16.992   9.671  0.00  0.00     0.047 A 
HETATM   16  C   UNK N   1      35.291  15.956  10.492  0.00  0.00     0.105 A 
HETATM   17  O   UNK N   1      35.587  15.997  11.789  0.00  0.00    -0.323 OA
HETATM   18  C   UNK N   1      35.467  14.709  10.038  0.00  0.00     0.105 A 
HETATM   19  C   UNK N   1      35.976  14.714  12.193  0.00  0.00     0.352 A 
HETATM   20  O   UNK N   1      35.887  13.935  11.036  0.00  0.00    -0.323 OA
HETATM   21  C   UNK N   1      35.211  14.355   8.717  0.00  0.00     0.040 A 
HETATM   22  C   UNK N   1      34.741  15.361   7.852  0.00  0.00     0.010 A 
ENDBRANCH  13  14
ENDBRANCH  12  13
BRANCH   1  23
HETATM   23  C   UNK N   1      30.974  17.144   8.360  0.00  0.00     0.132 C 
BRANCH  23  24
HETATM   24  C   UNK N   1      30.667  18.538   8.888  0.00  0.00     0.020 C 
BRANCH  24  25
HETATM   25  C   UNK N   1      29.472  18.490   9.824  0.00  0.00    -0.003 C 
HETATM   26  C   UNK N   1      28.239  17.974   9.100  0.00  0.00     0.005 C 
ENDBRANCH  24  25
ENDBRANCH  23  24
ENDBRANCH   1  23
BRANCH   9  27
HETATM   27  N   UNK N   1      31.979  17.207   2.399  0.00  0.00    -0.383 N 
HETATM   28  H   UNK N   1      32.956  17.152   2.500  0.00  0.00     0.157 HD
HETATM   29  H   UNK N   1      31.584  17.364   1.512  0.00  0.00     0.157 HD
ENDBRANCH   9  27
TORSDOF 6
ENDMDL
MODEL 7
REMARK VINA RESULT:      -6.2      2.112      2.980
REMARK  6 active torsions:
REMARK  status: ('A' for Active; 'I' for Inactive)
REMARK    1  A    between atoms: C_2  and  C_3 
REMARK    2  A    between atoms: C_3  and  C_4 
REMARK    3  A    between atoms: C_4  and  N_5 
REMARK    4  A    between atoms: C_13  and  N_14 
REMARK    5  A    between atoms: C_17  and  C_18 
REMARK    6  A    between atoms: C_18  and  C_19 
ROOT
HETATM    1  N   UNK N   1      27.255  16.917   4.568  0.00  0.00    -0.320 N 
HETATM    2  C   UNK N   1      26.542  18.037   4.374  0.00  0.00     0.141 A 
HETATM    3  N   UNK N   1      25.452  18.205   3.587  0.00  0.00    -0.336 N 
ATOM      4  HN  UNK N   1      25.077  17.431   3.038  1.00  0.00     0.168 HD
HETATM    5  C   UNK N   1      24.871  19.444   3.550  0.00  0.00     0.183 A 
HETATM    6  N   UNK N   1      25.385  20.478   4.296  0.00  0.00    -0.337 N 
ATOM      7  HN  UNK N   1      24.939  21.395   4.258  1.00  0.00     0.168 HD
HETATM    8  C   UNK N   1      27.063  19.039   5.112  0.00  0.00     0.122 A 
HETATM    9  C   UNK N   1      26.484  20.297   5.086  0.00  0.00     0.131 A 
HETATM   10  N   UNK N   1      28.126  18.595   5.805  0.00  0.00    -0.339 N 
ATOM     11  HN  UNK N   1      28.723  19.123   6.441  1.00  0.00     0.167 HD
HETATM   12  C   UNK N   1      28.224  17.281   5.461  0.00  0.00     0.089 A 
ENDROOT
BRANCH  12  13
HETATM   13  C   UNK N   1      29.282  16.405   6.089  0.00  0.00     0.115 C 
BRANCH  13  14
HETATM   14  C   UNK N   1      30.687  16.906   6.198  0.00  0.00    -0.048 A 
HETATM   15  C   UNK N   1      31.219  17.186   7.472  0.00  0.00     0.047 A 
HETATM   16  C   UNK N   1      32.561  17.555   7.547  0.00  0.00     0.105 A 
HETATM   17  O   UNK N   1      33.280  17.845   8.629  0.00  0.00    -0.323 OA
HETATM   18  C   UNK N   1      33.337  17.654   6.461  0.00  0.00     0.105 A 
HETATM   19  C   UNK N   1      34.584  18.150   8.223  0.00  0.00     0.352 A 
HETATM   20  O   UNK N   1      34.563  18.018   6.831  0.00  0.00    -0.323 OA
HETATM   21  C   UNK N   1      32.865  17.383   5.181  0.00  0.00     0.040 A 
HETATM   22  C   UNK N   1      31.521  16.983   5.054  0.00  0.00     0.010 A 
ENDBRANCH  13  14
ENDBRANCH  12  13
BRANCH   1  23
HETATM   23  C   UNK N   1      26.988  15.618   3.960  0.00  0.00     0.132 C 
BRANCH  23  24
HETATM   24  C   UNK N   1      27.488  15.566   2.523  0.00  0.00     0.020 C 
BRANCH  24  25
HETATM   25  C   UNK N   1      28.997  15.391   2.501  0.00  0.00    -0.003 C 
HETATM   26  C   UNK N   1      29.401  14.094   3.184  0.00  0.00     0.005 C 
ENDBRANCH  24  25
ENDBRANCH  23  24
ENDBRANCH   1  23
BRANCH   9  27
HETATM   27  N   UNK N   1      27.001  21.358   5.856  0.00  0.00    -0.383 N 
HETATM   28  H   UNK N   1      27.957  21.584   5.806  0.00  0.00     0.157 HD
HETATM   29  H   UNK N   1      26.404  21.874   6.444  0.00  0.00     0.157 HD
ENDBRANCH   9  27
TORSDOF 6
ENDMDL
MODEL 8
REMARK VINA RESULT:      -6.1      6.917     10.060
REMARK  6 active torsions:
REMARK  status: ('A' for Active; 'I' for Inactive)
REMARK    1  A    between atoms: C_2  and  C_3 
REMARK    2  A    between atoms: C_3  and  C_4 
REMARK    3  A    between atoms: C_4  and  N_5 
REMARK    4  A    between atoms: C_13  and  N_14 
REMARK    5  A    between atoms: C_17  and  C_18 
REMARK    6  A    between atoms: C_18  and  C_19 
ROOT
HETATM    1  N   UNK N   1      35.416  12.578  11.871  0.00  0.00    -0.320 N 
HETATM    2  C   UNK N   1      34.825  13.488  11.082  0.00  0.00     0.141 A 
HETATM    3  N   UNK N   1      33.922  13.274  10.095  0.00  0.00    -0.336 N 
ATOM      4  HN  UNK N   1      33.613  12.331   9.861  1.00  0.00     0.168 HD
HETATM    5  C   UNK N   1      33.436  14.363   9.421  0.00  0.00     0.183 A 
HETATM    6  N   UNK N   1      33.859  15.630   9.746  0.00  0.00    -0.337 N 
ATOM      7  HN  UNK N   1      33.487  16.431   9.236  1.00  0.00     0.168 HD
HETATM    8  C   UNK N   1      35.254  14.723  11.416  0.00  0.00     0.122 A 
HETATM    9  C   UNK N   1      34.770  15.833  10.743  0.00  0.00     0.131 A 
HETATM   10  N   UNK N   1      36.132  14.645  12.430  0.00  0.00    -0.339 N 
ATOM     11  HN  UNK N   1      36.625  15.410  12.890  1.00  0.00     0.167 HD
HETATM   12  C   UNK N   1      36.213  13.314  12.702  0.00  0.00     0.089 A 
ENDROOT
BRANCH  12  13
HETATM   13  C   UNK N   1      37.073  12.818  13.841  0.00  0.00     0.115 C 
BRANCH  13  14
HETATM   14  C   UNK N   1      36.428  12.397  15.123  0.00  0.00    -0.048 A 
HETATM   15  C   UNK N   1      36.806  11.175  15.713  0.00  0.00     0.047 A 
HETATM   16  C   UNK N   1      36.262  10.860  16.956  0.00  0.00     0.105 A 
HETATM   17  O   UNK N   1      36.483   9.783  17.707  0.00  0.00    -0.323 OA
HETATM   18  C   UNK N   1      35.403  11.669  17.587  0.00  0.00     0.105 A 
HETATM   19  C   UNK N   1      35.727   9.900  18.879  0.00  0.00     0.352 A 
HETATM   20  O   UNK N   1      35.054  11.119  18.747  0.00  0.00    -0.323 OA
HETATM   21  C   UNK N   1      35.001  12.890  17.053  0.00  0.00     0.040 A 
HETATM   22  C   UNK N   1      35.541  13.266  15.809  0.00  0.00     0.010 A 
ENDBRANCH  13  14
ENDBRANCH  12  13
BRANCH   1  23
HETATM   23  C   UNK N   1      35.192  11.137  11.829  0.00  0.00     0.132 C 
BRANCH  23  24
HETATM   24  C   UNK N   1      34.163  10.705  12.864  0.00  0.00     0.020 C 
BRANCH  24  25
HETATM   25  C   UNK N   1      34.691   9.527  13.665  0.00  0.00    -0.003 C 
HETATM   26  C   UNK N   1      35.240   8.449  12.744  0.00  0.00     0.005 C 
ENDBRANCH  24  25
ENDBRANCH  23  24
ENDBRANCH   1  23
BRANCH   9  27
HETATM   27  N   UNK N   1      35.192  17.135  11.080  0.00  0.00    -0.383 N 
HETATM   28  H   UNK N   1      34.528  17.848  11.221  0.00  0.00     0.157 HD
HETATM   29  H   UNK N   1      36.152  17.331  11.176  0.00  0.00     0.157 HD
ENDBRANCH   9  27
TORSDOF 6
ENDMDL
MODEL 9
REMARK VINA RESULT:      -6.1     12.806     16.226
REMARK  6 active torsions:
REMARK  status: ('A' for Active; 'I' for Inactive)
REMARK    1  A    between atoms: C_2  and  C_3 
REMARK    2  A    between atoms: C_3  and  C_4 
REMARK    3  A    between atoms: C_4  and  N_5 
REMARK    4  A    between atoms: C_13  and  N_14 
REMARK    5  A    between atoms: C_17  and  C_18 
REMARK    6  A    between atoms: C_18  and  C_19 
ROOT
HETATM    1  N   UNK N   1      26.083  24.575  -5.718  0.00  0.00    -0.320 N 
HETATM    2  C   UNK N   1      26.307  23.798  -6.787  0.00  0.00     0.141 A 
HETATM    3  N   UNK N   1      26.801  22.536  -6.811  0.00  0.00    -0.336 N 
ATOM      4  HN  UNK N   1      27.064  22.059  -5.949  1.00  0.00     0.168 HD
HETATM    5  C   UNK N   1      26.935  21.921  -8.028  0.00  0.00     0.183 A 
HETATM    6  N   UNK N   1      26.574  22.575  -9.183  0.00  0.00    -0.337 N 
ATOM      7  HN  UNK N   1      26.679  22.102 -10.081  1.00  0.00     0.168 HD
HETATM    8  C   UNK N   1      25.948  24.456  -7.909  0.00  0.00     0.122 A 
HETATM    9  C   UNK N   1      26.078  23.846  -9.146  0.00  0.00     0.131 A 
HETATM   10  N   UNK N   1      25.482  25.677  -7.595  0.00  0.00    -0.339 N 
ATOM     11  HN  UNK N   1      25.143  26.400  -8.230  1.00  0.00     0.167 HD
HETATM   12  C   UNK N   1      25.566  25.729  -6.237  0.00  0.00     0.089 A 
ENDROOT
BRANCH  12  13
HETATM   13  C   UNK N   1      25.071  26.944  -5.488  0.00  0.00     0.115 C 
BRANCH  13  14
HETATM   14  C   UNK N   1      26.057  27.918  -4.928  0.00  0.00    -0.048 A 
HETATM   15  C   UNK N   1      26.144  28.081  -3.531  0.00  0.00     0.047 A 
HETATM   16  C   UNK N   1      27.141  28.920  -3.038  0.00  0.00     0.105 A 
HETATM   17  O   UNK N   1      27.425  29.210  -1.770  0.00  0.00    -0.323 OA
HETATM   18  C   UNK N   1      27.994  29.567  -3.841  0.00  0.00     0.105 A 
HETATM   19  C   UNK N   1      28.514  30.090  -1.752  0.00  0.00     0.352 A 
HETATM   20  O   UNK N   1      28.832  30.288  -3.100  0.00  0.00    -0.323 OA
HETATM   21  C   UNK N   1      27.956  29.437  -5.225  0.00  0.00     0.040 A 
HETATM   22  C   UNK N   1      26.983  28.581  -5.773  0.00  0.00     0.010 A 
ENDBRANCH  13  14
ENDBRANCH  12  13
BRANCH   1  23
HETATM   23  C   UNK N   1      26.325  24.206  -4.327  0.00  0.00     0.132 C 
BRANCH  23  24
HETATM   24  C   UNK N   1      27.640  24.781  -3.821  0.00  0.00     0.020 C 
BRANCH  24  25
HETATM   25  C   UNK N   1      28.671  23.675  -3.673  0.00  0.00    -0.003 C 
HETATM   26  C   UNK N   1      28.697  23.148  -2.247  0.00  0.00     0.005 C 
ENDBRANCH  24  25
ENDBRANCH  23  24
ENDBRANCH   1  23
BRANCH   9  27
HETATM   27  N   UNK N   1      25.699  24.507 -10.332  0.00  0.00    -0.383 N 
HETATM   28  H   UNK N   1      25.886  25.467 -10.443  0.00  0.00     0.157 HD
HETATM   29  H   UNK N   1      25.248  24.007 -11.050  0.00  0.00     0.157 HD
ENDBRANCH   9  27
TORSDOF 6
ENDMDL
