MODEL 1
REMARK VINA RESULT:      -7.7      0.000      0.000
REMARK  11 active torsions:
REMARK  status: ('A' for Active; 'I' for Inactive)
REMARK    1  A    between atoms: C_2  and  N_1 
REMARK    2  A    between atoms: C_2  and  C_3 
REMARK    3  A    between atoms: C_2  and  C_13 
REMARK    4  A    between atoms: C_3  and  C_4 
REMARK    5  A    between atoms: C_9  and  O_11 
REMARK       I    between atoms: C_13  and  N_37 
REMARK    6  A    between atoms: O_14  and  C_15 
REMARK    7  A    between atoms: C_16  and  C_15 
REMARK    8  A    between atoms: C_18  and  N_19 
REMARK    9  A    between atoms: C_26  and  N_27 
REMARK   10  A    between atoms: C_34  and  O_35 
REMARK   11  A    between atoms: C_36  and  N_37 
ROOT
HETATM    1  C   UNK N   1      29.568  17.246   8.663  0.00  0.00     0.173 C 
HETATM    2  O   UNK N   1      30.956  17.479   8.693  0.00  0.00    -0.354 OA
HETATM    3  C   UNK N   1      31.500  16.832   7.551  0.00  0.00     0.261 C 
HETATM    4  C   UNK N   1      30.330  16.299   6.726  0.00  0.00     0.192 C 
HETATM    5  C   UNK N   1      29.199  17.179   7.191  0.00  0.00     0.148 C 
ENDROOT
BRANCH   5   6
HETATM    6  N   UNK N   1      29.268  18.506   6.614  0.00  0.00    -0.349 N 
HETATM    7  C   UNK N   1      28.156  19.072   6.099  0.00  0.00     0.240 C 
HETATM    8  O   UNK N   1      27.441  19.773   6.801  0.00  0.00    -0.271 OA
HETATM    9  H   UNK N   1      30.124  18.994   6.596  0.00  0.00     0.163 HD
BRANCH   7  10
HETATM   10  C   UNK N   1      27.784  18.770   4.683  0.00  0.00     0.171 C 
BRANCH  10  11
HETATM   11  N   UNK N   1      28.886  18.105   4.000  0.00  0.00    -0.418 N 
HETATM   12  H   UNK N   1      29.409  17.681   3.234  0.00  0.00     0.150 HD
HETATM   13  H   UNK N   1      29.549  17.998   4.767  0.00  0.00     0.150 HD
ENDBRANCH  10  11
BRANCH  10  14
HETATM   14  C   UNK N   1      26.482  17.975   4.619  0.00  0.00     0.072 C 
BRANCH  14  15
HETATM   15  C   UNK N   1      25.327  18.726   4.050  0.00  0.00    -0.056 A 
HETATM   16  C   UNK N   1      25.580  19.870   3.287  0.00  0.00     0.010 A 
HETATM   17  C   UNK N   1      24.523  20.632   2.795  0.00  0.00     0.037 A 
HETATM   18  C   UNK N   1      23.203  20.267   3.071  0.00  0.00     0.068 A 
HETATM   19  C   UNK N   1      22.949  19.108   3.829  0.00  0.00     0.037 A 
HETATM   20  C   UNK N   1      24.011  18.341   4.321  0.00  0.00     0.010 A 
BRANCH  18  21
HETATM   21  O   UNK N   1      22.203  21.055   2.615  0.00  0.00    -0.356 OA
HETATM   22  C   UNK N   1      20.883  20.666   2.604  0.00  0.00     0.210 C 
ENDBRANCH  18  21
ENDBRANCH  14  15
ENDBRANCH  10  14
ENDBRANCH   7  10
ENDBRANCH   5   6
BRANCH   1  23
HETATM   23  C   UNK N   1      28.836  18.345   9.425  0.00  0.00     0.198 C 
BRANCH  23  24
HETATM   24  O   UNK N   1      27.456  18.161   9.345  0.00  0.00    -0.398 OA
HETATM   25  H   UNK N   1      26.674  17.911   9.861  0.00  0.00     0.209 HD
ENDBRANCH  23  24
ENDBRANCH   1  23
BRANCH   4  26
HETATM   26  O   UNK N   1      30.566  16.335   5.350  0.00  0.00    -0.389 OA
HETATM   27  H   UNK N   1      30.014  15.847   4.719  0.00  0.00     0.210 HD
ENDBRANCH   4  26
BRANCH   3  28
HETATM   28  N   UNK N   1      32.379  15.729   7.960  0.00  0.00    -0.297 N 
HETATM   29  C   UNK N   1      33.444  15.799   8.773  0.00  0.00     0.142 A 
HETATM   30  N   UNK N   1      33.939  16.895   9.393  0.00  0.00    -0.336 N 
HETATM   31  C   UNK N   1      34.000  14.577   8.895  0.00  0.00     0.122 A 
HETATM   32  C   UNK N   1      35.052  16.753  10.168  0.00  0.00     0.183 A 
ATOM     33  HN  UNK N   1      33.491  17.804   9.283  1.00  0.00     0.168 HD
HETATM   34  N   UNK N   1      35.653  15.528  10.294  0.00  0.00    -0.337 N 
HETATM   35  C   UNK N   1      35.156  14.415   9.670  0.00  0.00     0.134 A 
ATOM     36  HN  UNK N   1      36.493  15.445  10.867  1.00  0.00     0.168 HD
HETATM   37  N   UNK N   1      33.291  13.687   8.171  0.00  0.00    -0.346 N 
HETATM   38  C   UNK N   1      32.292  14.423   7.604  0.00  0.00     0.188 A 
ATOM     39  HN  UNK N   1      33.465  12.687   8.071  1.00  0.00     0.167 HD
BRANCH  35  40
HETATM   40  N   UNK N   1      35.834  13.165   9.803  0.00  0.00    -0.374 N 
HETATM   41  C   UNK N   1      36.892  12.825   8.886  0.00  0.00     0.150 C 
HETATM   42  C   UNK N   1      35.446  12.189  10.787  0.00  0.00     0.150 C 
ENDBRANCH  35  40
ENDBRANCH   3  28
TORSDOF 11
ENDMDL
MODEL 2
REMARK VINA RESULT:      -7.6      3.493     11.292
REMARK  11 active torsions:
REMARK  status: ('A' for Active; 'I' for Inactive)
REMARK    1  A    between atoms: C_2  and  N_1 
REMARK    2  A    between atoms: C_2  and  C_3 
REMARK    3  A    between atoms: C_2  and  C_13 
REMARK    4  A    between atoms: C_3  and  C_4 
REMARK    5  A    between atoms: C_9  and  O_11 
REMARK       I    between atoms: C_13  and  N_37 
REMARK    6  A    between atoms: O_14  and  C_15 
REMARK    7  A    between atoms: C_16  and  C_15 
REMARK    8  A    between atoms: C_18  and  N_19 
REMARK    9  A    between atoms: C_26  and  N_27 
REMARK   10  A    between atoms: C_34  and  O_35 
REMARK   11  A    between atoms: C_36  and  N_37 
ROOT
HETATM    1  C   UNK N   1      33.207  17.268   7.766  0.00  0.00     0.173 C 
HETATM    2  O   UNK N   1      32.298  18.194   8.313  0.00  0.00    -0.354 OA
HETATM    3  C   UNK N   1      31.325  17.436   9.018  0.00  0.00     0.261 C 
HETATM    4  C   UNK N   1      31.775  15.977   8.994  0.00  0.00     0.192 C 
HETATM    5  C   UNK N   1      33.256  16.115   8.753  0.00  0.00     0.148 C 
ENDROOT
BRANCH   5   6
HETATM    6  N   UNK N   1      33.966  16.528   9.946  0.00  0.00    -0.349 N 
HETATM    7  C   UNK N   1      34.994  15.784  10.406  0.00  0.00     0.240 C 
HETATM    8  O   UNK N   1      36.137  16.022  10.041  0.00  0.00    -0.271 OA
HETATM    9  H   UNK N   1      33.700  17.348  10.421  0.00  0.00     0.163 HD
BRANCH   7  10
HETATM   10  C   UNK N   1      34.701  14.628  11.308  0.00  0.00     0.171 C 
BRANCH  10  11
HETATM   11  N   UNK N   1      34.035  13.564  10.567  0.00  0.00    -0.418 N 
HETATM   12  H   UNK N   1      33.898  12.846   9.856  0.00  0.00     0.150 HD
HETATM   13  H   UNK N   1      33.161  13.488  11.086  0.00  0.00     0.150 HD
ENDBRANCH  10  11
BRANCH  10  14
HETATM   14  C   UNK N   1      35.967  14.153  12.016  0.00  0.00     0.072 C 
BRANCH  14  15
HETATM   15  C   UNK N   1      35.760  13.726  13.429  0.00  0.00    -0.056 A 
HETATM   16  C   UNK N   1      36.515  14.338  14.433  0.00  0.00     0.010 A 
HETATM   17  C   UNK N   1      36.395  13.918  15.756  0.00  0.00     0.037 A 
HETATM   18  C   UNK N   1      35.529  12.873  16.087  0.00  0.00     0.068 A 
HETATM   19  C   UNK N   1      34.759  12.265  15.077  0.00  0.00     0.037 A 
HETATM   20  C   UNK N   1      34.878  12.689  13.748  0.00  0.00     0.010 A 
BRANCH  18  21
HETATM   21  O   UNK N   1      35.471  12.461  17.374  0.00  0.00    -0.356 OA
HETATM   22  C   UNK N   1      35.188  13.306  18.423  0.00  0.00     0.210 C 
ENDBRANCH  18  21
ENDBRANCH  14  15
ENDBRANCH  10  14
ENDBRANCH   7  10
ENDBRANCH   5   6
BRANCH   1  23
HETATM   23  C   UNK N   1      34.560  17.935   7.541  0.00  0.00     0.198 C 
BRANCH  23  24
HETATM   24  O   UNK N   1      34.690  19.064   8.349  0.00  0.00    -0.398 OA
HETATM   25  H   UNK N   1      35.321  19.736   8.648  0.00  0.00     0.209 HD
ENDBRANCH  23  24
ENDBRANCH   1  23
BRANCH   4  26
HETATM   26  O   UNK N   1      31.438  15.279  10.155  0.00  0.00    -0.389 OA
HETATM   27  H   UNK N   1      32.084  15.101  10.857  0.00  0.00     0.210 HD
ENDBRANCH   4  26
BRANCH   3  28
HETATM   28  N   UNK N   1      30.010  17.574   8.380  0.00  0.00    -0.297 N 
HETATM   29  C   UNK N   1      29.731  17.485   7.070  0.00  0.00     0.142 A 
HETATM   30  N   UNK N   1      30.593  17.250   6.056  0.00  0.00    -0.336 N 
HETATM   31  C   UNK N   1      28.411  17.683   6.877  0.00  0.00     0.122 A 
HETATM   32  C   UNK N   1      30.103  17.218   4.784  0.00  0.00     0.183 A 
ATOM     33  HN  UNK N   1      31.585  17.100   6.238  1.00  0.00     0.168 HD
HETATM   34  N   UNK N   1      28.771  17.437   4.551  0.00  0.00    -0.337 N 
HETATM   35  C   UNK N   1      27.891  17.675   5.575  0.00  0.00     0.134 A 
ATOM     36  HN  UNK N   1      28.425  17.424   3.592  1.00  0.00     0.168 HD
HETATM   37  N   UNK N   1      27.808  17.889   8.065  0.00  0.00    -0.346 N 
HETATM   38  C   UNK N   1      28.817  17.815   8.980  0.00  0.00     0.188 A 
ATOM     39  HN  UNK N   1      26.818  18.063   8.239  1.00  0.00     0.167 HD
BRANCH  35  40
HETATM   40  N   UNK N   1      26.518  17.931   5.284  0.00  0.00    -0.374 N 
HETATM   41  C   UNK N   1      25.585  16.835   5.221  0.00  0.00     0.150 C 
HETATM   42  C   UNK N   1      26.037  19.254   4.979  0.00  0.00     0.150 C 
ENDBRANCH  35  40
ENDBRANCH   3  28
TORSDOF 11
ENDMDL
MODEL 3
REMARK VINA RESULT:      -7.3      4.283     12.010
REMARK  11 active torsions:
REMARK  status: ('A' for Active; 'I' for Inactive)
REMARK    1  A    between atoms: C_2  and  N_1 
REMARK    2  A    between atoms: C_2  and  C_3 
REMARK    3  A    between atoms: C_2  and  C_13 
REMARK    4  A    between atoms: C_3  and  C_4 
REMARK    5  A    between atoms: C_9  and  O_11 
REMARK       I    between atoms: C_13  and  N_37 
REMARK    6  A    between atoms: O_14  and  C_15 
REMARK    7  A    between atoms: C_16  and  C_15 
REMARK    8  A    between atoms: C_18  and  N_19 
REMARK    9  A    between atoms: C_26  and  N_27 
REMARK   10  A    between atoms: C_34  and  O_35 
REMARK   11  A    between atoms: C_36  and  N_37 
ROOT
HETATM    1  C   UNK N   1      34.746  14.447   8.045  0.00  0.00     0.173 C 
HETATM    2  O   UNK N   1      34.416  15.802   7.853  0.00  0.00    -0.354 OA
HETATM    3  C   UNK N   1      33.301  16.070   8.691  0.00  0.00     0.261 C 
HETATM    4  C   UNK N   1      33.048  14.820   9.531  0.00  0.00     0.192 C 
HETATM    5  C   UNK N   1      34.395  14.145   9.491  0.00  0.00     0.148 C 
ENDROOT
BRANCH   5   6
HETATM    6  N   UNK N   1      35.353  14.789  10.367  0.00  0.00    -0.349 N 
HETATM    7  C   UNK N   1      36.009  14.061  11.295  0.00  0.00     0.240 C 
HETATM    8  O   UNK N   1      37.089  13.554  11.028  0.00  0.00    -0.271 OA
HETATM    9  H   UNK N   1      35.525  15.756  10.286  0.00  0.00     0.163 HD
BRANCH   7  10
HETATM   10  C   UNK N   1      35.359  13.831  12.622  0.00  0.00     0.171 C 
BRANCH  10  11
HETATM   11  N   UNK N   1      34.622  12.575  12.614  0.00  0.00    -0.418 N 
HETATM   12  H   UNK N   1      34.458  11.571  12.693  0.00  0.00     0.150 HD
HETATM   13  H   UNK N   1      33.682  12.905  12.394  0.00  0.00     0.150 HD
ENDBRANCH  10  11
BRANCH  10  14
HETATM   14  C   UNK N   1      36.382  13.910  13.752  0.00  0.00     0.072 C 
BRANCH  14  15
HETATM   15  C   UNK N   1      36.102  13.005  14.903  0.00  0.00    -0.056 A 
HETATM   16  C   UNK N   1      35.229  13.440  15.903  0.00  0.00     0.010 A 
HETATM   17  C   UNK N   1      34.995  12.648  17.024  0.00  0.00     0.037 A 
HETATM   18  C   UNK N   1      35.642  11.418  17.164  0.00  0.00     0.068 A 
HETATM   19  C   UNK N   1      36.512  10.974  16.150  0.00  0.00     0.037 A 
HETATM   20  C   UNK N   1      36.744  11.769  15.022  0.00  0.00     0.010 A 
BRANCH  18  21
HETATM   21  O   UNK N   1      35.426  10.694  18.286  0.00  0.00    -0.356 OA
HETATM   22  C   UNK N   1      35.397  11.249  19.545  0.00  0.00     0.210 C 
ENDBRANCH  18  21
ENDBRANCH  14  15
ENDBRANCH  10  14
ENDBRANCH   7  10
ENDBRANCH   5   6
BRANCH   1  23
HETATM   23  C   UNK N   1      36.215  14.214   7.713  0.00  0.00     0.198 C 
BRANCH  23  24
HETATM   24  O   UNK N   1      36.608  12.934   8.103  0.00  0.00    -0.398 OA
HETATM   25  H   UNK N   1      37.016  12.115   7.782  0.00  0.00     0.209 HD
ENDBRANCH  23  24
ENDBRANCH   1  23
BRANCH   4  26
HETATM   26  O   UNK N   1      32.579  15.106  10.815  0.00  0.00    -0.389 OA
HETATM   27  H   UNK N   1      31.666  14.920  11.084  0.00  0.00     0.210 HD
ENDBRANCH   4  26
BRANCH   3  28
HETATM   28  N   UNK N   1      32.118  16.387   7.880  0.00  0.00    -0.297 N 
HETATM   29  C   UNK N   1      31.024  17.059   8.271  0.00  0.00     0.142 A 
HETATM   30  N   UNK N   1      30.773  17.591   9.488  0.00  0.00    -0.336 N 
HETATM   31  C   UNK N   1      30.151  17.134   7.246  0.00  0.00     0.122 A 
HETATM   32  C   UNK N   1      29.581  18.224   9.685  0.00  0.00     0.183 A 
ATOM     33  HN  UNK N   1      31.457  17.521  10.241  1.00  0.00     0.168 HD
HETATM   34  N   UNK N   1      28.663  18.297   8.670  0.00  0.00    -0.337 N 
HETATM   35  C   UNK N   1      28.912  17.762   7.434  0.00  0.00     0.134 A 
ATOM     36  HN  UNK N   1      27.771  18.763   8.840  1.00  0.00     0.168 HD
HETATM   37  N   UNK N   1      30.674  16.521   6.165  0.00  0.00    -0.346 N 
HETATM   38  C   UNK N   1      31.892  16.069   6.581  0.00  0.00     0.188 A 
ATOM     39  HN  UNK N   1      30.251  16.419   5.242  1.00  0.00     0.167 HD
BRANCH  35  40
HETATM   40  N   UNK N   1      27.914  17.832   6.416  0.00  0.00    -0.374 N 
HETATM   41  C   UNK N   1      27.730  19.057   5.680  0.00  0.00     0.150 C 
HETATM   42  C   UNK N   1      27.026  16.733   6.142  0.00  0.00     0.150 C 
ENDBRANCH  35  40
ENDBRANCH   3  28
TORSDOF 11
ENDMDL
MODEL 4
REMARK VINA RESULT:      -7.3      3.097      5.100
REMARK  11 active torsions:
REMARK  status: ('A' for Active; 'I' for Inactive)
REMARK    1  A    between atoms: C_2  and  N_1 
REMARK    2  A    between atoms: C_2  and  C_3 
REMARK    3  A    between atoms: C_2  and  C_13 
REMARK    4  A    between atoms: C_3  and  C_4 
REMARK    5  A    between atoms: C_9  and  O_11 
REMARK       I    between atoms: C_13  and  N_37 
REMARK    6  A    between atoms: O_14  and  C_15 
REMARK    7  A    between atoms: C_16  and  C_15 
REMARK    8  A    between atoms: C_18  and  N_19 
REMARK    9  A    between atoms: C_26  and  N_27 
REMARK   10  A    between atoms: C_34  and  O_35 
REMARK   11  A    between atoms: C_36  and  N_37 
ROOT
HETATM    1  C   UNK N   1      34.047  17.162   8.943  0.00  0.00     0.173 C 
HETATM    2  O   UNK N   1      35.085  16.217   9.042  0.00  0.00    -0.354 OA
HETATM    3  C   UNK N   1      34.476  14.984   9.396  0.00  0.00     0.261 C 
HETATM    4  C   UNK N   1      32.964  15.194   9.369  0.00  0.00     0.192 C 
HETATM    5  C   UNK N   1      32.836  16.386   8.456  0.00  0.00     0.148 C 
ENDROOT
BRANCH   5   6
HETATM    6  N   UNK N   1      33.017  16.029   7.064  0.00  0.00    -0.349 N 
HETATM    7  C   UNK N   1      32.127  16.452   6.142  0.00  0.00     0.240 C 
HETATM    8  O   UNK N   1      32.306  17.509   5.553  0.00  0.00    -0.271 OA
HETATM    9  H   UNK N   1      33.786  15.479   6.791  0.00  0.00     0.163 HD
BRANCH   7  10
HETATM   10  C   UNK N   1      30.891  15.643   5.908  0.00  0.00     0.171 C 
BRANCH  10  11
HETATM   11  N   UNK N   1      31.186  14.221   6.032  0.00  0.00    -0.418 N 
HETATM   12  H   UNK N   1      31.693  13.344   5.912  0.00  0.00     0.150 HD
HETATM   13  H   UNK N   1      30.390  13.908   6.586  0.00  0.00     0.150 HD
ENDBRANCH  10  11
BRANCH  10  14
HETATM   14  C   UNK N   1      29.761  16.094   6.829  0.00  0.00     0.072 C 
BRANCH  14  15
HETATM   15  C   UNK N   1      29.102  17.367   6.419  0.00  0.00    -0.056 A 
HETATM   16  C   UNK N   1      28.699  18.264   7.412  0.00  0.00     0.010 A 
HETATM   17  C   UNK N   1      28.023  19.433   7.069  0.00  0.00     0.037 A 
HETATM   18  C   UNK N   1      27.729  19.710   5.732  0.00  0.00     0.068 A 
HETATM   19  C   UNK N   1      28.146  18.810   4.730  0.00  0.00     0.037 A 
HETATM   20  C   UNK N   1      28.828  17.639   5.076  0.00  0.00     0.010 A 
BRANCH  18  21
HETATM   21  O   UNK N   1      27.032  20.831   5.439  0.00  0.00    -0.356 OA
HETATM   22  C   UNK N   1      26.517  21.670   6.400  0.00  0.00     0.210 C 
ENDBRANCH  18  21
ENDBRANCH  14  15
ENDBRANCH  10  14
ENDBRANCH   7  10
ENDBRANCH   5   6
BRANCH   1  23
HETATM   23  C   UNK N   1      34.459  18.296   8.011  0.00  0.00     0.198 C 
BRANCH  23  24
HETATM   24  O   UNK N   1      35.363  19.148   8.646  0.00  0.00    -0.398 OA
HETATM   25  H   UNK N   1      35.620  19.502   9.511  0.00  0.00     0.209 HD
ENDBRANCH  23  24
ENDBRANCH   1  23
BRANCH   4  26
HETATM   26  O   UNK N   1      32.258  14.064   8.951  0.00  0.00    -0.389 OA
HETATM   27  H   UNK N   1      31.718  13.538   9.561  0.00  0.00     0.210 HD
ENDBRANCH   4  26
BRANCH   3  28
HETATM   28  N   UNK N   1      34.908  14.567  10.736  0.00  0.00    -0.297 N 
HETATM   29  C   UNK N   1      34.824  13.339  11.270  0.00  0.00     0.142 A 
HETATM   30  N   UNK N   1      34.326  12.221  10.695  0.00  0.00    -0.336 N 
HETATM   31  C   UNK N   1      35.312  13.359  12.526  0.00  0.00     0.122 A 
HETATM   32  C   UNK N   1      34.314  11.068  11.424  0.00  0.00     0.183 A 
ATOM     33  HN  UNK N   1      33.968  12.239   9.741  1.00  0.00     0.168 HD
HETATM   34  N   UNK N   1      34.783  11.060  12.711  0.00  0.00    -0.337 N 
HETATM   35  C   UNK N   1      35.290  12.189  13.299  0.00  0.00     0.134 A 
ATOM     36  HN  UNK N   1      34.753  10.192  13.245  1.00  0.00     0.168 HD
HETATM   37  N   UNK N   1      35.738  14.603  12.823  0.00  0.00    -0.346 N 
HETATM   38  C   UNK N   1      35.480  15.332  11.699  0.00  0.00     0.188 A 
ATOM     39  HN  UNK N   1      36.159  14.926  13.695  1.00  0.00     0.167 HD
BRANCH  35  40
HETATM   40  N   UNK N   1      35.737  12.144  14.654  0.00  0.00    -0.374 N 
HETATM   41  C   UNK N   1      34.844  12.533  15.715  0.00  0.00     0.150 C 
HETATM   42  C   UNK N   1      37.089  11.786  14.998  0.00  0.00     0.150 C 
ENDBRANCH  35  40
ENDBRANCH   3  28
TORSDOF 11
ENDMDL
MODEL 5
REMARK VINA RESULT:      -7.2      5.935     12.806
REMARK  11 active torsions:
REMARK  status: ('A' for Active; 'I' for Inactive)
REMARK    1  A    between atoms: C_2  and  N_1 
REMARK    2  A    between atoms: C_2  and  C_3 
REMARK    3  A    between atoms: C_2  and  C_13 
REMARK    4  A    between atoms: C_3  and  C_4 
REMARK    5  A    between atoms: C_9  and  O_11 
REMARK       I    between atoms: C_13  and  N_37 
REMARK    6  A    between atoms: O_14  and  C_15 
REMARK    7  A    between atoms: C_16  and  C_15 
REMARK    8  A    between atoms: C_18  and  N_19 
REMARK    9  A    between atoms: C_26  and  N_27 
REMARK   10  A    between atoms: C_34  and  O_35 
REMARK   11  A    between atoms: C_36  and  N_37 
ROOT
HETATM    1  C   UNK N   1      35.561  11.752  10.601  0.00  0.00     0.173 C 
HETATM    2  O   UNK N   1      36.154  12.566   9.618  0.00  0.00    -0.354 OA
HETATM    3  C   UNK N   1      35.710  13.892   9.870  0.00  0.00     0.261 C 
HETATM    4  C   UNK N   1      34.911  13.869  11.171  0.00  0.00     0.192 C 
HETATM    5  C   UNK N   1      35.444  12.626  11.837  0.00  0.00     0.148 C 
ENDROOT
BRANCH   5   6
HETATM    6  N   UNK N   1      36.759  12.835  12.409  0.00  0.00    -0.349 N 
HETATM    7  C   UNK N   1      36.987  12.517  13.700  0.00  0.00     0.240 C 
HETATM    8  O   UNK N   1      37.397  11.403  13.996  0.00  0.00    -0.271 OA
HETATM    9  H   UNK N   1      37.484  13.209  11.857  0.00  0.00     0.163 HD
BRANCH   7  10
HETATM   10  C   UNK N   1      36.665  13.523  14.759  0.00  0.00     0.171 C 
BRANCH  10  11
HETATM   11  N   UNK N   1      36.798  14.874  14.230  0.00  0.00    -0.418 N 
HETATM   12  H   UNK N   1      37.181  15.812  14.109  0.00  0.00     0.150 HD
HETATM   13  H   UNK N   1      36.028  14.895  13.561  0.00  0.00     0.150 HD
ENDBRANCH  10  11
BRANCH  10  14
HETATM   14  C   UNK N   1      35.289  13.257  15.363  0.00  0.00     0.072 C 
BRANCH  14  15
HETATM   15  C   UNK N   1      35.319  12.682  16.738  0.00  0.00    -0.056 A 
HETATM   16  C   UNK N   1      35.381  11.294  16.884  0.00  0.00     0.010 A 
HETATM   17  C   UNK N   1      35.345  10.719  18.152  0.00  0.00     0.037 A 
HETATM   18  C   UNK N   1      35.235  11.525  19.288  0.00  0.00     0.068 A 
HETATM   19  C   UNK N   1      35.185  12.925  19.141  0.00  0.00     0.037 A 
HETATM   20  C   UNK N   1      35.224  13.501  17.866  0.00  0.00     0.010 A 
BRANCH  18  21
HETATM   21  O   UNK N   1      35.158  10.932  20.501  0.00  0.00    -0.356 OA
HETATM   22  C   UNK N   1      36.076  10.009  20.947  0.00  0.00     0.210 C 
ENDBRANCH  18  21
ENDBRANCH  14  15
ENDBRANCH  10  14
ENDBRANCH   7  10
ENDBRANCH   5   6
BRANCH   1  23
HETATM   23  C   UNK N   1      36.401  10.498  10.819  0.00  0.00     0.198 C 
BRANCH  23  24
HETATM   24  O   UNK N   1      35.946   9.791  11.931  0.00  0.00    -0.398 OA
HETATM   25  H   UNK N   1      35.146   9.454  12.363  0.00  0.00     0.209 HD
ENDBRANCH  23  24
ENDBRANCH   1  23
BRANCH   4  26
HETATM   26  O   UNK N   1      35.051  15.036  11.924  0.00  0.00    -0.389 OA
HETATM   27  H   UNK N   1      34.286  15.532  12.256  0.00  0.00     0.210 HD
ENDBRANCH   4  26
BRANCH   3  28
HETATM   28  N   UNK N   1      34.868  14.368   8.765  0.00  0.00    -0.297 N 
HETATM   29  C   UNK N   1      34.578  15.641   8.457  0.00  0.00     0.142 A 
HETATM   30  N   UNK N   1      34.994  16.760   9.092  0.00  0.00    -0.336 N 
HETATM   31  C   UNK N   1      33.764  15.670   7.383  0.00  0.00     0.122 A 
HETATM   32  C   UNK N   1      34.564  17.967   8.626  0.00  0.00     0.183 A 
ATOM     33  HN  UNK N   1      35.614  16.702   9.900  1.00  0.00     0.168 HD
HETATM   34  N   UNK N   1      33.718  18.030   7.550  0.00  0.00    -0.337 N 
HETATM   35  C   UNK N   1      33.294  16.900   6.901  0.00  0.00     0.134 A 
ATOM     36  HN  UNK N   1      33.396  18.941   7.224  1.00  0.00     0.168 HD
HETATM   37  N   UNK N   1      33.525  14.411   6.966  0.00  0.00    -0.346 N 
HETATM   38  C   UNK N   1      34.221  13.623   7.835  0.00  0.00     0.188 A 
ATOM     39  HN  UNK N   1      32.950  14.115   6.176  1.00  0.00     0.167 HD
BRANCH  35  40
HETATM   40  N   UNK N   1      32.386  17.010   5.805  0.00  0.00    -0.374 N 
HETATM   41  C   UNK N   1      32.884  17.356   4.498  0.00  0.00     0.150 C 
HETATM   42  C   UNK N   1      30.965  16.855   5.974  0.00  0.00     0.150 C 
ENDBRANCH  35  40
ENDBRANCH   3  28
TORSDOF 11
ENDMDL
MODEL 6
REMARK VINA RESULT:      -7.1      4.746     12.076
REMARK  11 active torsions:
REMARK  status: ('A' for Active; 'I' for Inactive)
REMARK    1  A    between atoms: C_2  and  N_1 
REMARK    2  A    between atoms: C_2  and  C_3 
REMARK    3  A    between atoms: C_2  and  C_13 
REMARK    4  A    between atoms: C_3  and  C_4 
REMARK    5  A    between atoms: C_9  and  O_11 
REMARK       I    between atoms: C_13  and  N_37 
REMARK    6  A    between atoms: O_14  and  C_15 
REMARK    7  A    between atoms: C_16  and  C_15 
REMARK    8  A    between atoms: C_18  and  N_19 
REMARK    9  A    between atoms: C_26  and  N_27 
REMARK   10  A    between atoms: C_34  and  O_35 
REMARK   11  A    between atoms: C_36  and  N_37 
ROOT
HETATM    1  C   UNK N   1      34.983  15.481   9.761  0.00  0.00     0.173 C 
HETATM    2  O   UNK N   1      33.615  15.788   9.631  0.00  0.00    -0.354 OA
HETATM    3  C   UNK N   1      32.960  14.578   9.281  0.00  0.00     0.261 C 
HETATM    4  C   UNK N   1      33.999  13.460   9.344  0.00  0.00     0.192 C 
HETATM    5  C   UNK N   1      35.032  14.051  10.268  0.00  0.00     0.148 C 
ENDROOT
BRANCH   5   6
HETATM    6  N   UNK N   1      34.609  14.014  11.653  0.00  0.00    -0.349 N 
HETATM    7  C   UNK N   1      35.415  13.465  12.586  0.00  0.00     0.240 C 
HETATM    8  O   UNK N   1      36.217  14.162  13.193  0.00  0.00    -0.271 OA
HETATM    9  H   UNK N   1      33.735  14.386  11.914  0.00  0.00     0.163 HD
BRANCH   7  10
HETATM   10  C   UNK N   1      35.357  11.988  12.811  0.00  0.00     0.171 C 
BRANCH  10  11
HETATM   11  N   UNK N   1      36.643  11.497  13.290  0.00  0.00    -0.418 N 
HETATM   12  H   UNK N   1      37.603  11.157  13.247  0.00  0.00     0.150 HD
HETATM   13  H   UNK N   1      36.484  11.495  14.297  0.00  0.00     0.150 HD
ENDBRANCH  10  11
BRANCH  10  14
HETATM   14  C   UNK N   1      34.202  11.622  13.739  0.00  0.00     0.072 C 
BRANCH  14  15
HETATM   15  C   UNK N   1      34.596  11.402  15.159  0.00  0.00    -0.056 A 
HETATM   16  C   UNK N   1      34.637  10.095  15.650  0.00  0.00     0.010 A 
HETATM   17  C   UNK N   1      34.938   9.857  16.989  0.00  0.00     0.037 A 
HETATM   18  C   UNK N   1      35.189  10.925  17.855  0.00  0.00     0.068 A 
HETATM   19  C   UNK N   1      35.159  12.242  17.357  0.00  0.00     0.037 A 
HETATM   20  C   UNK N   1      34.860  12.479  16.010  0.00  0.00     0.010 A 
BRANCH  18  21
HETATM   21  O   UNK N   1      35.434  10.660  19.158  0.00  0.00    -0.356 OA
HETATM   22  C   UNK N   1      35.792  11.628  20.068  0.00  0.00     0.210 C 
ENDBRANCH  18  21
ENDBRANCH  14  15
ENDBRANCH  10  14
ENDBRANCH   7  10
ENDBRANCH   5   6
BRANCH   1  23
HETATM   23  C   UNK N   1      35.657  16.482  10.692  0.00  0.00     0.198 C 
BRANCH  23  24
HETATM   24  O   UNK N   1      36.972  16.098  10.954  0.00  0.00    -0.398 OA
HETATM   25  H   UNK N   1      37.719  16.243  11.555  0.00  0.00     0.209 HD
ENDBRANCH  23  24
ENDBRANCH   1  23
BRANCH   4  26
HETATM   26  O   UNK N   1      33.470  12.240   9.769  0.00  0.00    -0.389 OA
HETATM   27  H   UNK N   1      32.610  12.177  10.214  0.00  0.00     0.210 HD
ENDBRANCH   4  26
BRANCH   3  28
HETATM   28  N   UNK N   1      32.397  14.674   7.928  0.00  0.00    -0.297 N 
HETATM   29  C   UNK N   1      31.538  15.598   7.472  0.00  0.00     0.142 A 
HETATM   30  N   UNK N   1      31.005  16.638   8.153  0.00  0.00    -0.336 N 
HETATM   31  C   UNK N   1      31.244  15.342   6.182  0.00  0.00     0.122 A 
HETATM   32  C   UNK N   1      30.128  17.456   7.503  0.00  0.00     0.183 A 
ATOM     33  HN  UNK N   1      31.252  16.806   9.128  1.00  0.00     0.168 HD
HETATM   34  N   UNK N   1      29.791  17.209   6.198  0.00  0.00    -0.337 N 
HETATM   35  C   UNK N   1      30.328  16.158   5.502  0.00  0.00     0.134 A 
ATOM     36  HN  UNK N   1      29.123  17.824   5.733  1.00  0.00     0.168 HD
HETATM   37  N   UNK N   1      31.923  14.251   5.774  0.00  0.00    -0.346 N 
HETATM   38  C   UNK N   1      32.632  13.857   6.872  0.00  0.00     0.188 A 
ATOM     39  HN  UNK N   1      31.909  13.817   4.850  1.00  0.00     0.167 HD
BRANCH  35  40
HETATM   40  N   UNK N   1      29.925  15.919   4.154  0.00  0.00    -0.374 N 
HETATM   41  C   UNK N   1      30.778  16.329   3.069  0.00  0.00     0.150 C 
HETATM   42  C   UNK N   1      28.647  15.338   3.834  0.00  0.00     0.150 C 
ENDBRANCH  35  40
ENDBRANCH   3  28
TORSDOF 11
ENDMDL
MODEL 7
REMARK VINA RESULT:      -7.0      4.140     10.845
REMARK  11 active torsions:
REMARK  status: ('A' for Active; 'I' for Inactive)
REMARK    1  A    between atoms: C_2  and  N_1 
REMARK    2  A    between atoms: C_2  and  C_3 
REMARK    3  A    between atoms: C_2  and  C_13 
REMARK    4  A    between atoms: C_3  and  C_4 
REMARK    5  A    between atoms: C_9  and  O_11 
REMARK       I    between atoms: C_13  and  N_37 
REMARK    6  A    between atoms: O_14  and  C_15 
REMARK    7  A    between atoms: C_16  and  C_15 
REMARK    8  A    between atoms: C_18  and  N_19 
REMARK    9  A    between atoms: C_26  and  N_27 
REMARK   10  A    between atoms: C_34  and  O_35 
REMARK   11  A    between atoms: C_36  and  N_37 
ROOT
HETATM    1  C   UNK N   1      25.747  18.774   3.771  0.00  0.00     0.173 C 
HETATM    2  O   UNK N   1      24.385  18.775   4.126  0.00  0.00    -0.354 OA
HETATM    3  C   UNK N   1      24.180  17.631   4.943  0.00  0.00     0.261 C 
HETATM    4  C   UNK N   1      25.545  16.995   5.192  0.00  0.00     0.192 C 
HETATM    5  C   UNK N   1      26.475  18.156   4.952  0.00  0.00     0.148 C 
ENDROOT
BRANCH   5   6
HETATM    6  N   UNK N   1      26.479  19.089   6.060  0.00  0.00    -0.349 N 
HETATM    7  C   UNK N   1      27.652  19.545   6.549  0.00  0.00     0.240 C 
HETATM    8  O   UNK N   1      28.144  20.574   6.109  0.00  0.00    -0.271 OA
HETATM    9  H   UNK N   1      25.629  19.390   6.457  0.00  0.00     0.163 HD
BRANCH   7  10
HETATM   10  C   UNK N   1      28.366  18.733   7.582  0.00  0.00     0.171 C 
BRANCH  10  11
HETATM   11  N   UNK N   1      27.510  18.524   8.743  0.00  0.00    -0.418 N 
HETATM   12  H   UNK N   1      26.824  18.070   9.346  0.00  0.00     0.150 HD
HETATM   13  H   UNK N   1      27.745  19.343   9.303  0.00  0.00     0.150 HD
ENDBRANCH  10  11
BRANCH  10  14
HETATM   14  C   UNK N   1      28.885  17.427   6.987  0.00  0.00     0.072 C 
BRANCH  14  15
HETATM   15  C   UNK N   1      30.365  17.368   6.821  0.00  0.00    -0.056 A 
HETATM   16  C   UNK N   1      30.890  17.174   5.541  0.00  0.00     0.010 A 
HETATM   17  C   UNK N   1      32.265  17.049   5.358  0.00  0.00     0.037 A 
HETATM   18  C   UNK N   1      33.129  17.105   6.454  0.00  0.00     0.068 A 
HETATM   19  C   UNK N   1      32.600  17.313   7.743  0.00  0.00     0.037 A 
HETATM   20  C   UNK N   1      31.219  17.441   7.925  0.00  0.00     0.010 A 
BRANCH  18  21
HETATM   21  O   UNK N   1      34.455  16.936   6.246  0.00  0.00    -0.356 OA
HETATM   22  C   UNK N   1      35.046  15.699   6.127  0.00  0.00     0.210 C 
ENDBRANCH  18  21
ENDBRANCH  14  15
ENDBRANCH  10  14
ENDBRANCH   7  10
ENDBRANCH   5   6
BRANCH   1  23
HETATM   23  C   UNK N   1      26.204  20.193   3.448  0.00  0.00     0.198 C 
BRANCH  23  24
HETATM   24  O   UNK N   1      27.594  20.249   3.350  0.00  0.00    -0.398 OA
HETATM   25  H   UNK N   1      28.387  19.703   3.234  0.00  0.00     0.209 HD
ENDBRANCH  23  24
ENDBRANCH   1  23
BRANCH   4  26
HETATM   26  O   UNK N   1      25.659  16.412   6.457  0.00  0.00    -0.389 OA
HETATM   27  H   UNK N   1      25.925  15.488   6.577  0.00  0.00     0.210 HD
ENDBRANCH   4  26
BRANCH   3  28
HETATM   28  N   UNK N   1      23.288  16.677   4.272  0.00  0.00    -0.297 N 
HETATM   29  C   UNK N   1      22.053  16.913   3.804  0.00  0.00     0.142 A 
HETATM   30  N   UNK N   1      21.360  18.073   3.848  0.00  0.00    -0.336 N 
HETATM   31  C   UNK N   1      21.551  15.783   3.266  0.00  0.00     0.122 A 
HETATM   32  C   UNK N   1      20.099  18.095   3.329  0.00  0.00     0.183 A 
ATOM     33  HN  UNK N   1      21.771  18.912   4.259  1.00  0.00     0.168 HD
HETATM   34  N   UNK N   1      19.553  16.958   2.795  0.00  0.00    -0.337 N 
HETATM   35  C   UNK N   1      20.249  15.779   2.747  0.00  0.00     0.134 A 
ATOM     36  HN  UNK N   1      18.603  16.990   2.424  1.00  0.00     0.168 HD
HETATM   37  N   UNK N   1      22.464  14.796   3.362  0.00  0.00    -0.346 N 
HETATM   38  C   UNK N   1      23.532  15.374   3.986  0.00  0.00     0.188 A 
ATOM     39  HN  UNK N   1      22.376  13.831   3.041  1.00  0.00     0.167 HD
BRANCH  35  40
HETATM   40  N   UNK N   1      19.629  14.610   2.211  0.00  0.00    -0.374 N 
HETATM   41  C   UNK N   1      19.183  13.568   3.099  0.00  0.00     0.150 C 
HETATM   42  C   UNK N   1      19.496  14.400   0.793  0.00  0.00     0.150 C 
ENDBRANCH  35  40
ENDBRANCH   3  28
TORSDOF 11
ENDMDL
MODEL 8
REMARK VINA RESULT:      -6.9      3.880      7.337
REMARK  11 active torsions:
REMARK  status: ('A' for Active; 'I' for Inactive)
REMARK    1  A    between atoms: C_2  and  N_1 
REMARK    2  A    between atoms: C_2  and  C_3 
REMARK    3  A    between atoms: C_2  and  C_13 
REMARK    4  A    between atoms: C_3  and  C_4 
REMARK    5  A    between atoms: C_9  and  O_11 
REMARK       I    between atoms: C_13  and  N_37 
REMARK    6  A    between atoms: O_14  and  C_15 
REMARK    7  A    between atoms: C_16  and  C_15 
REMARK    8  A    between atoms: C_18  and  N_19 
REMARK    9  A    between atoms: C_26  and  N_27 
REMARK   10  A    between atoms: C_34  and  O_35 
REMARK   11  A    between atoms: C_36  and  N_37 
ROOT
HETATM    1  C   UNK N   1      36.727  13.872   9.461  0.00  0.00     0.173 C 
HETATM    2  O   UNK N   1      35.854  13.010  10.151  0.00  0.00    -0.354 OA
HETATM    3  C   UNK N   1      35.035  13.833  10.968  0.00  0.00     0.261 C 
HETATM    4  C   UNK N   1      35.361  15.286  10.629  0.00  0.00     0.192 C 
HETATM    5  C   UNK N   1      35.944  15.155   9.246  0.00  0.00     0.148 C 
ENDROOT
BRANCH   5   6
HETATM    6  N   UNK N   1      34.922  14.937   8.242  0.00  0.00    -0.349 N 
HETATM    7  C   UNK N   1      34.790  15.806   7.218  0.00  0.00     0.240 C 
HETATM    8  O   UNK N   1      35.394  15.619   6.171  0.00  0.00    -0.271 OA
HETATM    9  H   UNK N   1      34.324  14.157   8.307  0.00  0.00     0.163 HD
BRANCH   7  10
HETATM   10  C   UNK N   1      33.954  17.029   7.415  0.00  0.00     0.171 C 
BRANCH  10  11
HETATM   11  N   UNK N   1      34.690  18.030   8.176  0.00  0.00    -0.418 N 
HETATM   12  H   UNK N   1      35.422  18.706   8.394  0.00  0.00     0.150 HD
HETATM   13  H   UNK N   1      34.111  18.099   9.012  0.00  0.00     0.150 HD
ENDBRANCH  10  11
BRANCH  10  14
HETATM   14  C   UNK N   1      33.442  17.561   6.078  0.00  0.00     0.072 C 
BRANCH  14  15
HETATM   15  C   UNK N   1      31.989  17.330   5.837  0.00  0.00    -0.056 A 
HETATM   16  C   UNK N   1      31.178  16.975   6.917  0.00  0.00     0.010 A 
HETATM   17  C   UNK N   1      29.829  16.689   6.718  0.00  0.00     0.037 A 
HETATM   18  C   UNK N   1      29.281  16.742   5.434  0.00  0.00     0.068 A 
HETATM   19  C   UNK N   1      30.096  17.113   4.347  0.00  0.00     0.037 A 
HETATM   20  C   UNK N   1      31.450  17.403   4.550  0.00  0.00     0.010 A 
BRANCH  18  21
HETATM   21  O   UNK N   1      27.979  16.415   5.270  0.00  0.00    -0.356 OA
HETATM   22  C   UNK N   1      27.042  16.529   6.272  0.00  0.00     0.210 C 
ENDBRANCH  18  21
ENDBRANCH  14  15
ENDBRANCH  10  14
ENDBRANCH   7  10
ENDBRANCH   5   6
BRANCH   1  23
HETATM   23  C   UNK N   1      37.193  13.218   8.165  0.00  0.00     0.198 C 
BRANCH  23  24
HETATM   24  O   UNK N   1      36.215  12.353   7.674  0.00  0.00    -0.398 OA
HETATM   25  H   UNK N   1      35.501  12.278   7.022  0.00  0.00     0.209 HD
ENDBRANCH  23  24
ENDBRANCH   1  23
BRANCH   4  26
HETATM   26  O   UNK N   1      34.255  16.133  10.716  0.00  0.00    -0.389 OA
HETATM   27  H   UNK N   1      33.467  16.012  10.164  0.00  0.00     0.210 HD
ENDBRANCH   4  26
BRANCH   3  28
HETATM   28  N   UNK N   1      35.301  13.570  12.389  0.00  0.00    -0.297 N 
HETATM   29  C   UNK N   1      34.902  12.507  13.104  0.00  0.00     0.142 A 
HETATM   30  N   UNK N   1      34.172  11.451  12.679  0.00  0.00    -0.336 N 
HETATM   31  C   UNK N   1      35.331  12.634  14.376  0.00  0.00     0.122 A 
HETATM   32  C   UNK N   1      33.854  10.478  13.580  0.00  0.00     0.183 A 
ATOM     33  HN  UNK N   1      33.866  11.384  11.708  1.00  0.00     0.168 HD
HETATM   34  N   UNK N   1      34.256  10.589  14.886  0.00  0.00    -0.337 N 
HETATM   35  C   UNK N   1      34.997  11.655  15.323  0.00  0.00     0.134 A 
ATOM     36  HN  UNK N   1      33.997   9.858  15.548  1.00  0.00     0.168 HD
HETATM   37  N   UNK N   1      36.032  13.778  14.502  0.00  0.00    -0.346 N 
HETATM   38  C   UNK N   1      36.002  14.339  13.258  0.00  0.00     0.188 A 
ATOM     39  HN  UNK N   1      36.484  14.143  15.341  1.00  0.00     0.167 HD
BRANCH  35  40
HETATM   40  N   UNK N   1      35.367  11.746  16.698  0.00  0.00    -0.374 N 
HETATM   41  C   UNK N   1      35.012  12.917  17.458  0.00  0.00     0.150 C 
HETATM   42  C   UNK N   1      36.153  10.728  17.344  0.00  0.00     0.150 C 
ENDBRANCH  35  40
ENDBRANCH   3  28
TORSDOF 11
ENDMDL
MODEL 9
REMARK VINA RESULT:      -6.9      2.966     10.546
REMARK  11 active torsions:
REMARK  status: ('A' for Active; 'I' for Inactive)
REMARK    1  A    between atoms: C_2  and  N_1 
REMARK    2  A    between atoms: C_2  and  C_3 
REMARK    3  A    between atoms: C_2  and  C_13 
REMARK    4  A    between atoms: C_3  and  C_4 
REMARK    5  A    between atoms: C_9  and  O_11 
REMARK       I    between atoms: C_13  and  N_37 
REMARK    6  A    between atoms: O_14  and  C_15 
REMARK    7  A    between atoms: C_16  and  C_15 
REMARK    8  A    between atoms: C_18  and  N_19 
REMARK    9  A    between atoms: C_26  and  N_27 
REMARK   10  A    between atoms: C_34  and  O_35 
REMARK   11  A    between atoms: C_36  and  N_37 
ROOT
HETATM    1  C   UNK N   1      31.585  15.658   4.139  0.00  0.00     0.173 C 
HETATM    2  O   UNK N   1      31.043  16.831   3.580  0.00  0.00    -0.354 OA
HETATM    3  C   UNK N   1      30.376  17.510   4.634  0.00  0.00     0.261 C 
HETATM    4  C   UNK N   1      30.665  16.748   5.925  0.00  0.00     0.192 C 
HETATM    5  C   UNK N   1      31.933  16.015   5.573  0.00  0.00     0.148 C 
ENDROOT
BRANCH   5   6
HETATM    6  N   UNK N   1      33.089  16.888   5.588  0.00  0.00    -0.349 N 
HETATM    7  C   UNK N   1      34.140  16.596   6.384  0.00  0.00     0.240 C 
HETATM    8  O   UNK N   1      35.066  15.921   5.957  0.00  0.00    -0.271 OA
HETATM    9  H   UNK N   1      33.109  17.692   5.020  0.00  0.00     0.163 HD
BRANCH   7  10
HETATM   10  C   UNK N   1      34.114  17.053   7.808  0.00  0.00     0.171 C 
BRANCH  10  11
HETATM   11  N   UNK N   1      33.486  18.364   7.908  0.00  0.00    -0.418 N 
HETATM   12  H   UNK N   1      32.834  19.081   8.224  0.00  0.00     0.150 HD
HETATM   13  H   UNK N   1      34.056  18.899   7.253  0.00  0.00     0.150 HD
ENDBRANCH  10  11
BRANCH  10  14
HETATM   14  C   UNK N   1      33.452  16.010   8.704  0.00  0.00     0.072 C 
BRANCH  14  15
HETATM   15  C   UNK N   1      34.312  15.516   9.817  0.00  0.00    -0.056 A 
HETATM   16  C   UNK N   1      34.238  14.168  10.175  0.00  0.00     0.010 A 
HETATM   17  C   UNK N   1      34.978  13.686  11.252  0.00  0.00     0.037 A 
HETATM   18  C   UNK N   1      35.790  14.550  11.991  0.00  0.00     0.068 A 
HETATM   19  C   UNK N   1      35.874  15.907  11.621  0.00  0.00     0.037 A 
HETATM   20  C   UNK N   1      35.132  16.389  10.537  0.00  0.00     0.010 A 
BRANCH  18  21
HETATM   21  O   UNK N   1      36.461  14.058  13.057  0.00  0.00    -0.356 OA
HETATM   22  C   UNK N   1      35.834  13.503  14.149  0.00  0.00     0.210 C 
ENDBRANCH  18  21
ENDBRANCH  14  15
ENDBRANCH  10  14
ENDBRANCH   7  10
ENDBRANCH   5   6
BRANCH   1  23
HETATM   23  C   UNK N   1      32.783  15.194   3.318  0.00  0.00     0.198 C 
BRANCH  23  24
HETATM   24  O   UNK N   1      33.309  16.252   2.577  0.00  0.00    -0.398 OA
HETATM   25  H   UNK N   1      33.186  16.769   1.766  0.00  0.00     0.209 HD
ENDBRANCH  23  24
ENDBRANCH   1  23
BRANCH   4  26
HETATM   26  O   UNK N   1      30.765  17.578   7.044  0.00  0.00    -0.389 OA
HETATM   27  H   UNK N   1      30.450  17.305   7.920  0.00  0.00     0.210 HD
ENDBRANCH   4  26
BRANCH   3  28
HETATM   28  N   UNK N   1      28.930  17.552   4.381  0.00  0.00    -0.297 N 
HETATM   29  C   UNK N   1      28.029  18.363   4.956  0.00  0.00     0.142 A 
HETATM   30  N   UNK N   1      28.252  19.315   5.889  0.00  0.00    -0.336 N 
HETATM   31  C   UNK N   1      26.801  18.089   4.471  0.00  0.00     0.122 A 
HETATM   32  C   UNK N   1      27.186  20.022   6.362  0.00  0.00     0.183 A 
ATOM     33  HN  UNK N   1      29.195  19.500   6.232  1.00  0.00     0.168 HD
HETATM   34  N   UNK N   1      25.922  19.752   5.906  0.00  0.00    -0.337 N 
HETATM   35  C   UNK N   1      25.689  18.789   4.959  0.00  0.00     0.134 A 
ATOM     36  HN  UNK N   1      25.135  20.281   6.281  1.00  0.00     0.168 HD
HETATM   37  N   UNK N   1      26.889  17.101   3.558  0.00  0.00    -0.346 N 
HETATM   38  C   UNK N   1      28.216  16.787   3.517  0.00  0.00     0.188 A 
ATOM     39  HN  UNK N   1      26.131  16.682   3.018  1.00  0.00     0.167 HD
BRANCH  35  40
HETATM   40  N   UNK N   1      24.353  18.519   4.536  0.00  0.00    -0.374 N 
HETATM   41  C   UNK N   1      23.699  19.416   3.619  0.00  0.00     0.150 C 
HETATM   42  C   UNK N   1      23.600  17.406   5.055  0.00  0.00     0.150 C 
ENDBRANCH  35  40
ENDBRANCH   3  28
TORSDOF 11
ENDMDL
