MODEL 1
REMARK VINA RESULT:      -5.9      0.000      0.000
REMARK  25 active torsions:
REMARK  status: ('A' for Active; 'I' for Inactive)
REMARK    1  A    between atoms: C_1  and  C_3 
REMARK    2  A    between atoms: C_1  and  O_25 
REMARK    3  A    between atoms: C_3  and  C_4 
REMARK    4  A    between atoms: C_4  and  C_5 
REMARK    5  A    between atoms: C_5  and  C_6 
REMARK    6  A    between atoms: C_6  and  C_7 
REMARK    7  A    between atoms: C_7  and  C_8 
REMARK    8  A    between atoms: C_8  and  C_9 
REMARK    9  A    between atoms: C_9  and  C_10 
REMARK   10  A    between atoms: C_10  and  C_11 
REMARK   11  A    between atoms: C_11  and  C_12 
REMARK   12  A    between atoms: C_12  and  C_13 
REMARK   13  A    between atoms: C_13  and  C_14 
REMARK   14  A    between atoms: C_14  and  C_28 
REMARK   15  A    between atoms: C_15  and  C_16 
REMARK   16  A    between atoms: C_15  and  O_25 
REMARK   17  A    between atoms: C_16  and  C_17 
REMARK   18  A    between atoms: C_16  and  O_24 
REMARK   19  A    between atoms: C_17  and  C_18 
REMARK   20  A    between atoms: C_17  and  O_23 
REMARK   21  A    between atoms: C_18  and  O_22 
REMARK   22  A    between atoms: C_19  and  C_20 
REMARK   23  A    between atoms: C_19  and  O_21 
REMARK   24  A    between atoms: C_20  and  O_27 
REMARK   25  A    between atoms: C_28  and  C_29 
ROOT
HETATM    1  O   UNK N   1      34.696  17.459   9.744  0.00  0.00    -0.319 OA
ENDROOT
BRANCH   1   2
HETATM    2  C   UNK N   1      34.596  18.021   8.513  0.00  0.00     0.258 C 
HETATM    3  O   UNK N   1      35.025  19.150   8.339  0.00  0.00    -0.265 OA
BRANCH   2   4
HETATM    4  C   UNK N   1      34.023  17.275   7.343  0.00  0.00     0.111 C 
BRANCH   4   5
HETATM    5  C   UNK N   1      32.507  17.296   7.363  0.00  0.00     0.010 C 
BRANCH   5   6
HETATM    6  C   UNK N   1      31.975  16.482   6.200  0.00  0.00     0.000 C 
BRANCH   6   7
HETATM    7  C   UNK N   1      30.513  16.821   5.952  0.00  0.00     0.000 C 
BRANCH   7   8
HETATM    8  C   UNK N   1      30.311  17.478   4.590  0.00  0.00     0.000 C 
BRANCH   8   9
HETATM    9  C   UNK N   1      29.095  16.923   3.857  0.00  0.00     0.000 C 
BRANCH   9  10
HETATM   10  C   UNK N   1      27.823  17.131   4.667  0.00  0.00     0.000 C 
BRANCH  10  11
HETATM   11  C   UNK N   1      26.795  17.938   3.887  0.00  0.00     0.000 C 
BRANCH  11  12
HETATM   12  C   UNK N   1      26.426  19.193   4.652  0.00  0.00     0.000 C 
BRANCH  12  13
HETATM   13  C   UNK N   1      27.568  20.183   4.627  0.00  0.00     0.000 C 
BRANCH  13  14
HETATM   14  C   UNK N   1      27.557  20.925   5.945  0.00  0.00     0.000 C 
BRANCH  14  15
HETATM   15  C   UNK N   1      27.265  19.980   7.090  0.00  0.00     0.000 C 
BRANCH  15  16
HETATM   16  C   UNK N   1      28.564  19.317   7.497  0.00  0.00    -0.000 C 
BRANCH  16  17
HETATM   17  C   UNK N   1      28.310  18.309   8.594  0.00  0.00    -0.005 C 
HETATM   18  C   UNK N   1      29.366  18.468   9.667  0.00  0.00     0.005 C 
ENDBRANCH  16  17
ENDBRANCH  15  16
ENDBRANCH  14  15
ENDBRANCH  13  14
ENDBRANCH  12  13
ENDBRANCH  11  12
ENDBRANCH  10  11
ENDBRANCH   9  10
ENDBRANCH   8   9
ENDBRANCH   7   8
ENDBRANCH   6   7
ENDBRANCH   5   6
ENDBRANCH   4   5
ENDBRANCH   2   4
ENDBRANCH   1   2
BRANCH   1  19
HETATM   19  C   UNK N   1      34.882  16.110   9.949  0.00  0.00     0.213 C 
BRANCH  19  20
HETATM   20  C   UNK N   1      35.682  15.806  11.216  0.00  0.00     0.177 C 
BRANCH  20  21
HETATM   21  C   UNK N   1      35.532  14.336  11.665  0.00  0.00     0.208 C 
BRANCH  21  22
HETATM   22  C   UNK N   1      36.376  13.995  12.885  0.00  0.00     0.114 C 
HETATM   23  C   UNK N   1      36.773  12.732  13.198  0.00  0.00     0.172 C 
BRANCH  23  24
HETATM   24  C   UNK N   1      36.448  11.512  12.399  0.00  0.00     0.203 C 
HETATM   25  O   UNK N   1      37.359  10.893  11.869  0.00  0.00    -0.644 OA
BRANCH  24  26
HETATM   26  O   UNK N   1      35.187  11.075  12.234  0.00  0.00    -0.771 OA
HETATM   27  H   UNK N   1      34.959  10.239  11.877  0.00  0.00     0.167 HD
ENDBRANCH  24  26
ENDBRANCH  23  24
BRANCH  23  28
HETATM   28  O   UNK N   1      37.526  12.562  14.304  0.00  0.00    -0.353 OA
HETATM   29  H   UNK N   1      38.399  12.222  14.296  0.00  0.00     0.218 HD
ENDBRANCH  23  28
BRANCH  22  30
HETATM   30  O   UNK N   1      36.764  14.998  13.705  0.00  0.00    -0.359 OA
HETATM   31  H   UNK N   1      36.147  15.558  14.133  0.00  0.00     0.217 HD
ENDBRANCH  22  30
ENDBRANCH  21  22
BRANCH  21  32
HETATM   32  O   UNK N   1      34.188  14.084  11.957  0.00  0.00    -0.386 OA
HETATM   33  H   UNK N   1      33.624  14.220  12.735  0.00  0.00     0.210 HD
ENDBRANCH  21  32
ENDBRANCH  20  21
BRANCH  20  34
HETATM   34  O   UNK N   1      37.021  16.079  10.925  0.00  0.00    -0.390 OA
HETATM   35  H   UNK N   1      37.631  16.755  11.258  0.00  0.00     0.210 HD
ENDBRANCH  20  34
ENDBRANCH  19  20
ENDBRANCH   1  19
TORSDOF 25
ENDMDL
MODEL 2
REMARK VINA RESULT:      -5.8     11.204     15.026
REMARK  25 active torsions:
REMARK  status: ('A' for Active; 'I' for Inactive)
REMARK    1  A    between atoms: C_1  and  C_3 
REMARK    2  A    between atoms: C_1  and  O_25 
REMARK    3  A    between atoms: C_3  and  C_4 
REMARK    4  A    between atoms: C_4  and  C_5 
REMARK    5  A    between atoms: C_5  and  C_6 
REMARK    6  A    between atoms: C_6  and  C_7 
REMARK    7  A    between atoms: C_7  and  C_8 
REMARK    8  A    between atoms: C_8  and  C_9 
REMARK    9  A    between atoms: C_9  and  C_10 
REMARK   10  A    between atoms: C_10  and  C_11 
REMARK   11  A    between atoms: C_11  and  C_12 
REMARK   12  A    between atoms: C_12  and  C_13 
REMARK   13  A    between atoms: C_13  and  C_14 
REMARK   14  A    between atoms: C_14  and  C_28 
REMARK   15  A    between atoms: C_15  and  C_16 
REMARK   16  A    between atoms: C_15  and  O_25 
REMARK   17  A    between atoms: C_16  and  C_17 
REMARK   18  A    between atoms: C_16  and  O_24 
REMARK   19  A    between atoms: C_17  and  C_18 
REMARK   20  A    between atoms: C_17  and  O_23 
REMARK   21  A    between atoms: C_18  and  O_22 
REMARK   22  A    between atoms: C_19  and  C_20 
REMARK   23  A    between atoms: C_19  and  O_21 
REMARK   24  A    between atoms: C_20  and  O_27 
REMARK   25  A    between atoms: C_28  and  C_29 
ROOT
HETATM    1  O   UNK N   1      20.154  16.626   5.319  0.00  0.00    -0.319 OA
ENDROOT
BRANCH   1   2
HETATM    2  C   UNK N   1      19.644  16.300   6.533  0.00  0.00     0.258 C 
HETATM    3  O   UNK N   1      18.456  16.043   6.628  0.00  0.00    -0.265 OA
BRANCH   2   4
HETATM    4  C   UNK N   1      20.510  16.192   7.755  0.00  0.00     0.111 C 
BRANCH   4   5
HETATM    5  C   UNK N   1      20.062  15.052   8.649  0.00  0.00     0.010 C 
BRANCH   5   6
HETATM    6  C   UNK N   1      21.249  14.529   9.434  0.00  0.00     0.000 C 
BRANCH   6   7
HETATM    7  C   UNK N   1      20.892  13.210  10.103  0.00  0.00     0.000 C 
BRANCH   7   8
HETATM    8  C   UNK N   1      22.050  12.218  10.043  0.00  0.00     0.000 C 
BRANCH   8   9
HETATM    9  C   UNK N   1      23.406  12.909  10.143  0.00  0.00     0.000 C 
BRANCH   9  10
HETATM   10  C   UNK N   1      24.286  12.566   8.950  0.00  0.00     0.000 C 
BRANCH  10  11
HETATM   11  C   UNK N   1      25.229  13.712   8.609  0.00  0.00     0.000 C 
BRANCH  11  12
HETATM   12  C   UNK N   1      25.465  13.766   7.113  0.00  0.00     0.000 C 
BRANCH  12  13
HETATM   13  C   UNK N   1      25.093  15.125   6.567  0.00  0.00     0.000 C 
BRANCH  13  14
HETATM   14  C   UNK N   1      23.590  15.154   6.402  0.00  0.00     0.000 C 
BRANCH  14  15
HETATM   15  C   UNK N   1      23.179  14.479   5.112  0.00  0.00     0.000 C 
BRANCH  15  16
HETATM   16  C   UNK N   1      21.929  13.669   5.380  0.00  0.00    -0.000 C 
BRANCH  16  17
HETATM   17  C   UNK N   1      22.297  12.323   5.960  0.00  0.00    -0.005 C 
HETATM   18  C   UNK N   1      21.046  11.650   6.484  0.00  0.00     0.005 C 
ENDBRANCH  16  17
ENDBRANCH  15  16
ENDBRANCH  14  15
ENDBRANCH  13  14
ENDBRANCH  12  13
ENDBRANCH  11  12
ENDBRANCH  10  11
ENDBRANCH   9  10
ENDBRANCH   8   9
ENDBRANCH   7   8
ENDBRANCH   6   7
ENDBRANCH   5   6
ENDBRANCH   4   5
ENDBRANCH   2   4
ENDBRANCH   1   2
BRANCH   1  19
HETATM   19  C   UNK N   1      19.388  16.740   4.180  0.00  0.00     0.213 C 
BRANCH  19  20
HETATM   20  C   UNK N   1      19.626  18.053   3.432  0.00  0.00     0.177 C 
BRANCH  20  21
HETATM   21  C   UNK N   1      20.860  17.985   2.506  0.00  0.00     0.208 C 
BRANCH  21  22
HETATM   22  C   UNK N   1      20.725  18.857   1.265  0.00  0.00     0.114 C 
HETATM   23  C   UNK N   1      20.981  20.193   1.252  0.00  0.00     0.172 C 
BRANCH  23  24
HETATM   24  C   UNK N   1      21.432  20.989   2.433  0.00  0.00     0.203 C 
HETATM   25  O   UNK N   1      22.624  21.218   2.571  0.00  0.00    -0.644 OA
BRANCH  24  26
HETATM   26  O   UNK N   1      20.573  21.454   3.357  0.00  0.00    -0.771 OA
HETATM   27  H   UNK N   1      20.822  21.964   4.103  0.00  0.00     0.167 HD
ENDBRANCH  24  26
ENDBRANCH  23  24
BRANCH  23  28
HETATM   28  O   UNK N   1      20.832  20.853   0.085  0.00  0.00    -0.353 OA
HETATM   29  H   UNK N   1      21.502  21.372  -0.313  0.00  0.00     0.218 HD
ENDBRANCH  23  28
BRANCH  22  30
HETATM   30  O   UNK N   1      20.336  18.279   0.107  0.00  0.00    -0.359 OA
HETATM   31  H   UNK N   1      20.710  18.517  -0.718  0.00  0.00     0.217 HD
ENDBRANCH  22  30
ENDBRANCH  21  22
BRANCH  21  32
HETATM   32  O   UNK N   1      21.991  18.387   3.224  0.00  0.00    -0.386 OA
HETATM   33  H   UNK N   1      22.945  18.381   3.048  0.00  0.00     0.210 HD
ENDBRANCH  21  32
ENDBRANCH  20  21
BRANCH  20  34
HETATM   34  O   UNK N   1      18.478  18.303   2.677  0.00  0.00    -0.390 OA
HETATM   35  H   UNK N   1      18.052  19.128   2.399  0.00  0.00     0.210 HD
ENDBRANCH  20  34
ENDBRANCH  19  20
ENDBRANCH   1  19
TORSDOF 25
ENDMDL
MODEL 3
REMARK VINA RESULT:      -5.8      1.557      2.861
REMARK  25 active torsions:
REMARK  status: ('A' for Active; 'I' for Inactive)
REMARK    1  A    between atoms: C_1  and  C_3 
REMARK    2  A    between atoms: C_1  and  O_25 
REMARK    3  A    between atoms: C_3  and  C_4 
REMARK    4  A    between atoms: C_4  and  C_5 
REMARK    5  A    between atoms: C_5  and  C_6 
REMARK    6  A    between atoms: C_6  and  C_7 
REMARK    7  A    between atoms: C_7  and  C_8 
REMARK    8  A    between atoms: C_8  and  C_9 
REMARK    9  A    between atoms: C_9  and  C_10 
REMARK   10  A    between atoms: C_10  and  C_11 
REMARK   11  A    between atoms: C_11  and  C_12 
REMARK   12  A    between atoms: C_12  and  C_13 
REMARK   13  A    between atoms: C_13  and  C_14 
REMARK   14  A    between atoms: C_14  and  C_28 
REMARK   15  A    between atoms: C_15  and  C_16 
REMARK   16  A    between atoms: C_15  and  O_25 
REMARK   17  A    between atoms: C_16  and  C_17 
REMARK   18  A    between atoms: C_16  and  O_24 
REMARK   19  A    between atoms: C_17  and  C_18 
REMARK   20  A    between atoms: C_17  and  O_23 
REMARK   21  A    between atoms: C_18  and  O_22 
REMARK   22  A    between atoms: C_19  and  C_20 
REMARK   23  A    between atoms: C_19  and  O_21 
REMARK   24  A    between atoms: C_20  and  O_27 
REMARK   25  A    between atoms: C_28  and  C_29 
ROOT
HETATM    1  O   UNK N   1      34.546  17.397   9.742  0.00  0.00    -0.319 OA
ENDROOT
BRANCH   1   2
HETATM    2  C   UNK N   1      34.656  18.034   8.549  0.00  0.00     0.258 C 
HETATM    3  O   UNK N   1      35.219  19.115   8.503  0.00  0.00    -0.265 OA
BRANCH   2   4
HETATM    4  C   UNK N   1      34.155  17.422   7.273  0.00  0.00     0.111 C 
BRANCH   4   5
HETATM    5  C   UNK N   1      32.659  17.612   7.120  0.00  0.00     0.010 C 
BRANCH   5   6
HETATM    6  C   UNK N   1      32.180  16.880   5.881  0.00  0.00     0.000 C 
BRANCH   6   7
HETATM    7  C   UNK N   1      32.740  17.545   4.633  0.00  0.00     0.000 C 
BRANCH   7   8
HETATM    8  C   UNK N   1      32.316  16.809   3.365  0.00  0.00     0.000 C 
BRANCH   8   9
HETATM    9  C   UNK N   1      31.849  15.387   3.655  0.00  0.00     0.000 C 
BRANCH   9  10
HETATM   10  C   UNK N   1      30.433  15.160   3.148  0.00  0.00     0.000 C 
BRANCH  10  11
HETATM   11  C   UNK N   1      29.783  16.466   2.715  0.00  0.00     0.000 C 
BRANCH  11  12
HETATM   12  C   UNK N   1      28.591  16.775   3.598  0.00  0.00     0.000 C 
BRANCH  12  13
HETATM   13  C   UNK N   1      28.933  17.865   4.587  0.00  0.00     0.000 C 
BRANCH  13  14
HETATM   14  C   UNK N   1      27.766  17.999   5.539  0.00  0.00     0.000 C 
BRANCH  14  15
HETATM   15  C   UNK N   1      27.845  19.302   6.304  0.00  0.00     0.000 C 
BRANCH  15  16
HETATM   16  C   UNK N   1      27.691  20.439   5.316  0.00  0.00    -0.000 C 
BRANCH  16  17
HETATM   17  C   UNK N   1      26.272  20.488   4.798  0.00  0.00    -0.005 C 
HETATM   18  C   UNK N   1      26.294  20.393   3.287  0.00  0.00     0.005 C 
ENDBRANCH  16  17
ENDBRANCH  15  16
ENDBRANCH  14  15
ENDBRANCH  13  14
ENDBRANCH  12  13
ENDBRANCH  11  12
ENDBRANCH  10  11
ENDBRANCH   9  10
ENDBRANCH   8   9
ENDBRANCH   7   8
ENDBRANCH   6   7
ENDBRANCH   5   6
ENDBRANCH   4   5
ENDBRANCH   2   4
ENDBRANCH   1   2
BRANCH   1  19
HETATM   19  C   UNK N   1      35.106  16.166   9.999  0.00  0.00     0.213 C 
BRANCH  19  20
HETATM   20  C   UNK N   1      34.095  15.022   9.909  0.00  0.00     0.177 C 
BRANCH  20  21
HETATM   21  C   UNK N   1      34.744  13.645  10.170  0.00  0.00     0.208 C 
BRANCH  21  22
HETATM   22  C   UNK N   1      35.352  13.525  11.561  0.00  0.00     0.114 C 
HETATM   23  C   UNK N   1      36.685  13.380  11.790  0.00  0.00     0.172 C 
BRANCH  23  24
HETATM   24  C   UNK N   1      37.733  13.321  10.727  0.00  0.00     0.203 C 
HETATM   25  O   UNK N   1      38.143  12.229  10.362  0.00  0.00    -0.644 OA
BRANCH  24  26
HETATM   26  O   UNK N   1      38.250  14.427  10.164  0.00  0.00    -0.771 OA
HETATM   27  H   UNK N   1      37.740  15.117   9.787  0.00  0.00     0.167 HD
ENDBRANCH  24  26
ENDBRANCH  23  24
BRANCH  23  28
HETATM   28  O   UNK N   1      37.100  13.292  13.070  0.00  0.00    -0.353 OA
HETATM   29  H   UNK N   1      37.766  12.704  13.366  0.00  0.00     0.218 HD
ENDBRANCH  23  28
BRANCH  22  30
HETATM   30  O   UNK N   1      34.530  13.573  12.633  0.00  0.00    -0.359 OA
HETATM   31  H   UNK N   1      33.689  13.160  12.635  0.00  0.00     0.217 HD
ENDBRANCH  22  30
ENDBRANCH  21  22
BRANCH  21  32
HETATM   32  O   UNK N   1      33.776  12.648  10.010  0.00  0.00    -0.386 OA
HETATM   33  H   UNK N   1      33.154  12.412   9.304  0.00  0.00     0.210 HD
ENDBRANCH  21  32
ENDBRANCH  20  21
BRANCH  20  34
HETATM   34  O   UNK N   1      33.111  15.273  10.868  0.00  0.00    -0.390 OA
HETATM   35  H   UNK N   1      32.192  14.977  10.946  0.00  0.00     0.210 HD
ENDBRANCH  20  34
ENDBRANCH  19  20
ENDBRANCH   1  19
TORSDOF 25
ENDMDL
MODEL 4
REMARK VINA RESULT:      -5.7      2.462      4.571
REMARK  25 active torsions:
REMARK  status: ('A' for Active; 'I' for Inactive)
REMARK    1  A    between atoms: C_1  and  C_3 
REMARK    2  A    between atoms: C_1  and  O_25 
REMARK    3  A    between atoms: C_3  and  C_4 
REMARK    4  A    between atoms: C_4  and  C_5 
REMARK    5  A    between atoms: C_5  and  C_6 
REMARK    6  A    between atoms: C_6  and  C_7 
REMARK    7  A    between atoms: C_7  and  C_8 
REMARK    8  A    between atoms: C_8  and  C_9 
REMARK    9  A    between atoms: C_9  and  C_10 
REMARK   10  A    between atoms: C_10  and  C_11 
REMARK   11  A    between atoms: C_11  and  C_12 
REMARK   12  A    between atoms: C_12  and  C_13 
REMARK   13  A    between atoms: C_13  and  C_14 
REMARK   14  A    between atoms: C_14  and  C_28 
REMARK   15  A    between atoms: C_15  and  C_16 
REMARK   16  A    between atoms: C_15  and  O_25 
REMARK   17  A    between atoms: C_16  and  C_17 
REMARK   18  A    between atoms: C_16  and  O_24 
REMARK   19  A    between atoms: C_17  and  C_18 
REMARK   20  A    between atoms: C_17  and  O_23 
REMARK   21  A    between atoms: C_18  and  O_22 
REMARK   22  A    between atoms: C_19  and  C_20 
REMARK   23  A    between atoms: C_19  and  O_21 
REMARK   24  A    between atoms: C_20  and  O_27 
REMARK   25  A    between atoms: C_28  and  C_29 
ROOT
HETATM    1  O   UNK N   1      35.127  17.010   9.349  0.00  0.00    -0.319 OA
ENDROOT
BRANCH   1   2
HETATM    2  C   UNK N   1      34.678  18.024   8.567  0.00  0.00     0.258 C 
HETATM    3  O   UNK N   1      35.281  19.085   8.567  0.00  0.00    -0.265 OA
BRANCH   2   4
HETATM    4  C   UNK N   1      33.493  17.864   7.660  0.00  0.00     0.111 C 
BRANCH   4   5
HETATM    5  C   UNK N   1      32.336  17.194   8.376  0.00  0.00     0.010 C 
BRANCH   5   6
HETATM    6  C   UNK N   1      31.089  17.288   7.520  0.00  0.00     0.000 C 
BRANCH   6   7
HETATM    7  C   UNK N   1      31.196  16.340   6.335  0.00  0.00     0.000 C 
BRANCH   7   8
HETATM    8  C   UNK N   1      30.840  17.035   5.024  0.00  0.00     0.000 C 
BRANCH   8   9
HETATM    9  C   UNK N   1      32.069  17.599   4.320  0.00  0.00     0.000 C 
BRANCH   9  10
HETATM   10  C   UNK N   1      32.185  17.061   2.902  0.00  0.00     0.000 C 
BRANCH  10  11
HETATM   11  C   UNK N   1      33.325  16.059   2.780  0.00  0.00     0.000 C 
BRANCH  11  12
HETATM   12  C   UNK N   1      32.802  14.648   2.959  0.00  0.00     0.000 C 
BRANCH  12  13
HETATM   13  C   UNK N   1      33.337  14.043   4.236  0.00  0.00     0.000 C 
BRANCH  13  14
HETATM   14  C   UNK N   1      34.727  14.597   4.456  0.00  0.00     0.000 C 
BRANCH  14  15
HETATM   15  C   UNK N   1      34.898  15.063   5.884  0.00  0.00     0.000 C 
BRANCH  15  16
HETATM   16  C   UNK N   1      34.084  14.153   6.779  0.00  0.00    -0.000 C 
BRANCH  16  17
HETATM   17  C   UNK N   1      34.917  13.701   7.956  0.00  0.00    -0.005 C 
HETATM   18  C   UNK N   1      36.369  14.041   7.695  0.00  0.00     0.005 C 
ENDBRANCH  16  17
ENDBRANCH  15  16
ENDBRANCH  14  15
ENDBRANCH  13  14
ENDBRANCH  12  13
ENDBRANCH  11  12
ENDBRANCH  10  11
ENDBRANCH   9  10
ENDBRANCH   8   9
ENDBRANCH   7   8
ENDBRANCH   6   7
ENDBRANCH   5   6
ENDBRANCH   4   5
ENDBRANCH   2   4
ENDBRANCH   1   2
BRANCH   1  19
HETATM   19  C   UNK N   1      35.219  17.093  10.720  0.00  0.00     0.213 C 
BRANCH  19  20
HETATM   20  C   UNK N   1      35.971  15.913  11.338  0.00  0.00     0.177 C 
BRANCH  20  21
HETATM   21  C   UNK N   1      35.177  14.593  11.233  0.00  0.00     0.208 C 
BRANCH  21  22
HETATM   22  C   UNK N   1      35.531  13.594  12.327  0.00  0.00     0.114 C 
HETATM   23  C   UNK N   1      36.474  12.625  12.185  0.00  0.00     0.172 C 
BRANCH  23  24
HETATM   24  C   UNK N   1      37.293  12.402  10.955  0.00  0.00     0.203 C 
HETATM   25  O   UNK N   1      38.311  13.059  10.797  0.00  0.00    -0.644 OA
BRANCH  24  26
HETATM   26  O   UNK N   1      36.945  11.511  10.010  0.00  0.00    -0.771 OA
HETATM   27  H   UNK N   1      36.711  10.621  10.183  0.00  0.00     0.167 HD
ENDBRANCH  24  26
ENDBRANCH  23  24
BRANCH  23  28
HETATM   28  O   UNK N   1      36.701  11.806  13.233  0.00  0.00    -0.353 OA
HETATM   29  H   UNK N   1      36.041  11.541  13.843  0.00  0.00     0.218 HD
ENDBRANCH  23  28
BRANCH  22  30
HETATM   30  O   UNK N   1      34.883  13.674  13.510  0.00  0.00    -0.359 OA
HETATM   31  H   UNK N   1      34.620  14.494  13.880  0.00  0.00     0.217 HD
ENDBRANCH  22  30
ENDBRANCH  21  22
BRANCH  21  32
HETATM   32  O   UNK N   1      33.810  14.877  11.302  0.00  0.00    -0.386 OA
HETATM   33  H   UNK N   1      33.050  14.458  11.735  0.00  0.00     0.210 HD
ENDBRANCH  21  32
ENDBRANCH  20  21
BRANCH  20  34
HETATM   34  O   UNK N   1      37.180  15.797  10.648  0.00  0.00    -0.390 OA
HETATM   35  H   UNK N   1      37.802  16.461  10.315  0.00  0.00     0.210 HD
ENDBRANCH  20  34
ENDBRANCH  19  20
ENDBRANCH   1  19
TORSDOF 25
ENDMDL
MODEL 5
REMARK VINA RESULT:      -5.7      1.844      2.636
REMARK  25 active torsions:
REMARK  status: ('A' for Active; 'I' for Inactive)
REMARK    1  A    between atoms: C_1  and  C_3 
REMARK    2  A    between atoms: C_1  and  O_25 
REMARK    3  A    between atoms: C_3  and  C_4 
REMARK    4  A    between atoms: C_4  and  C_5 
REMARK    5  A    between atoms: C_5  and  C_6 
REMARK    6  A    between atoms: C_6  and  C_7 
REMARK    7  A    between atoms: C_7  and  C_8 
REMARK    8  A    between atoms: C_8  and  C_9 
REMARK    9  A    between atoms: C_9  and  C_10 
REMARK   10  A    between atoms: C_10  and  C_11 
REMARK   11  A    between atoms: C_11  and  C_12 
REMARK   12  A    between atoms: C_12  and  C_13 
REMARK   13  A    between atoms: C_13  and  C_14 
REMARK   14  A    between atoms: C_14  and  C_28 
REMARK   15  A    between atoms: C_15  and  C_16 
REMARK   16  A    between atoms: C_15  and  O_25 
REMARK   17  A    between atoms: C_16  and  C_17 
REMARK   18  A    between atoms: C_16  and  O_24 
REMARK   19  A    between atoms: C_17  and  C_18 
REMARK   20  A    between atoms: C_17  and  O_23 
REMARK   21  A    between atoms: C_18  and  O_22 
REMARK   22  A    between atoms: C_19  and  C_20 
REMARK   23  A    between atoms: C_19  and  O_21 
REMARK   24  A    between atoms: C_20  and  O_27 
REMARK   25  A    between atoms: C_28  and  C_29 
ROOT
HETATM    1  O   UNK N   1      34.415  17.267   9.662  0.00  0.00    -0.319 OA
ENDROOT
BRANCH   1   2
HETATM    2  C   UNK N   1      34.326  18.131   8.620  0.00  0.00     0.258 C 
HETATM    3  O   UNK N   1      35.210  18.955   8.454  0.00  0.00    -0.265 OA
BRANCH   2   4
HETATM    4  C   UNK N   1      33.199  18.068   7.629  0.00  0.00     0.111 C 
BRANCH   4   5
HETATM    5  C   UNK N   1      33.656  17.476   6.310  0.00  0.00     0.010 C 
BRANCH   5   6
HETATM    6  C   UNK N   1      32.449  17.186   5.440  0.00  0.00     0.000 C 
BRANCH   6   7
HETATM    7  C   UNK N   1      32.692  17.688   4.025  0.00  0.00     0.000 C 
BRANCH   7   8
HETATM    8  C   UNK N   1      32.194  16.693   2.982  0.00  0.00     0.000 C 
BRANCH   8   9
HETATM    9  C   UNK N   1      31.778  15.365   3.606  0.00  0.00     0.000 C 
BRANCH   9  10
HETATM   10  C   UNK N   1      30.296  15.098   3.391  0.00  0.00     0.000 C 
BRANCH  10  11
HETATM   11  C   UNK N   1      29.616  16.270   2.699  0.00  0.00     0.000 C 
BRANCH  11  12
HETATM   12  C   UNK N   1      28.622  16.926   3.637  0.00  0.00     0.000 C 
BRANCH  12  13
HETATM   13  C   UNK N   1      28.582  16.197   4.960  0.00  0.00     0.000 C 
BRANCH  13  14
HETATM   14  C   UNK N   1      27.413  16.744   5.747  0.00  0.00     0.000 C 
BRANCH  14  15
HETATM   15  C   UNK N   1      27.760  16.856   7.215  0.00  0.00     0.000 C 
BRANCH  15  16
HETATM   16  C   UNK N   1      28.913  17.826   7.354  0.00  0.00    -0.000 C 
BRANCH  16  17
HETATM   17  C   UNK N   1      29.774  17.442   8.536  0.00  0.00    -0.005 C 
HETATM   18  C   UNK N   1      29.907  18.634   9.460  0.00  0.00     0.005 C 
ENDBRANCH  16  17
ENDBRANCH  15  16
ENDBRANCH  14  15
ENDBRANCH  13  14
ENDBRANCH  12  13
ENDBRANCH  11  12
ENDBRANCH  10  11
ENDBRANCH   9  10
ENDBRANCH   8   9
ENDBRANCH   7   8
ENDBRANCH   6   7
ENDBRANCH   5   6
ENDBRANCH   4   5
ENDBRANCH   2   4
ENDBRANCH   1   2
BRANCH   1  19
HETATM   19  C   UNK N   1      34.986  16.018   9.565  0.00  0.00     0.213 C 
BRANCH  19  20
HETATM   20  C   UNK N   1      33.984  14.886   9.799  0.00  0.00     0.177 C 
BRANCH  20  21
HETATM   21  C   UNK N   1      34.679  13.545  10.120  0.00  0.00     0.208 C 
BRANCH  21  22
HETATM   22  C   UNK N   1      35.346  13.530  11.489  0.00  0.00     0.114 C 
HETATM   23  C   UNK N   1      36.693  13.563  11.671  0.00  0.00     0.172 C 
BRANCH  23  24
HETATM   24  C   UNK N   1      37.703  13.622  10.572  0.00  0.00     0.203 C 
HETATM   25  O   UNK N   1      38.113  12.577  10.089  0.00  0.00    -0.644 OA
BRANCH  24  26
HETATM   26  O   UNK N   1      38.185  14.785  10.099  0.00  0.00    -0.771 OA
HETATM   27  H   UNK N   1      37.653  15.500   9.809  0.00  0.00     0.167 HD
ENDBRANCH  24  26
ENDBRANCH  23  24
BRANCH  23  28
HETATM   28  O   UNK N   1      37.160  13.552  12.937  0.00  0.00    -0.353 OA
HETATM   29  H   UNK N   1      36.681  13.218  13.669  0.00  0.00     0.218 HD
ENDBRANCH  23  28
BRANCH  22  30
HETATM   30  O   UNK N   1      34.562  13.489  12.590  0.00  0.00    -0.359 OA
HETATM   31  H   UNK N   1      33.707  13.872  12.607  0.00  0.00     0.217 HD
ENDBRANCH  22  30
ENDBRANCH  21  22
BRANCH  21  32
HETATM   32  O   UNK N   1      33.733  12.517  10.064  0.00  0.00    -0.386 OA
HETATM   33  H   UNK N   1      32.780  12.479   9.883  0.00  0.00     0.210 HD
ENDBRANCH  21  32
ENDBRANCH  20  21
BRANCH  20  34
HETATM   34  O   UNK N   1      33.180  15.273  10.874  0.00  0.00    -0.390 OA
HETATM   35  H   UNK N   1      32.290  15.003  11.148  0.00  0.00     0.210 HD
ENDBRANCH  20  34
ENDBRANCH  19  20
ENDBRANCH   1  19
TORSDOF 25
ENDMDL
MODEL 6
REMARK VINA RESULT:      -5.6      2.728      4.367
REMARK  25 active torsions:
REMARK  status: ('A' for Active; 'I' for Inactive)
REMARK    1  A    between atoms: C_1  and  C_3 
REMARK    2  A    between atoms: C_1  and  O_25 
REMARK    3  A    between atoms: C_3  and  C_4 
REMARK    4  A    between atoms: C_4  and  C_5 
REMARK    5  A    between atoms: C_5  and  C_6 
REMARK    6  A    between atoms: C_6  and  C_7 
REMARK    7  A    between atoms: C_7  and  C_8 
REMARK    8  A    between atoms: C_8  and  C_9 
REMARK    9  A    between atoms: C_9  and  C_10 
REMARK   10  A    between atoms: C_10  and  C_11 
REMARK   11  A    between atoms: C_11  and  C_12 
REMARK   12  A    between atoms: C_12  and  C_13 
REMARK   13  A    between atoms: C_13  and  C_14 
REMARK   14  A    between atoms: C_14  and  C_28 
REMARK   15  A    between atoms: C_15  and  C_16 
REMARK   16  A    between atoms: C_15  and  O_25 
REMARK   17  A    between atoms: C_16  and  C_17 
REMARK   18  A    between atoms: C_16  and  O_24 
REMARK   19  A    between atoms: C_17  and  C_18 
REMARK   20  A    between atoms: C_17  and  O_23 
REMARK   21  A    between atoms: C_18  and  O_22 
REMARK   22  A    between atoms: C_19  and  C_20 
REMARK   23  A    between atoms: C_19  and  O_21 
REMARK   24  A    between atoms: C_20  and  O_27 
REMARK   25  A    between atoms: C_28  and  C_29 
ROOT
HETATM    1  O   UNK N   1      34.641  17.482   9.662  0.00  0.00    -0.319 OA
ENDROOT
BRANCH   1   2
HETATM    2  C   UNK N   1      34.476  18.234   8.545  0.00  0.00     0.258 C 
HETATM    3  O   UNK N   1      35.227  19.174   8.345  0.00  0.00    -0.265 OA
BRANCH   2   4
HETATM    4  C   UNK N   1      33.430  17.910   7.517  0.00  0.00     0.111 C 
BRANCH   4   5
HETATM    5  C   UNK N   1      34.049  17.304   6.272  0.00  0.00     0.010 C 
BRANCH   5   6
HETATM    6  C   UNK N   1      33.163  17.592   5.076  0.00  0.00     0.000 C 
BRANCH   6   7
HETATM    7  C   UNK N   1      33.343  16.511   4.021  0.00  0.00     0.000 C 
BRANCH   7   8
HETATM    8  C   UNK N   1      32.527  16.809   2.766  0.00  0.00     0.000 C 
BRANCH   8   9
HETATM    9  C   UNK N   1      31.029  16.839   3.048  0.00  0.00     0.000 C 
BRANCH   9  10
HETATM   10  C   UNK N   1      30.554  15.519   3.637  0.00  0.00     0.000 C 
BRANCH  10  11
HETATM   11  C   UNK N   1      29.709  15.739   4.883  0.00  0.00     0.000 C 
BRANCH  11  12
HETATM   12  C   UNK N   1      30.426  15.198   6.103  0.00  0.00     0.000 C 
BRANCH  12  13
HETATM   13  C   UNK N   1      31.363  14.079   5.714  0.00  0.00     0.000 C 
BRANCH  13  14
HETATM   14  C   UNK N   1      32.502  14.070   6.709  0.00  0.00     0.000 C 
BRANCH  14  15
HETATM   15  C   UNK N   1      33.741  13.453   6.100  0.00  0.00     0.000 C 
BRANCH  15  16
HETATM   16  C   UNK N   1      34.837  13.467   7.144  0.00  0.00    -0.000 C 
BRANCH  16  17
HETATM   17  C   UNK N   1      36.048  14.201   6.616  0.00  0.00    -0.005 C 
HETATM   18  C   UNK N   1      36.038  14.149   5.103  0.00  0.00     0.005 C 
ENDBRANCH  16  17
ENDBRANCH  15  16
ENDBRANCH  14  15
ENDBRANCH  13  14
ENDBRANCH  12  13
ENDBRANCH  11  12
ENDBRANCH  10  11
ENDBRANCH   9  10
ENDBRANCH   8   9
ENDBRANCH   7   8
ENDBRANCH   6   7
ENDBRANCH   5   6
ENDBRANCH   4   5
ENDBRANCH   2   4
ENDBRANCH   1   2
BRANCH   1  19
HETATM   19  C   UNK N   1      35.150  16.202   9.646  0.00  0.00     0.213 C 
BRANCH  19  20
HETATM   20  C   UNK N   1      35.615  15.730  11.024  0.00  0.00     0.177 C 
BRANCH  20  21
HETATM   21  C   UNK N   1      35.244  14.256  11.295  0.00  0.00     0.208 C 
BRANCH  21  22
HETATM   22  C   UNK N   1      35.858  13.711  12.577  0.00  0.00     0.114 C 
HETATM   23  C   UNK N   1      36.997  12.967  12.610  0.00  0.00     0.172 C 
BRANCH  23  24
HETATM   24  C   UNK N   1      37.803  12.585  11.411  0.00  0.00     0.203 C 
HETATM   25  O   UNK N   1      37.635  11.481  10.915  0.00  0.00    -0.644 OA
BRANCH  24  26
HETATM   26  O   UNK N   1      38.714  13.408  10.864  0.00  0.00    -0.771 OA
HETATM   27  H   UNK N   1      39.580  13.536  11.198  0.00  0.00     0.167 HD
ENDBRANCH  24  26
ENDBRANCH  23  24
BRANCH  23  28
HETATM   28  O   UNK N   1      37.444  12.549  13.812  0.00  0.00    -0.353 OA
HETATM   29  H   UNK N   1      37.034  12.763  14.627  0.00  0.00     0.218 HD
ENDBRANCH  23  28
BRANCH  22  30
HETATM   30  O   UNK N   1      35.249  13.983  13.753  0.00  0.00    -0.359 OA
HETATM   31  H   UNK N   1      35.496  13.559  14.551  0.00  0.00     0.217 HD
ENDBRANCH  22  30
ENDBRANCH  21  22
BRANCH  21  32
HETATM   32  O   UNK N   1      33.852  14.144  11.374  0.00  0.00    -0.386 OA
HETATM   33  H   UNK N   1      33.242  13.645  11.939  0.00  0.00     0.210 HD
ENDBRANCH  21  32
ENDBRANCH  20  21
BRANCH  20  34
HETATM   34  O   UNK N   1      37.003  15.884  11.058  0.00  0.00    -0.390 OA
HETATM   35  H   UNK N   1      37.676  15.848  10.362  0.00  0.00     0.210 HD
ENDBRANCH  20  34
ENDBRANCH  19  20
ENDBRANCH   1  19
TORSDOF 25
ENDMDL
MODEL 7
REMARK VINA RESULT:      -5.6      1.577      2.724
REMARK  25 active torsions:
REMARK  status: ('A' for Active; 'I' for Inactive)
REMARK    1  A    between atoms: C_1  and  C_3 
REMARK    2  A    between atoms: C_1  and  O_25 
REMARK    3  A    between atoms: C_3  and  C_4 
REMARK    4  A    between atoms: C_4  and  C_5 
REMARK    5  A    between atoms: C_5  and  C_6 
REMARK    6  A    between atoms: C_6  and  C_7 
REMARK    7  A    between atoms: C_7  and  C_8 
REMARK    8  A    between atoms: C_8  and  C_9 
REMARK    9  A    between atoms: C_9  and  C_10 
REMARK   10  A    between atoms: C_10  and  C_11 
REMARK   11  A    between atoms: C_11  and  C_12 
REMARK   12  A    between atoms: C_12  and  C_13 
REMARK   13  A    between atoms: C_13  and  C_14 
REMARK   14  A    between atoms: C_14  and  C_28 
REMARK   15  A    between atoms: C_15  and  C_16 
REMARK   16  A    between atoms: C_15  and  O_25 
REMARK   17  A    between atoms: C_16  and  C_17 
REMARK   18  A    between atoms: C_16  and  O_24 
REMARK   19  A    between atoms: C_17  and  C_18 
REMARK   20  A    between atoms: C_17  and  O_23 
REMARK   21  A    between atoms: C_18  and  O_22 
REMARK   22  A    between atoms: C_19  and  C_20 
REMARK   23  A    between atoms: C_19  and  O_21 
REMARK   24  A    between atoms: C_20  and  O_27 
REMARK   25  A    between atoms: C_28  and  C_29 
ROOT
HETATM    1  O   UNK N   1      34.735  16.395   8.309  0.00  0.00    -0.319 OA
ENDROOT
BRANCH   1   2
HETATM    2  C   UNK N   1      34.327  17.091   7.219  0.00  0.00     0.258 C 
HETATM    3  O   UNK N   1      34.555  18.288   7.159  0.00  0.00    -0.265 OA
BRANCH   2   4
HETATM    4  C   UNK N   1      33.651  16.422   6.056  0.00  0.00     0.111 C 
BRANCH   4   5
HETATM    5  C   UNK N   1      32.526  17.276   5.506  0.00  0.00     0.010 C 
BRANCH   5   6
HETATM    6  C   UNK N   1      32.825  17.639   4.064  0.00  0.00     0.000 C 
BRANCH   6   7
HETATM    7  C   UNK N   1      31.935  16.835   3.129  0.00  0.00     0.000 C 
BRANCH   7   8
HETATM    8  C   UNK N   1      30.614  16.458   3.794  0.00  0.00     0.000 C 
BRANCH   8   9
HETATM    9  C   UNK N   1      29.479  16.328   2.784  0.00  0.00     0.000 C 
BRANCH   9  10
HETATM   10  C   UNK N   1      28.288  15.599   3.389  0.00  0.00     0.000 C 
BRANCH  10  11
HETATM   11  C   UNK N   1      27.079  16.516   3.509  0.00  0.00     0.000 C 
BRANCH  11  12
HETATM   12  C   UNK N   1      26.574  16.531   4.937  0.00  0.00     0.000 C 
BRANCH  12  13
HETATM   13  C   UNK N   1      27.726  16.412   5.908  0.00  0.00     0.000 C 
BRANCH  13  14
HETATM   14  C   UNK N   1      27.776  17.690   6.715  0.00  0.00     0.000 C 
BRANCH  14  15
HETATM   15  C   UNK N   1      28.287  18.837   5.871  0.00  0.00     0.000 C 
BRANCH  15  16
HETATM   16  C   UNK N   1      27.547  20.092   6.282  0.00  0.00    -0.000 C 
BRANCH  16  17
HETATM   17  C   UNK N   1      26.507  20.444   5.243  0.00  0.00    -0.005 C 
HETATM   18  C   UNK N   1      27.063  20.150   3.866  0.00  0.00     0.005 C 
ENDBRANCH  16  17
ENDBRANCH  15  16
ENDBRANCH  14  15
ENDBRANCH  13  14
ENDBRANCH  12  13
ENDBRANCH  11  12
ENDBRANCH  10  11
ENDBRANCH   9  10
ENDBRANCH   8   9
ENDBRANCH   7   8
ENDBRANCH   6   7
ENDBRANCH   5   6
ENDBRANCH   4   5
ENDBRANCH   2   4
ENDBRANCH   1   2
BRANCH   1  19
HETATM   19  C   UNK N   1      34.015  16.332   9.482  0.00  0.00     0.213 C 
BRANCH  19  20
HETATM   20  C   UNK N   1      34.463  15.190  10.395  0.00  0.00     0.177 C 
BRANCH  20  21
HETATM   21  C   UNK N   1      35.659  15.588  11.287  0.00  0.00     0.208 C 
BRANCH  21  22
HETATM   22  C   UNK N   1      36.698  14.482  11.422  0.00  0.00     0.114 C 
HETATM   23  C   UNK N   1      36.661  13.527  12.389  0.00  0.00     0.172 C 
BRANCH  23  24
HETATM   24  C   UNK N   1      35.608  13.421  13.445  0.00  0.00     0.203 C 
HETATM   25  O   UNK N   1      35.864  13.809  14.575  0.00  0.00    -0.644 OA
BRANCH  24  26
HETATM   26  O   UNK N   1      34.392  12.904  13.199  0.00  0.00    -0.771 OA
HETATM   27  H   UNK N   1      34.233  12.166  12.643  0.00  0.00     0.167 HD
ENDBRANCH  24  26
ENDBRANCH  23  24
BRANCH  23  28
HETATM   28  O   UNK N   1      37.637  12.597  12.397  0.00  0.00    -0.353 OA
HETATM   29  H   UNK N   1      38.463  12.707  12.826  0.00  0.00     0.218 HD
ENDBRANCH  23  28
BRANCH  22  30
HETATM   30  O   UNK N   1      37.713  14.436  10.529  0.00  0.00    -0.359 OA
HETATM   31  H   UNK N   1      37.665  13.921   9.748  0.00  0.00     0.217 HD
ENDBRANCH  22  30
ENDBRANCH  21  22
BRANCH  21  32
HETATM   32  O   UNK N   1      36.271  16.724  10.748  0.00  0.00    -0.386 OA
HETATM   33  H   UNK N   1      35.950  17.518  10.294  0.00  0.00     0.210 HD
ENDBRANCH  21  32
ENDBRANCH  20  21
BRANCH  20  34
HETATM   34  O   UNK N   1      33.367  14.854  11.192  0.00  0.00    -0.390 OA
HETATM   35  H   UNK N   1      32.666  15.392  11.589  0.00  0.00     0.210 HD
ENDBRANCH  20  34
ENDBRANCH  19  20
ENDBRANCH   1  19
TORSDOF 25
ENDMDL
MODEL 8
REMARK VINA RESULT:      -5.6      1.652      3.125
REMARK  25 active torsions:
REMARK  status: ('A' for Active; 'I' for Inactive)
REMARK    1  A    between atoms: C_1  and  C_3 
REMARK    2  A    between atoms: C_1  and  O_25 
REMARK    3  A    between atoms: C_3  and  C_4 
REMARK    4  A    between atoms: C_4  and  C_5 
REMARK    5  A    between atoms: C_5  and  C_6 
REMARK    6  A    between atoms: C_6  and  C_7 
REMARK    7  A    between atoms: C_7  and  C_8 
REMARK    8  A    between atoms: C_8  and  C_9 
REMARK    9  A    between atoms: C_9  and  C_10 
REMARK   10  A    between atoms: C_10  and  C_11 
REMARK   11  A    between atoms: C_11  and  C_12 
REMARK   12  A    between atoms: C_12  and  C_13 
REMARK   13  A    between atoms: C_13  and  C_14 
REMARK   14  A    between atoms: C_14  and  C_28 
REMARK   15  A    between atoms: C_15  and  C_16 
REMARK   16  A    between atoms: C_15  and  O_25 
REMARK   17  A    between atoms: C_16  and  C_17 
REMARK   18  A    between atoms: C_16  and  O_24 
REMARK   19  A    between atoms: C_17  and  C_18 
REMARK   20  A    between atoms: C_17  and  O_23 
REMARK   21  A    between atoms: C_18  and  O_22 
REMARK   22  A    between atoms: C_19  and  C_20 
REMARK   23  A    between atoms: C_19  and  O_21 
REMARK   24  A    between atoms: C_20  and  O_27 
REMARK   25  A    between atoms: C_28  and  C_29 
ROOT
HETATM    1  O   UNK N   1      34.106  16.629   8.708  0.00  0.00    -0.319 OA
ENDROOT
BRANCH   1   2
HETATM    2  C   UNK N   1      34.330  17.249   7.522  0.00  0.00     0.258 C 
HETATM    3  O   UNK N   1      34.736  18.399   7.520  0.00  0.00    -0.265 OA
BRANCH   2   4
HETATM    4  C   UNK N   1      34.146  16.543   6.209  0.00  0.00     0.111 C 
BRANCH   4   5
HETATM    5  C   UNK N   1      33.499  17.451   5.181  0.00  0.00     0.010 C 
BRANCH   5   6
HETATM    6  C   UNK N   1      33.188  16.654   3.929  0.00  0.00     0.000 C 
BRANCH   6   7
HETATM    7  C   UNK N   1      31.791  16.990   3.430  0.00  0.00     0.000 C 
BRANCH   7   8
HETATM    8  C   UNK N   1      30.943  17.635   4.523  0.00  0.00     0.000 C 
BRANCH   8   9
HETATM    9  C   UNK N   1      29.910  16.670   5.095  0.00  0.00     0.000 C 
BRANCH   9  10
HETATM   10  C   UNK N   1      30.279  16.245   6.508  0.00  0.00     0.000 C 
BRANCH  10  11
HETATM   11  C   UNK N   1      29.927  17.325   7.522  0.00  0.00     0.000 C 
BRANCH  11  12
HETATM   12  C   UNK N   1      28.444  17.284   7.834  0.00  0.00     0.000 C 
BRANCH  12  13
HETATM   13  C   UNK N   1      27.950  18.656   8.232  0.00  0.00     0.000 C 
BRANCH  13  14
HETATM   14  C   UNK N   1      28.237  19.596   7.084  0.00  0.00     0.000 C 
BRANCH  14  15
HETATM   15  C   UNK N   1      27.242  19.394   5.963  0.00  0.00     0.000 C 
BRANCH  15  16
HETATM   16  C   UNK N   1      27.918  19.761   4.660  0.00  0.00    -0.000 C 
BRANCH  16  17
HETATM   17  C   UNK N   1      26.883  20.163   3.634  0.00  0.00    -0.005 C 
HETATM   18  C   UNK N   1      25.526  20.234   4.301  0.00  0.00     0.005 C 
ENDBRANCH  16  17
ENDBRANCH  15  16
ENDBRANCH  14  15
ENDBRANCH  13  14
ENDBRANCH  12  13
ENDBRANCH  11  12
ENDBRANCH  10  11
ENDBRANCH   9  10
ENDBRANCH   8   9
ENDBRANCH   7   8
ENDBRANCH   6   7
ENDBRANCH   5   6
ENDBRANCH   4   5
ENDBRANCH   2   4
ENDBRANCH   1   2
BRANCH   1  19
HETATM   19  C   UNK N   1      33.057  15.763   8.924  0.00  0.00     0.213 C 
BRANCH  19  20
HETATM   20  C   UNK N   1      33.512  14.316   9.117  0.00  0.00     0.177 C 
BRANCH  20  21
HETATM   21  C   UNK N   1      34.105  14.070  10.522  0.00  0.00     0.208 C 
BRANCH  21  22
HETATM   22  C   UNK N   1      35.627  14.105  10.542  0.00  0.00     0.114 C 
HETATM   23  C   UNK N   1      36.378  13.613  11.564  0.00  0.00     0.172 C 
BRANCH  23  24
HETATM   24  C   UNK N   1      35.829  12.971  12.796  0.00  0.00     0.203 C 
HETATM   25  O   UNK N   1      35.998  11.772  12.963  0.00  0.00    -0.644 OA
BRANCH  24  26
HETATM   26  O   UNK N   1      35.147  13.663  13.725  0.00  0.00    -0.771 OA
HETATM   27  H   UNK N   1      34.213  13.668  13.802  0.00  0.00     0.167 HD
ENDBRANCH  24  26
ENDBRANCH  23  24
BRANCH  23  28
HETATM   28  O   UNK N   1      37.720  13.697  11.459  0.00  0.00    -0.353 OA
HETATM   29  H   UNK N   1      38.250  13.072  11.005  0.00  0.00     0.218 HD
ENDBRANCH  23  28
BRANCH  22  30
HETATM   30  O   UNK N   1      36.276  14.646   9.487  0.00  0.00    -0.359 OA
HETATM   31  H   UNK N   1      36.226  15.560   9.287  0.00  0.00     0.217 HD
ENDBRANCH  22  30
ENDBRANCH  21  22
BRANCH  21  32
HETATM   32  O   UNK N   1      33.615  15.043  11.399  0.00  0.00    -0.386 OA
HETATM   33  H   UNK N   1      33.378  15.052  12.340  0.00  0.00     0.210 HD
ENDBRANCH  21  32
ENDBRANCH  20  21
BRANCH  20  34
HETATM   34  O   UNK N   1      32.387  13.509   8.929  0.00  0.00    -0.390 OA
HETATM   35  H   UNK N   1      32.222  12.755   8.342  0.00  0.00     0.210 HD
ENDBRANCH  20  34
ENDBRANCH  19  20
ENDBRANCH   1  19
TORSDOF 25
ENDMDL
MODEL 9
REMARK VINA RESULT:      -5.5      8.784     13.773
REMARK  25 active torsions:
REMARK  status: ('A' for Active; 'I' for Inactive)
REMARK    1  A    between atoms: C_1  and  C_3 
REMARK    2  A    between atoms: C_1  and  O_25 
REMARK    3  A    between atoms: C_3  and  C_4 
REMARK    4  A    between atoms: C_4  and  C_5 
REMARK    5  A    between atoms: C_5  and  C_6 
REMARK    6  A    between atoms: C_6  and  C_7 
REMARK    7  A    between atoms: C_7  and  C_8 
REMARK    8  A    between atoms: C_8  and  C_9 
REMARK    9  A    between atoms: C_9  and  C_10 
REMARK   10  A    between atoms: C_10  and  C_11 
REMARK   11  A    between atoms: C_11  and  C_12 
REMARK   12  A    between atoms: C_12  and  C_13 
REMARK   13  A    between atoms: C_13  and  C_14 
REMARK   14  A    between atoms: C_14  and  C_28 
REMARK   15  A    between atoms: C_15  and  C_16 
REMARK   16  A    between atoms: C_15  and  O_25 
REMARK   17  A    between atoms: C_16  and  C_17 
REMARK   18  A    between atoms: C_16  and  O_24 
REMARK   19  A    between atoms: C_17  and  C_18 
REMARK   20  A    between atoms: C_17  and  O_23 
REMARK   21  A    between atoms: C_18  and  O_22 
REMARK   22  A    between atoms: C_19  and  C_20 
REMARK   23  A    between atoms: C_19  and  O_21 
REMARK   24  A    between atoms: C_20  and  O_27 
REMARK   25  A    between atoms: C_28  and  C_29 
ROOT
HETATM    1  O   UNK N   1      22.595  16.048   3.768  0.00  0.00    -0.319 OA
ENDROOT
BRANCH   1   2
HETATM    2  C   UNK N   1      23.265  16.981   4.489  0.00  0.00     0.258 C 
HETATM    3  O   UNK N   1      23.730  16.672   5.574  0.00  0.00    -0.265 OA
BRANCH   2   4
HETATM    4  C   UNK N   1      23.502  18.370   3.968  0.00  0.00     0.111 C 
BRANCH   4   5
HETATM    5  C   UNK N   1      24.773  18.965   4.541  0.00  0.00     0.010 C 
BRANCH   5   6
HETATM    6  C   UNK N   1      25.443  19.831   3.492  0.00  0.00     0.000 C 
BRANCH   6   7
HETATM    7  C   UNK N   1      26.901  20.061   3.858  0.00  0.00     0.000 C 
BRANCH   7   8
HETATM    8  C   UNK N   1      27.037  20.883   5.137  0.00  0.00     0.000 C 
BRANCH   8   9
HETATM    9  C   UNK N   1      28.106  20.322   6.069  0.00  0.00     0.000 C 
BRANCH   9  10
HETATM   10  C   UNK N   1      27.478  19.628   7.269  0.00  0.00     0.000 C 
BRANCH  10  11
HETATM   11  C   UNK N   1      28.144  18.287   7.545  0.00  0.00     0.000 C 
BRANCH  11  12
HETATM   12  C   UNK N   1      29.061  17.913   6.399  0.00  0.00     0.000 C 
BRANCH  12  13
HETATM   13  C   UNK N   1      28.379  16.933   5.473  0.00  0.00     0.000 C 
BRANCH  13  14
HETATM   14  C   UNK N   1      29.176  16.887   4.189  0.00  0.00     0.000 C 
BRANCH  14  15
HETATM   15  C   UNK N   1      28.368  16.253   3.079  0.00  0.00     0.000 C 
BRANCH  15  16
HETATM   16  C   UNK N   1      26.904  16.337   3.452  0.00  0.00    -0.000 C 
BRANCH  16  17
HETATM   17  C   UNK N   1      26.049  15.804   2.326  0.00  0.00    -0.005 C 
HETATM   18  C   UNK N   1      26.458  14.377   2.027  0.00  0.00     0.005 C 
ENDBRANCH  16  17
ENDBRANCH  15  16
ENDBRANCH  14  15
ENDBRANCH  13  14
ENDBRANCH  12  13
ENDBRANCH  11  12
ENDBRANCH  10  11
ENDBRANCH   9  10
ENDBRANCH   8   9
ENDBRANCH   7   8
ENDBRANCH   6   7
ENDBRANCH   5   6
ENDBRANCH   4   5
ENDBRANCH   2   4
ENDBRANCH   1   2
BRANCH   1  19
HETATM   19  C   UNK N   1      21.230  15.878   3.831  0.00  0.00     0.213 C 
BRANCH  19  20
HETATM   20  C   UNK N   1      20.509  16.391   2.584  0.00  0.00     0.177 C 
BRANCH  20  21
HETATM   21  C   UNK N   1      20.109  17.878   2.708  0.00  0.00     0.208 C 
BRANCH  21  22
HETATM   22  C   UNK N   1      20.366  18.674   1.436  0.00  0.00     0.114 C 
HETATM   23  C   UNK N   1      20.784  19.968   1.429  0.00  0.00     0.172 C 
BRANCH  23  24
HETATM   24  C   UNK N   1      21.053  20.786   2.650  0.00  0.00     0.203 C 
HETATM   25  O   UNK N   1      20.257  20.743   3.577  0.00  0.00    -0.644 OA
BRANCH  24  26
HETATM   26  O   UNK N   1      22.135  21.577   2.763  0.00  0.00    -0.771 OA
HETATM   27  H   UNK N   1      22.323  22.113   3.508  0.00  0.00     0.167 HD
ENDBRANCH  24  26
ENDBRANCH  23  24
BRANCH  23  28
HETATM   28  O   UNK N   1      20.984  20.561   0.234  0.00  0.00    -0.353 OA
HETATM   29  H   UNK N   1      21.733  20.410  -0.307  0.00  0.00     0.218 HD
ENDBRANCH  23  28
BRANCH  22  30
HETATM   30  O   UNK N   1      20.178  18.066   0.243  0.00  0.00    -0.359 OA
HETATM   31  H   UNK N   1      19.986  18.548  -0.537  0.00  0.00     0.217 HD
ENDBRANCH  22  30
ENDBRANCH  21  22
BRANCH  21  32
HETATM   32  O   UNK N   1      18.750  17.959   3.029  0.00  0.00    -0.386 OA
HETATM   33  H   UNK N   1      18.254  18.213   3.822  0.00  0.00     0.210 HD
ENDBRANCH  21  32
ENDBRANCH  20  21
BRANCH  20  34
HETATM   34  O   UNK N   1      21.386  16.224   1.510  0.00  0.00    -0.390 OA
HETATM   35  H   UNK N   1      21.259  15.862   0.620  0.00  0.00     0.210 HD
ENDBRANCH  20  34
ENDBRANCH  19  20
ENDBRANCH   1  19
TORSDOF 25
ENDMDL
