MODEL 1
REMARK VINA RESULT:      -6.5      0.000      0.000
REMARK  1 active torsions:
REMARK  status: ('A' for Active; 'I' for Inactive)
REMARK       I    between atoms: C_2  and  N_4 
REMARK    1  A    between atoms: N_4  and  C_5 
ROOT
HETATM    1  C   UNK N   1      22.372  18.118   4.992  0.00  0.00     0.048 A 
HETATM    2  C   UNK N   1      21.775  18.877   3.963  0.00  0.00     0.020 A 
HETATM    3  C   UNK N   1      20.399  18.802   3.716  0.00  0.00     0.017 A 
HETATM    4  C   UNK N   1      19.831  19.561   2.694  0.00  0.00     0.018 A 
HETATM    5  C   UNK N   1      20.644  20.393   1.923  0.00  0.00     0.088 A 
HETATM    6  N   UNK N   1      21.981  20.464   2.166  0.00  0.00    -0.363 N 
ATOM      7  HN  UNK N   1      22.560  21.077   1.593  1.00  0.00     0.165 HD
HETATM    8  C   UNK N   1      22.567  19.735   3.157  0.00  0.00     0.072 A 
HETATM    9  C   UNK N   1      23.951  19.825   3.388  0.00  0.00     0.070 A 
HETATM   10  N   UNK N   1      24.735  20.641   2.629  0.00  0.00    -0.363 N 
ATOM     11  HN  UNK N   1      24.309  21.192   1.884  1.00  0.00     0.165 HD
HETATM   12  C   UNK N   1      26.078  20.737   2.843  0.00  0.00     0.088 A 
HETATM   13  C   UNK N   1      26.686  19.992   3.858  0.00  0.00     0.018 A 
HETATM   14  C   UNK N   1      25.907  19.150   4.649  0.00  0.00     0.015 A 
HETATM   15  C   UNK N   1      24.536  19.063   4.418  0.00  0.00    -0.005 A 
HETATM   16  C   UNK N   1      23.753  18.226   5.202  0.00  0.00     0.044 A 
ENDROOT
BRANCH   1  17
HETATM   17  N   UNK N   1      21.570  17.255   5.801  0.00  0.00    -0.327 N 
HETATM   18  C   UNK N   1      20.890  17.625   6.921  0.00  0.00     0.218 C 
HETATM   19  C   UNK N   1      20.095  16.608   7.661  0.00  0.00     0.117 C 
HETATM   20  O   UNK N   1      20.917  18.774   7.335  0.00  0.00    -0.274 OA
HETATM   21  H   UNK N   1      21.505  16.313   5.525  0.00  0.00     0.169 HD
ENDBRANCH   1  17
TORSDOF 1
ENDMDL
MODEL 2
REMARK VINA RESULT:      -6.4      6.434      8.884
REMARK  1 active torsions:
REMARK  status: ('A' for Active; 'I' for Inactive)
REMARK       I    between atoms: C_2  and  N_4 
REMARK    1  A    between atoms: N_4  and  C_5 
ROOT
HETATM    1  C   UNK N   1      29.368  17.568   5.722  0.00  0.00     0.048 A 
HETATM    2  C   UNK N   1      29.348  17.617   7.132  0.00  0.00     0.020 A 
HETATM    3  C   UNK N   1      28.153  17.833   7.830  0.00  0.00     0.017 A 
HETATM    4  C   UNK N   1      28.158  17.878   9.223  0.00  0.00     0.018 A 
HETATM    5  C   UNK N   1      29.359  17.706   9.913  0.00  0.00     0.088 A 
HETATM    6  N   UNK N   1      30.518  17.497   9.231  0.00  0.00    -0.363 N 
ATOM      7  HN  UNK N   1      31.387  17.373   9.751  1.00  0.00     0.165 HD
HETATM    8  C   UNK N   1      30.548  17.447   7.869  0.00  0.00     0.072 A 
HETATM    9  C   UNK N   1      31.758  17.230   7.188  0.00  0.00     0.070 A 
HETATM   10  N   UNK N   1      32.926  17.063   7.871  0.00  0.00    -0.363 N 
ATOM     11  HN  UNK N   1      32.917  17.098   8.890  1.00  0.00     0.165 HD
HETATM   12  C   UNK N   1      34.105  16.852   7.223  0.00  0.00     0.088 A 
HETATM   13  C   UNK N   1      34.143  16.800   5.826  0.00  0.00     0.018 A 
HETATM   14  C   UNK N   1      32.964  16.967   5.103  0.00  0.00     0.015 A 
HETATM   15  C   UNK N   1      31.766  17.182   5.780  0.00  0.00    -0.005 A 
HETATM   16  C   UNK N   1      30.587  17.350   5.066  0.00  0.00     0.044 A 
ENDROOT
BRANCH   1  17
HETATM   17  N   UNK N   1      28.156  17.739   4.983  0.00  0.00    -0.327 N 
HETATM   18  C   UNK N   1      27.685  18.920   4.496  0.00  0.00     0.218 C 
HETATM   19  C   UNK N   1      26.402  18.939   3.743  0.00  0.00     0.117 C 
HETATM   20  O   UNK N   1      28.292  19.968   4.662  0.00  0.00    -0.274 OA
HETATM   21  H   UNK N   1      27.616  16.934   4.813  0.00  0.00     0.169 HD
ENDBRANCH   1  17
TORSDOF 1
ENDMDL
MODEL 3
REMARK VINA RESULT:      -6.3     16.676     19.097
REMARK  1 active torsions:
REMARK  status: ('A' for Active; 'I' for Inactive)
REMARK       I    between atoms: C_2  and  N_4 
REMARK    1  A    between atoms: N_4  and  C_5 
ROOT
HETATM    1  C   UNK N   1      36.533  13.367  14.036  0.00  0.00     0.048 A 
HETATM    2  C   UNK N   1      36.896  12.016  13.858  0.00  0.00     0.020 A 
HETATM    3  C   UNK N   1      37.427  11.564  12.644  0.00  0.00     0.017 A 
HETATM    4  C   UNK N   1      37.778  10.223  12.492  0.00  0.00     0.018 A 
HETATM    5  C   UNK N   1      37.595   9.340  13.556  0.00  0.00     0.088 A 
HETATM    6  N   UNK N   1      37.078   9.782  14.735  0.00  0.00    -0.363 N 
ATOM      7  HN  UNK N   1      36.950   9.122  15.502  1.00  0.00     0.165 HD
HETATM    8  C   UNK N   1      36.725  11.086  14.916  0.00  0.00     0.072 A 
HETATM    9  C   UNK N   1      36.193  11.518  16.143  0.00  0.00     0.070 A 
HETATM   10  N   UNK N   1      36.018  10.646  17.177  0.00  0.00    -0.363 N 
ATOM     11  HN  UNK N   1      36.278   9.668  17.053  1.00  0.00     0.165 HD
HETATM   12  C   UNK N   1      35.503  11.053  18.371  0.00  0.00     0.088 A 
HETATM   13  C   UNK N   1      35.138  12.389  18.564  0.00  0.00     0.018 A 
HETATM   14  C   UNK N   1      35.307  13.301  17.524  0.00  0.00     0.015 A 
HETATM   15  C   UNK N   1      35.834  12.871  16.309  0.00  0.00    -0.005 A 
HETATM   16  C   UNK N   1      36.005  13.774  15.268  0.00  0.00     0.044 A 
ENDROOT
BRANCH   1  17
HETATM   17  N   UNK N   1      36.707  14.300  12.967  0.00  0.00    -0.327 N 
HETATM   18  C   UNK N   1      35.741  14.694  12.093  0.00  0.00     0.218 C 
HETATM   19  C   UNK N   1      36.075  15.677  11.028  0.00  0.00     0.117 C 
HETATM   20  O   UNK N   1      34.601  14.257  12.161  0.00  0.00    -0.274 OA
HETATM   21  H   UNK N   1      37.603  14.692  12.854  0.00  0.00     0.169 HD
ENDBRANCH   1  17
TORSDOF 1
ENDMDL
MODEL 4
REMARK VINA RESULT:      -6.3      5.624      8.514
REMARK  1 active torsions:
REMARK  status: ('A' for Active; 'I' for Inactive)
REMARK       I    between atoms: C_2  and  N_4 
REMARK    1  A    between atoms: N_4  and  C_5 
ROOT
HETATM    1  C   UNK N   1      29.823  17.344   5.644  0.00  0.00     0.048 A 
HETATM    2  C   UNK N   1      29.544  17.623   6.999  0.00  0.00     0.020 A 
HETATM    3  C   UNK N   1      30.252  16.990   8.027  0.00  0.00     0.017 A 
HETATM    4  C   UNK N   1      29.958  17.281   9.359  0.00  0.00     0.018 A 
HETATM    5  C   UNK N   1      28.956  18.206   9.655  0.00  0.00     0.088 A 
HETATM    6  N   UNK N   1      28.269  18.819   8.652  0.00  0.00    -0.363 N 
ATOM      7  HN  UNK N   1      27.540  19.492   8.887  1.00  0.00     0.165 HD
HETATM    8  C   UNK N   1      28.532  18.556   7.341  0.00  0.00     0.072 A 
HETATM    9  C   UNK N   1      27.809  19.203   6.324  0.00  0.00     0.070 A 
HETATM   10  N   UNK N   1      26.832  20.105   6.625  0.00  0.00    -0.363 N 
ATOM     11  HN  UNK N   1      26.626  20.310   7.602  1.00  0.00     0.165 HD
HETATM   12  C   UNK N   1      26.124  20.738   5.648  0.00  0.00     0.088 A 
HETATM   13  C   UNK N   1      26.388  20.474   4.300  0.00  0.00     0.018 A 
HETATM   14  C   UNK N   1      27.382  19.557   3.965  0.00  0.00     0.015 A 
HETATM   15  C   UNK N   1      28.097  18.917   4.975  0.00  0.00    -0.005 A 
HETATM   16  C   UNK N   1      29.089  18.002   4.649  0.00  0.00     0.044 A 
ENDROOT
BRANCH   1  17
HETATM   17  N   UNK N   1      30.843  16.403   5.304  0.00  0.00    -0.327 N 
HETATM   18  C   UNK N   1      32.068  16.709   4.795  0.00  0.00     0.218 C 
HETATM   19  C   UNK N   1      33.028  15.615   4.489  0.00  0.00     0.117 C 
HETATM   20  O   UNK N   1      32.400  17.866   4.582  0.00  0.00    -0.274 OA
HETATM   21  H   UNK N   1      30.643  15.450   5.450  0.00  0.00     0.169 HD
ENDBRANCH   1  17
TORSDOF 1
ENDMDL
MODEL 5
REMARK VINA RESULT:      -6.1      8.302     10.544
REMARK  1 active torsions:
REMARK  status: ('A' for Active; 'I' for Inactive)
REMARK       I    between atoms: C_2  and  N_4 
REMARK    1  A    between atoms: N_4  and  C_5 
ROOT
HETATM    1  C   UNK N   1      32.861  17.408   7.798  0.00  0.00     0.048 A 
HETATM    2  C   UNK N   1      31.457  17.417   7.933  0.00  0.00     0.020 A 
HETATM    3  C   UNK N   1      30.854  17.561   9.188  0.00  0.00     0.017 A 
HETATM    4  C   UNK N   1      29.464  17.567   9.298  0.00  0.00     0.018 A 
HETATM    5  C   UNK N   1      28.683  17.428   8.149  0.00  0.00     0.088 A 
HETATM    6  N   UNK N   1      29.274  17.288   6.931  0.00  0.00    -0.363 N 
ATOM      7  HN  UNK N   1      28.688  17.188   6.102  1.00  0.00     0.165 HD
HETATM    8  C   UNK N   1      30.629  17.278   6.790  0.00  0.00     0.072 A 
HETATM    9  C   UNK N   1      31.214  17.132   5.520  0.00  0.00     0.070 A 
HETATM   10  N   UNK N   1      30.442  16.997   4.405  0.00  0.00    -0.363 N 
ATOM     11  HN  UNK N   1      29.427  17.003   4.497  1.00  0.00     0.165 HD
HETATM   12  C   UNK N   1      30.998  16.855   3.169  0.00  0.00     0.088 A 
HETATM   13  C   UNK N   1      32.388  16.844   3.016  0.00  0.00     0.018 A 
HETATM   14  C   UNK N   1      33.200  16.980   4.141  0.00  0.00     0.015 A 
HETATM   15  C   UNK N   1      32.618  17.125   5.397  0.00  0.00    -0.005 A 
HETATM   16  C   UNK N   1      33.421  17.261   6.522  0.00  0.00     0.044 A 
ENDROOT
BRANCH   1  17
HETATM   17  N   UNK N   1      33.692  17.548   8.953  0.00  0.00    -0.327 N 
HETATM   18  C   UNK N   1      34.462  16.567   9.500  0.00  0.00     0.218 C 
HETATM   19  C   UNK N   1      35.276  16.866  10.708  0.00  0.00     0.117 C 
HETATM   20  O   UNK N   1      34.500  15.443   9.020  0.00  0.00    -0.274 OA
HETATM   21  H   UNK N   1      33.708  18.429   9.390  0.00  0.00     0.169 HD
ENDBRANCH   1  17
TORSDOF 1
ENDMDL
MODEL 6
REMARK VINA RESULT:      -6.1     14.366     16.866
REMARK  1 active torsions:
REMARK  status: ('A' for Active; 'I' for Inactive)
REMARK       I    between atoms: C_2  and  N_4 
REMARK    1  A    between atoms: N_4  and  C_5 
ROOT
HETATM    1  C   UNK N   1      35.457  14.605  10.697  0.00  0.00     0.048 A 
HETATM    2  C   UNK N   1      36.616  13.965  10.209  0.00  0.00     0.020 A 
HETATM    3  C   UNK N   1      37.021  14.121   8.879  0.00  0.00     0.017 A 
HETATM    4  C   UNK N   1      38.170  13.478   8.420  0.00  0.00     0.018 A 
HETATM    5  C   UNK N   1      38.909  12.682   9.296  0.00  0.00     0.088 A 
HETATM    6  N   UNK N   1      38.512  12.533  10.589  0.00  0.00    -0.363 N 
ATOM      7  HN  UNK N   1      39.064  11.947  11.215  1.00  0.00     0.165 HD
HETATM    8  C   UNK N   1      37.394  13.147  11.069  0.00  0.00     0.072 A 
HETATM    9  C   UNK N   1      37.005  12.977  12.408  0.00  0.00     0.070 A 
HETATM   10  N   UNK N   1      37.734  12.197  13.256  0.00  0.00    -0.363 N 
ATOM     11  HN  UNK N   1      38.572  11.732  12.909  1.00  0.00     0.165 HD
HETATM   12  C   UNK N   1      37.367  12.025  14.557  0.00  0.00     0.088 A 
HETATM   13  C   UNK N   1      36.221  12.652  15.056  0.00  0.00     0.018 A 
HETATM   14  C   UNK N   1      35.458  13.455  14.211  0.00  0.00     0.015 A 
HETATM   15  C   UNK N   1      35.845  13.621  12.884  0.00  0.00    -0.005 A 
HETATM   16  C   UNK N   1      35.090  14.420  12.036  0.00  0.00     0.044 A 
ENDROOT
BRANCH   1  17
HETATM   17  N   UNK N   1      34.676  15.428   9.828  0.00  0.00    -0.327 N 
HETATM   18  C   UNK N   1      34.799  16.777   9.690  0.00  0.00     0.218 C 
HETATM   19  C   UNK N   1      33.910  17.499   8.741  0.00  0.00     0.117 C 
HETATM   20  O   UNK N   1      35.624  17.412  10.330  0.00  0.00    -0.274 OA
HETATM   21  H   UNK N   1      33.990  14.981   9.281  0.00  0.00     0.169 HD
ENDBRANCH   1  17
TORSDOF 1
ENDMDL
MODEL 7
REMARK VINA RESULT:      -6.0     11.932     12.820
REMARK  1 active torsions:
REMARK  status: ('A' for Active; 'I' for Inactive)
REMARK       I    between atoms: C_2  and  N_4 
REMARK    1  A    between atoms: N_4  and  C_5 
ROOT
HETATM    1  C   UNK N   1      26.713  23.910  -6.510  0.00  0.00     0.048 A 
HETATM    2  C   UNK N   1      27.761  23.854  -5.567  0.00  0.00     0.020 A 
HETATM    3  C   UNK N   1      28.678  22.795  -5.569  0.00  0.00     0.017 A 
HETATM    4  C   UNK N   1      29.705  22.761  -4.627  0.00  0.00     0.018 A 
HETATM    5  C   UNK N   1      29.811  23.787  -3.687  0.00  0.00     0.088 A 
HETATM    6  N   UNK N   1      28.919  24.814  -3.689  0.00  0.00    -0.363 N 
ATOM      7  HN  UNK N   1      29.011  25.556  -2.995  1.00  0.00     0.165 HD
HETATM    8  C   UNK N   1      27.903  24.878  -4.596  0.00  0.00     0.072 A 
HETATM    9  C   UNK N   1      26.994  25.949  -4.576  0.00  0.00     0.070 A 
HETATM   10  N   UNK N   1      27.107  26.947  -3.654  0.00  0.00    -0.363 N 
ATOM     11  HN  UNK N   1      27.863  26.911  -2.970  1.00  0.00     0.165 HD
HETATM   12  C   UNK N   1      26.232  27.991  -3.625  0.00  0.00     0.088 A 
HETATM   13  C   UNK N   1      25.188  28.063  -4.552  0.00  0.00     0.018 A 
HETATM   14  C   UNK N   1      25.049  27.056  -5.506  0.00  0.00     0.015 A 
HETATM   15  C   UNK N   1      25.951  25.996  -5.523  0.00  0.00    -0.005 A 
HETATM   16  C   UNK N   1      25.820  24.989  -6.470  0.00  0.00     0.044 A 
ENDROOT
BRANCH   1  17
HETATM   17  N   UNK N   1      26.574  22.877  -7.487  0.00  0.00    -0.327 N 
HETATM   18  C   UNK N   1      25.572  21.956  -7.531  0.00  0.00     0.218 C 
HETATM   19  C   UNK N   1      25.563  20.937  -8.615  0.00  0.00     0.117 C 
HETATM   20  O   UNK N   1      24.676  21.947  -6.700  0.00  0.00    -0.274 OA
HETATM   21  H   UNK N   1      27.263  22.826  -8.189  0.00  0.00     0.169 HD
ENDBRANCH   1  17
TORSDOF 1
ENDMDL
MODEL 8
REMARK VINA RESULT:      -6.0     15.855     18.015
REMARK  1 active torsions:
REMARK  status: ('A' for Active; 'I' for Inactive)
REMARK       I    between atoms: C_2  and  N_4 
REMARK    1  A    between atoms: N_4  and  C_5 
ROOT
HETATM    1  C   UNK N   1      36.505  13.358  14.476  0.00  0.00     0.048 A 
HETATM    2  C   UNK N   1      36.997  12.146  13.949  0.00  0.00     0.020 A 
HETATM    3  C   UNK N   1      37.322  11.073  14.787  0.00  0.00     0.017 A 
HETATM    4  C   UNK N   1      37.806   9.884  14.243  0.00  0.00     0.018 A 
HETATM    5  C   UNK N   1      37.964   9.775  12.861  0.00  0.00     0.088 A 
HETATM    6  N   UNK N   1      37.647  10.820  12.049  0.00  0.00    -0.363 N 
ATOM      7  HN  UNK N   1      37.769  10.722  11.041  1.00  0.00     0.165 HD
HETATM    8  C   UNK N   1      37.171  11.995  12.549  0.00  0.00     0.072 A 
HETATM    9  C   UNK N   1      36.851  13.060  11.689  0.00  0.00     0.070 A 
HETATM   10  N   UNK N   1      37.009  12.942  10.340  0.00  0.00    -0.363 N 
ATOM     11  HN  UNK N   1      37.365  12.068   9.954  1.00  0.00     0.165 HD
HETATM   12  C   UNK N   1      36.703  13.967   9.496  0.00  0.00     0.088 A 
HETATM   13  C   UNK N   1      36.214  15.176  10.002  0.00  0.00     0.018 A 
HETATM   14  C   UNK N   1      36.043  15.323  11.377  0.00  0.00     0.015 A 
HETATM   15  C   UNK N   1      36.361  14.266  12.227  0.00  0.00    -0.005 A 
HETATM   16  C   UNK N   1      36.193  14.405  13.598  0.00  0.00     0.044 A 
ENDROOT
BRANCH   1  17
HETATM   17  N   UNK N   1      36.331  13.506  15.887  0.00  0.00    -0.327 N 
HETATM   18  C   UNK N   1      35.155  13.371  16.559  0.00  0.00     0.218 C 
HETATM   19  C   UNK N   1      35.131  13.556  18.035  0.00  0.00     0.117 C 
HETATM   20  O   UNK N   1      34.114  13.102  15.978  0.00  0.00    -0.274 OA
HETATM   21  H   UNK N   1      37.130  13.724  16.418  0.00  0.00     0.169 HD
ENDBRANCH   1  17
TORSDOF 1
ENDMDL
MODEL 9
REMARK VINA RESULT:      -5.9      6.168      8.362
REMARK  1 active torsions:
REMARK  status: ('A' for Active; 'I' for Inactive)
REMARK       I    between atoms: C_2  and  N_4 
REMARK    1  A    between atoms: N_4  and  C_5 
ROOT
HETATM    1  C   UNK N   1      22.469  13.128   9.644  0.00  0.00     0.048 A 
HETATM    2  C   UNK N   1      22.643  12.317   8.504  0.00  0.00     0.020 A 
HETATM    3  C   UNK N   1      23.432  11.162   8.552  0.00  0.00     0.017 A 
HETATM    4  C   UNK N   1      23.589  10.376   7.411  0.00  0.00     0.018 A 
HETATM    5  C   UNK N   1      22.954  10.749   6.226  0.00  0.00     0.088 A 
HETATM    6  N   UNK N   1      22.187  11.873   6.183  0.00  0.00    -0.363 N 
ATOM      7  HN  UNK N   1      21.730  12.131   5.308  1.00  0.00     0.165 HD
HETATM    8  C   UNK N   1      22.014  12.663   7.280  0.00  0.00     0.072 A 
HETATM    9  C   UNK N   1      21.217  13.818   7.209  0.00  0.00     0.070 A 
HETATM   10  N   UNK N   1      20.601  14.174   6.046  0.00  0.00    -0.363 N 
ATOM     11  HN  UNK N   1      20.723  13.592   5.219  1.00  0.00     0.165 HD
HETATM   12  C   UNK N   1      19.825  15.292   5.966  0.00  0.00     0.088 A 
HETATM   13  C   UNK N   1      19.643  16.107   7.087  0.00  0.00     0.018 A 
HETATM   14  C   UNK N   1      20.261  15.766   8.288  0.00  0.00     0.015 A 
HETATM   15  C   UNK N   1      21.050  14.621   8.355  0.00  0.00    -0.005 A 
HETATM   16  C   UNK N   1      21.670  14.275   9.549  0.00  0.00     0.044 A 
ENDROOT
BRANCH   1  17
HETATM   17  N   UNK N   1      23.105  12.775  10.875  0.00  0.00    -0.327 N 
HETATM   18  C   UNK N   1      22.496  12.191  11.943  0.00  0.00     0.218 C 
HETATM   19  C   UNK N   1      23.293  11.883  13.161  0.00  0.00     0.117 C 
HETATM   20  O   UNK N   1      21.306  11.912  11.927  0.00  0.00    -0.274 OA
HETATM   21  H   UNK N   1      24.066  12.973  10.958  0.00  0.00     0.169 HD
ENDBRANCH   1  17
TORSDOF 1
ENDMDL
