MODEL 1
REMARK VINA RESULT:      -7.1      0.000      0.000
REMARK  0 active torsions:
REMARK  status: ('A' for Active; 'I' for Inactive)
ROOT
HETATM    1 Br   UNK N   1      25.195  22.278  -8.321  0.00  0.00    -0.046 Br
HETATM    2  C   UNK N   1      26.932  21.624  -7.860  0.00  0.00     0.071 A 
HETATM    3  C   UNK N   1      27.271  20.301  -8.181  0.00  0.00     0.129 A 
HETATM    4  N   UNK N   1      28.490  19.798  -7.844  0.00  0.00    -0.200 N 
ATOM      5  HN  UNK N   1      28.722  18.831  -8.069  1.00  0.00     0.183 HD
HETATM    6  C   UNK N   1      29.402  20.580  -7.205  0.00  0.00     0.684 A 
HETATM    7  N   UNK N   1      29.100  21.875  -6.940  0.00  0.00    -0.175 N 
ATOM      8  HN  UNK N   1      29.810  22.462  -6.502  1.00  0.00     0.186 HD
HETATM    9  C   UNK N   1      27.906  22.420  -7.230  0.00  0.00     0.135 A 
HETATM   10  N   UNK N   1      27.685  23.761  -6.835  0.00  0.00    -0.375 N 
HETATM   11  C   UNK N   1      26.528  24.167  -6.078  0.00  0.00     0.123 C 
HETATM   12  C   UNK N   1      26.897  24.538  -4.628  0.00  0.00     0.040 C 
HETATM   13  C   UNK N   1      28.383  24.410  -4.268  0.00  0.00     0.134 C 
HETATM   14  N   UNK N   1      28.538  23.546  -3.104  0.00  0.00    -0.315 N 
HETATM   15  S   UNK N   1      30.266  23.335  -2.730  0.00  0.00     0.258 S 
HETATM   16  O   UNK N   1      30.259  22.970  -1.239  0.00  0.00    -0.201 OA
HETATM   17  O   UNK N   1      30.883  24.742  -2.706  0.00  0.00    -0.201 OA
HETATM   18  C   UNK N   1      31.196  22.119  -3.666  0.00  0.00     0.081 A 
HETATM   19  C   UNK N   1      30.611  21.561  -4.786  0.00  0.00     0.055 A 
HETATM   20  C   UNK N   1      32.475  21.701  -3.282  0.00  0.00     0.025 A 
HETATM   21  C   UNK N   1      33.145  20.723  -4.037  0.00  0.00     0.004 A 
HETATM   22  C   UNK N   1      32.539  20.165  -5.176  0.00  0.00     0.030 A 
HETATM   23  C   UNK N   1      31.266  20.595  -5.565  0.00  0.00     0.050 A 
HETATM   24  N   UNK N   1      30.613  20.026  -6.703  0.00  0.00    -0.192 N 
HETATM   25  H   UNK N   1      28.347  24.444  -7.088  0.00  0.00     0.161 HD
HETATM   26  H   UNK N   1      27.769  23.124  -2.581  0.00  0.00     0.172 HD
HETATM   27  H   UNK N   1      31.006  19.239  -7.145  0.00  0.00     0.184 HD
ENDROOT
TORSDOF 0
ENDMDL
MODEL 2
REMARK VINA RESULT:      -6.9      2.790      5.098
REMARK  0 active torsions:
REMARK  status: ('A' for Active; 'I' for Inactive)
ROOT
HETATM    1 Br   UNK N   1      33.862  20.120  -4.708  0.00  0.00    -0.046 Br
HETATM    2  C   UNK N   1      32.258  20.410  -5.708  0.00  0.00     0.071 A 
HETATM    3  C   UNK N   1      32.304  20.337  -7.108  0.00  0.00     0.129 A 
HETATM    4  N   UNK N   1      31.185  20.563  -7.850  0.00  0.00    -0.200 N 
ATOM      5  HN  UNK N   1      31.232  20.522  -8.867  1.00  0.00     0.183 HD
HETATM    6  C   UNK N   1      30.002  20.846  -7.239  0.00  0.00     0.684 A 
HETATM    7  N   UNK N   1      29.941  20.863  -5.885  0.00  0.00    -0.175 N 
ATOM      8  HN  UNK N   1      29.038  21.031  -5.439  1.00  0.00     0.186 HD
HETATM    9  C   UNK N   1      31.016  20.669  -5.102  0.00  0.00     0.135 A 
HETATM   10  N   UNK N   1      30.838  20.788  -3.702  0.00  0.00    -0.375 N 
HETATM   11  C   UNK N   1      31.676  21.624  -2.881  0.00  0.00     0.123 C 
HETATM   12  C   UNK N   1      30.921  22.869  -2.376  0.00  0.00     0.040 C 
HETATM   13  C   UNK N   1      29.460  22.988  -2.829  0.00  0.00     0.134 C 
HETATM   14  N   UNK N   1      29.248  24.270  -3.488  0.00  0.00    -0.315 N 
HETATM   15  S   UNK N   1      27.573  24.379  -4.081  0.00  0.00     0.258 S 
HETATM   16  O   UNK N   1      27.330  25.892  -4.168  0.00  0.00    -0.201 OA
HETATM   17  O   UNK N   1      26.667  23.982  -2.905  0.00  0.00    -0.201 OA
HETATM   18  C   UNK N   1      27.170  23.591  -5.642  0.00  0.00     0.081 A 
HETATM   19  C   UNK N   1      28.099  22.741  -6.210  0.00  0.00     0.055 A 
HETATM   20  C   UNK N   1      25.965  23.833  -6.311  0.00  0.00     0.025 A 
HETATM   21  C   UNK N   1      25.715  23.210  -7.546  0.00  0.00     0.004 A 
HETATM   22  C   UNK N   1      26.668  22.346  -8.112  0.00  0.00     0.030 A 
HETATM   23  C   UNK N   1      27.867  22.096  -7.434  0.00  0.00     0.050 A 
HETATM   24  N   UNK N   1      28.867  21.242  -7.998  0.00  0.00    -0.192 N 
HETATM   25  H   UNK N   1      30.112  20.280  -3.274  0.00  0.00     0.161 HD
HETATM   26  H   UNK N   1      29.956  24.998  -3.595  0.00  0.00     0.172 HD
HETATM   27  H   UNK N   1      28.767  20.925  -8.924  0.00  0.00     0.184 HD
ENDROOT
TORSDOF 0
ENDMDL
MODEL 3
REMARK VINA RESULT:      -6.9     12.215     14.537
REMARK  0 active torsions:
REMARK  status: ('A' for Active; 'I' for Inactive)
ROOT
HETATM    1 Br   UNK N   1      36.110  14.549   5.700  0.00  0.00    -0.046 Br
HETATM    2  C   UNK N   1      34.847  15.524   6.755  0.00  0.00     0.071 A 
HETATM    3  C   UNK N   1      34.919  15.442   8.153  0.00  0.00     0.129 A 
HETATM    4  N   UNK N   1      34.019  16.104   8.932  0.00  0.00    -0.200 N 
ATOM      5  HN  UNK N   1      34.071  16.027   9.948  1.00  0.00     0.183 HD
HETATM    6  C   UNK N   1      33.049  16.868   8.362  0.00  0.00     0.684 A 
HETATM    7  N   UNK N   1      33.008  16.994   7.012  0.00  0.00    -0.175 N 
ATOM      8  HN  UNK N   1      32.304  17.606   6.600  1.00  0.00     0.186 HD
HETATM    9  C   UNK N   1      33.856  16.347   6.193  0.00  0.00     0.135 A 
HETATM   10  N   UNK N   1      33.663  16.501   4.798  0.00  0.00    -0.375 N 
HETATM   11  C   UNK N   1      33.570  15.378   3.900  0.00  0.00     0.123 C 
HETATM   12  C   UNK N   1      32.136  15.191   3.367  0.00  0.00     0.040 C 
HETATM   13  C   UNK N   1      31.101  16.202   3.879  0.00  0.00     0.134 C 
HETATM   14  N   UNK N   1      29.976  15.499   4.482  0.00  0.00    -0.315 N 
HETATM   15  S   UNK N   1      28.811  16.671   5.143  0.00  0.00     0.258 S 
HETATM   16  O   UNK N   1      27.494  15.881   5.165  0.00  0.00    -0.201 OA
HETATM   17  O   UNK N   1      28.543  17.696   4.030  0.00  0.00    -0.201 OA
HETATM   18  C   UNK N   1      29.141  17.380   6.758  0.00  0.00     0.081 A 
HETATM   19  C   UNK N   1      30.383  17.177   7.326  0.00  0.00     0.055 A 
HETATM   20  C   UNK N   1      28.174  18.103   7.467  0.00  0.00     0.025 A 
HETATM   21  C   UNK N   1      28.478  18.610   8.742  0.00  0.00     0.004 A 
HETATM   22  C   UNK N   1      29.748  18.398   9.306  0.00  0.00     0.030 A 
HETATM   23  C   UNK N   1      30.717  17.687   8.590  0.00  0.00     0.050 A 
HETATM   24  N   UNK N   1      32.008  17.432   9.150  0.00  0.00    -0.192 N 
HETATM   25  H   UNK N   1      33.590  17.409   4.428  0.00  0.00     0.161 HD
HETATM   26  H   UNK N   1      29.873  14.484   4.521  0.00  0.00     0.172 HD
HETATM   27  H   UNK N   1      32.177  17.650  10.095  0.00  0.00     0.184 HD
ENDROOT
TORSDOF 0
ENDMDL
MODEL 4
REMARK VINA RESULT:      -6.8     12.614     13.730
REMARK  0 active torsions:
REMARK  status: ('A' for Active; 'I' for Inactive)
ROOT
HETATM    1 Br   UNK N   1      21.598  12.853   6.877  0.00  0.00    -0.046 Br
HETATM    2  C   UNK N   1      22.813  14.214   6.303  0.00  0.00     0.071 A 
HETATM    3  C   UNK N   1      23.937  14.502   7.092  0.00  0.00     0.129 A 
HETATM    4  N   UNK N   1      24.808  15.482   6.724  0.00  0.00    -0.200 N 
ATOM      5  HN  UNK N   1      25.614  15.693   7.312  1.00  0.00     0.183 HD
HETATM    6  C   UNK N   1      24.606  16.183   5.575  0.00  0.00     0.684 A 
HETATM    7  N   UNK N   1      23.552  15.872   4.782  0.00  0.00    -0.175 N 
ATOM      8  HN  UNK N   1      23.439  16.374   3.901  1.00  0.00     0.186 HD
HETATM    9  C   UNK N   1      22.648  14.930   5.105  0.00  0.00     0.135 A 
HETATM   10  N   UNK N   1      21.549  14.750   4.230  0.00  0.00    -0.375 N 
HETATM   11  C   UNK N   1      20.183  14.749   4.690  0.00  0.00     0.123 C 
HETATM   12  C   UNK N   1      19.430  16.018   4.245  0.00  0.00     0.040 C 
HETATM   13  C   UNK N   1      20.249  17.021   3.420  0.00  0.00     0.134 C 
HETATM   14  N   UNK N   1      20.202  18.335   4.048  0.00  0.00    -0.315 N 
HETATM   15  S   UNK N   1      21.212  19.481   3.134  0.00  0.00     0.258 S 
HETATM   16  O   UNK N   1      20.608  20.845   3.496  0.00  0.00    -0.201 OA
HETATM   17  O   UNK N   1      20.807  19.341   1.658  0.00  0.00    -0.201 OA
HETATM   18  C   UNK N   1      22.982  19.481   3.434  0.00  0.00     0.081 A 
HETATM   19  C   UNK N   1      23.524  18.452   4.177  0.00  0.00     0.055 A 
HETATM   20  C   UNK N   1      23.817  20.502   2.964  0.00  0.00     0.025 A 
HETATM   21  C   UNK N   1      25.192  20.465   3.255  0.00  0.00     0.004 A 
HETATM   22  C   UNK N   1      25.731  19.410   4.011  0.00  0.00     0.030 A 
HETATM   23  C   UNK N   1      24.895  18.385   4.467  0.00  0.00     0.050 A 
HETATM   24  N   UNK N   1      25.411  17.313   5.261  0.00  0.00    -0.192 N 
HETATM   25  H   UNK N   1      21.724  14.621   3.271  0.00  0.00     0.161 HD
HETATM   26  H   UNK N   1      19.668  18.564   4.888  0.00  0.00     0.172 HD
HETATM   27  H   UNK N   1      26.336  17.359   5.595  0.00  0.00     0.184 HD
ENDROOT
TORSDOF 0
ENDMDL
MODEL 5
REMARK VINA RESULT:      -6.8     16.020     18.550
REMARK  0 active torsions:
REMARK  status: ('A' for Active; 'I' for Inactive)
ROOT
HETATM    1 Br   UNK N   1      36.873  11.672  13.041  0.00  0.00    -0.046 Br
HETATM    2  C   UNK N   1      36.485  13.327  12.165  0.00  0.00     0.071 A 
HETATM    3  C   UNK N   1      36.333  14.488  12.936  0.00  0.00     0.129 A 
HETATM    4  N   UNK N   1      36.032  15.678  12.344  0.00  0.00    -0.200 N 
ATOM      5  HN  UNK N   1      35.909  16.513  12.915  1.00  0.00     0.183 HD
HETATM    6  C   UNK N   1      35.893  15.755  10.993  0.00  0.00     0.684 A 
HETATM    7  N   UNK N   1      36.093  14.647  10.238  0.00  0.00    -0.175 N 
ATOM      8  HN  UNK N   1      36.030  14.730   9.223  1.00  0.00     0.186 HD
HETATM    9  C   UNK N   1      36.370  13.443  10.768  0.00  0.00     0.135 A 
HETATM   10  N   UNK N   1      36.482  12.346   9.880  0.00  0.00    -0.375 N 
HETATM   11  C   UNK N   1      35.758  11.115  10.071  0.00  0.00     0.123 C 
HETATM   12  C   UNK N   1      34.636  10.944   9.027  0.00  0.00     0.040 C 
HETATM   13  C   UNK N   1      34.500  12.083   8.008  0.00  0.00     0.134 C 
HETATM   14  N   UNK N   1      33.137  12.600   8.023  0.00  0.00    -0.315 N 
HETATM   15  S   UNK N   1      32.996  13.971   6.896  0.00  0.00     0.258 S 
HETATM   16  O   UNK N   1      31.498  13.996   6.562  0.00  0.00    -0.201 OA
HETATM   17  O   UNK N   1      33.606  13.506   5.564  0.00  0.00    -0.201 OA
HETATM   18  C   UNK N   1      33.539  15.589   7.451  0.00  0.00     0.081 A 
HETATM   19  C   UNK N   1      34.254  15.675   8.630  0.00  0.00     0.055 A 
HETATM   20  C   UNK N   1      33.237  16.760   6.746  0.00  0.00     0.025 A 
HETATM   21  C   UNK N   1      33.664  18.003   7.245  0.00  0.00     0.004 A 
HETATM   22  C   UNK N   1      34.393  18.076   8.444  0.00  0.00     0.030 A 
HETATM   23  C   UNK N   1      34.705  16.902   9.139  0.00  0.00     0.050 A 
HETATM   24  N   UNK N   1      35.421  16.948  10.376  0.00  0.00    -0.192 N 
HETATM   25  H   UNK N   1      37.077  12.428   9.101  0.00  0.00     0.161 HD
HETATM   26  H   UNK N   1      32.377  12.232   8.596  0.00  0.00     0.172 HD
HETATM   27  H   UNK N   1      35.590  17.816  10.807  0.00  0.00     0.184 HD
ENDROOT
TORSDOF 0
ENDMDL
MODEL 6
REMARK VINA RESULT:      -6.7     14.919     15.902
REMARK  0 active torsions:
REMARK  status: ('A' for Active; 'I' for Inactive)
ROOT
HETATM    1 Br   UNK N   1      26.619  16.084   3.257  0.00  0.00    -0.046 Br
HETATM    2  C   UNK N   1      25.877  15.185   4.773  0.00  0.00     0.071 A 
HETATM    3  C   UNK N   1      26.142  13.820   4.954  0.00  0.00     0.129 A 
HETATM    4  N   UNK N   1      25.608  13.146   6.011  0.00  0.00    -0.200 N 
ATOM      5  HN  UNK N   1      25.795  12.150   6.126  1.00  0.00     0.183 HD
HETATM    6  C   UNK N   1      24.825  13.795   6.914  0.00  0.00     0.684 A 
HETATM    7  N   UNK N   1      24.610  15.126   6.773  0.00  0.00    -0.175 N 
ATOM      8  HN  UNK N   1      24.058  15.610   7.483  1.00  0.00     0.186 HD
HETATM    9  C   UNK N   1      25.092  15.839   5.740  0.00  0.00     0.135 A 
HETATM   10  N   UNK N   1      24.735  17.207   5.665  0.00  0.00    -0.375 N 
HETATM   11  C   UNK N   1      24.179  17.800   4.475  0.00  0.00     0.123 C 
HETATM   12  C   UNK N   1      22.687  18.143   4.652  0.00  0.00     0.040 C 
HETATM   13  C   UNK N   1      22.085  17.799   6.022  0.00  0.00     0.134 C 
HETATM   14  N   UNK N   1      20.915  16.949   5.849  0.00  0.00    -0.315 N 
HETATM   15  S   UNK N   1      20.260  16.487   7.439  0.00  0.00     0.258 S 
HETATM   16  O   UNK N   1      18.792  16.162   7.131  0.00  0.00    -0.201 OA
HETATM   17  O   UNK N   1      20.130  17.785   8.251  0.00  0.00    -0.201 OA
HETATM   18  C   UNK N   1      21.033  15.124   8.314  0.00  0.00     0.081 A 
HETATM   19  C   UNK N   1      22.235  14.636   7.843  0.00  0.00     0.055 A 
HETATM   20  C   UNK N   1      20.442  14.526   9.433  0.00  0.00     0.025 A 
HETATM   21  C   UNK N   1      21.079  13.442  10.061  0.00  0.00     0.004 A 
HETATM   22  C   UNK N   1      22.304  12.957   9.573  0.00  0.00     0.030 A 
HETATM   23  C   UNK N   1      22.898  13.565   8.462  0.00  0.00     0.050 A 
HETATM   24  N   UNK N   1      24.131  13.076   7.926  0.00  0.00    -0.192 N 
HETATM   25  H   UNK N   1      24.872  17.776   6.456  0.00  0.00     0.161 HD
HETATM   26  H   UNK N   1      20.528  16.660   4.950  0.00  0.00     0.172 HD
HETATM   27  H   UNK N   1      24.503  12.230   8.262  0.00  0.00     0.184 HD
ENDROOT
TORSDOF 0
ENDMDL
MODEL 7
REMARK VINA RESULT:      -6.7     11.374     13.207
REMARK  0 active torsions:
REMARK  status: ('A' for Active; 'I' for Inactive)
ROOT
HETATM    1 Br   UNK N   1      29.106  17.705   5.537  0.00  0.00    -0.046 Br
HETATM    2  C   UNK N   1      27.629  18.548   4.663  0.00  0.00     0.071 A 
HETATM    3  C   UNK N   1      27.684  19.927   4.408  0.00  0.00     0.129 A 
HETATM    4  N   UNK N   1      26.638  20.561   3.810  0.00  0.00    -0.200 N 
ATOM      5  HN  UNK N   1      26.681  21.566   3.642  1.00  0.00     0.183 HD
HETATM    6  C   UNK N   1      25.533  19.861   3.436  0.00  0.00     0.684 A 
HETATM    7  N   UNK N   1      25.498  18.520   3.631  0.00  0.00    -0.175 N 
ATOM      8  HN  UNK N   1      24.683  18.000   3.304  1.00  0.00     0.186 HD
HETATM    9  C   UNK N   1      26.490  17.843   4.235  0.00  0.00     0.135 A 
HETATM   10  N   UNK N   1      26.302  16.456   4.449  0.00  0.00    -0.375 N 
HETATM   11  C   UNK N   1      26.489  15.836   5.736  0.00  0.00     0.123 C 
HETATM   12  C   UNK N   1      25.149  15.401   6.360  0.00  0.00     0.040 C 
HETATM   13  C   UNK N   1      23.898  15.700   5.522  0.00  0.00     0.134 C 
HETATM   14  N   UNK N   1      22.949  16.478   6.308  0.00  0.00    -0.315 N 
HETATM   15  S   UNK N   1      21.532  16.891   5.313  0.00  0.00     0.258 S 
HETATM   16  O   UNK N   1      20.430  17.127   6.356  0.00  0.00    -0.201 OA
HETATM   17  O   UNK N   1      21.065  15.583   4.655  0.00  0.00    -0.201 OA
HETATM   18  C   UNK N   1      21.652  18.294   4.202  0.00  0.00     0.081 A 
HETATM   19  C   UNK N   1      22.893  18.858   3.984  0.00  0.00     0.055 A 
HETATM   20  C   UNK N   1      20.528  18.849   3.578  0.00  0.00     0.025 A 
HETATM   21  C   UNK N   1      20.678  19.968   2.739  0.00  0.00     0.004 A 
HETATM   22  C   UNK N   1      21.948  20.529   2.524  0.00  0.00     0.030 A 
HETATM   23  C   UNK N   1      23.071  19.964   3.139  0.00  0.00     0.050 A 
HETATM   24  N   UNK N   1      24.372  20.531   2.961  0.00  0.00    -0.192 N 
HETATM   25  H   UNK N   1      26.033  15.893   3.688  0.00  0.00     0.161 HD
HETATM   26  H   UNK N   1      23.079  16.747   7.284  0.00  0.00     0.172 HD
HETATM   27  H   UNK N   1      24.464  21.397   2.502  0.00  0.00     0.184 HD
ENDROOT
TORSDOF 0
ENDMDL
MODEL 8
REMARK VINA RESULT:      -6.6      2.140      4.631
REMARK  0 active torsions:
REMARK  status: ('A' for Active; 'I' for Inactive)
ROOT
HETATM    1 Br   UNK N   1      32.320  19.154  -8.799  0.00  0.00    -0.046 Br
HETATM    2  C   UNK N   1      30.756  20.107  -8.249  0.00  0.00     0.071 A 
HETATM    3  C   UNK N   1      29.845  20.543  -9.222  0.00  0.00     0.129 A 
HETATM    4  N   UNK N   1      28.734  21.246  -8.864  0.00  0.00    -0.200 N 
ATOM      5  HN  UNK N   1      28.085  21.570  -9.580  1.00  0.00     0.183 HD
HETATM    6  C   UNK N   1      28.487  21.518  -7.554  0.00  0.00     0.684 A 
HETATM    7  N   UNK N   1      29.337  21.052  -6.606  0.00  0.00    -0.175 N 
ATOM      8  HN  UNK N   1      29.115  21.224  -5.624  1.00  0.00     0.186 HD
HETATM    9  C   UNK N   1      30.459  20.373  -6.900  0.00  0.00     0.135 A 
HETATM   10  N   UNK N   1      31.303  20.005  -5.825  0.00  0.00    -0.375 N 
HETATM   11  C   UNK N   1      32.715  20.295  -5.813  0.00  0.00     0.123 C 
HETATM   12  C   UNK N   1      33.063  21.395  -4.791  0.00  0.00     0.040 C 
HETATM   13  C   UNK N   1      31.877  21.964  -3.999  0.00  0.00     0.134 C 
HETATM   14  N   UNK N   1      31.831  23.412  -4.149  0.00  0.00    -0.315 N 
HETATM   15  S   UNK N   1      30.413  24.066  -3.293  0.00  0.00     0.258 S 
HETATM   16  O   UNK N   1      30.813  25.522  -3.015  0.00  0.00    -0.201 OA
HETATM   17  O   UNK N   1      30.437  23.459  -1.881  0.00  0.00    -0.201 OA
HETATM   18  C   UNK N   1      28.819  24.002  -4.115  0.00  0.00     0.081 A 
HETATM   19  C   UNK N   1      28.702  23.250  -5.267  0.00  0.00     0.055 A 
HETATM   20  C   UNK N   1      27.708  24.710  -3.643  0.00  0.00     0.025 A 
HETATM   21  C   UNK N   1      26.491  24.646  -4.344  0.00  0.00     0.004 A 
HETATM   22  C   UNK N   1      26.385  23.874  -5.514  0.00  0.00     0.030 A 
HETATM   23  C   UNK N   1      27.494  23.157  -5.976  0.00  0.00     0.050 A 
HETATM   24  N   UNK N   1      27.424  22.385  -7.178  0.00  0.00    -0.192 N 
HETATM   25  H   UNK N   1      30.912  19.534  -5.056  0.00  0.00     0.161 HD
HETATM   26  H   UNK N   1      32.510  23.970  -4.668  0.00  0.00     0.172 HD
HETATM   27  H   UNK N   1      26.629  22.456  -7.753  0.00  0.00     0.184 HD
ENDROOT
TORSDOF 0
ENDMDL
MODEL 9
REMARK VINA RESULT:      -6.6     15.723     17.897
REMARK  0 active torsions:
REMARK  status: ('A' for Active; 'I' for Inactive)
ROOT
HETATM    1 Br   UNK N   1      32.659  17.283   5.481  0.00  0.00    -0.046 Br
HETATM    2  C   UNK N   1      33.388  17.110   7.241  0.00  0.00     0.071 A 
HETATM    3  C   UNK N   1      34.208  18.130   7.743  0.00  0.00     0.129 A 
HETATM    4  N   UNK N   1      34.762  18.025   8.983  0.00  0.00    -0.200 N 
ATOM      5  HN  UNK N   1      35.369  18.766   9.333  1.00  0.00     0.183 HD
HETATM    6  C   UNK N   1      34.511  16.935   9.757  0.00  0.00     0.684 A 
HETATM    7  N   UNK N   1      33.675  15.971   9.297  0.00  0.00    -0.175 N 
ATOM      8  HN  UNK N   1      33.460  15.181   9.906  1.00  0.00     0.186 HD
HETATM    9  C   UNK N   1      33.117  16.010   8.075  0.00  0.00     0.135 A 
HETATM   10  N   UNK N   1      32.323  14.906   7.682  0.00  0.00    -0.375 N 
HETATM   11  C   UNK N   1      32.524  14.209   6.437  0.00  0.00     0.123 C 
HETATM   12  C   UNK N   1      33.120  12.805   6.658  0.00  0.00     0.040 C 
HETATM   13  C   UNK N   1      33.385  12.420   8.120  0.00  0.00     0.134 C 
HETATM   14  N   UNK N   1      34.777  12.023   8.284  0.00  0.00    -0.315 N 
HETATM   15  S   UNK N   1      35.105  11.648   9.993  0.00  0.00     0.258 S 
HETATM   16  O   UNK N   1      36.318  10.710   9.919  0.00  0.00    -0.201 OA
HETATM   17  O   UNK N   1      33.994  10.690  10.450  0.00  0.00    -0.201 OA
HETATM   18  C   UNK N   1      35.436  13.010  11.114  0.00  0.00     0.081 A 
HETATM   19  C   UNK N   1      35.200  14.297  10.675  0.00  0.00     0.055 A 
HETATM   20  C   UNK N   1      35.950  12.808  12.400  0.00  0.00     0.025 A 
HETATM   21  C   UNK N   1      36.218  13.915  13.225  0.00  0.00     0.004 A 
HETATM   22  C   UNK N   1      35.970  15.220  12.766  0.00  0.00     0.030 A 
HETATM   23  C   UNK N   1      35.444  15.417  11.485  0.00  0.00     0.050 A 
HETATM   24  N   UNK N   1      35.208  16.734  10.981  0.00  0.00    -0.192 N 
HETATM   25  H   UNK N   1      31.605  14.603   8.282  0.00  0.00     0.161 HD
HETATM   26  H   UNK N   1      35.464  11.969   7.530  0.00  0.00     0.172 HD
HETATM   27  H   UNK N   1      35.532  17.513  11.488  0.00  0.00     0.184 HD
ENDROOT
TORSDOF 0
ENDMDL
