REMARK  0 active torsions:
REMARK  status: ('A' for Active; 'I' for Inactive)
ROOT
HETATM    1 Br   UNK N   1       7.080  -1.090   0.230  0.00  0.00    -0.046 Br
HETATM    2  C   UNK N   1       5.550   0.044   0.055  0.00  0.00     0.071 A 
HETATM    3  C   UNK N   1       5.611   1.354   0.552  0.00  0.00     0.129 A 
HETATM    4  N   UNK N   1       4.530   2.178   0.465  0.00  0.00    -0.200 N 
ATOM      5  HN  UNK N   1       4.580   3.124   0.842  1.00  0.00     0.183 HD
HETATM    6  C   UNK N   1       3.382   1.744  -0.122  0.00  0.00     0.684 A 
HETATM    7  N   UNK N   1       3.336   0.497  -0.652  0.00  0.00    -0.175 N 
ATOM      8  HN  UNK N   1       2.484   0.201  -1.130  1.00  0.00     0.186 HD
HETATM    9  C   UNK N   1       4.363  -0.367  -0.577  0.00  0.00     0.135 A 
HETATM   10  N   UNK N   1       4.165  -1.667  -1.102  0.00  0.00    -0.375 N 
HETATM   11  C   UNK N   1       4.452  -2.861  -0.348  0.00  0.00     0.123 C 
HETATM   12  C   UNK N   1       3.163  -3.595   0.071  0.00  0.00     0.040 C 
HETATM   13  C   UNK N   1       1.850  -2.938  -0.377  0.00  0.00     0.134 C 
HETATM   14  N   UNK N   1       0.991  -2.710   0.778  0.00  0.00    -0.315 N 
HETATM   15  S   UNK N   1      -0.500  -1.880   0.271  0.00  0.00     0.258 S 
HETATM   16  O   UNK N   1      -1.500  -2.252   1.375  0.00  0.00    -0.201 OA
HETATM   17  O   UNK N   1      -1.051  -2.666  -0.929  0.00  0.00    -0.201 OA
HETATM   18  C   UNK N   1      -0.449  -0.100   0.048  0.00  0.00     0.081 A 
HETATM   19  C   UNK N   1       0.780   0.529   0.049  0.00  0.00     0.055 A 
HETATM   20  C   UNK N   1      -1.611   0.667  -0.096  0.00  0.00     0.025 A 
HETATM   21  C   UNK N   1      -1.512   2.062  -0.238  0.00  0.00     0.004 A 
HETATM   22  C   UNK N   1      -0.254   2.689  -0.238  0.00  0.00     0.030 A 
HETATM   23  C   UNK N   1       0.906   1.918  -0.107  0.00  0.00     0.050 A 
HETATM   24  N   UNK N   1       2.198   2.531  -0.076  0.00  0.00    -0.192 N 
HETATM   25  H   UNK N   1       3.818  -1.759  -2.018  0.00  0.00     0.161 HD
HETATM   26  H   UNK N   1       1.212  -2.985   1.736  0.00  0.00     0.172 HD
HETATM   27  H   UNK N   1       2.268   3.511  -0.022  0.00  0.00     0.184 HD
ENDROOT
TORSDOF 0
