MODEL 1
REMARK VINA RESULT:      -7.4      0.000      0.000
REMARK  4 active torsions:
REMARK  status: ('A' for Active; 'I' for Inactive)
REMARK       I    between atoms: C_5  and  N_1 
REMARK    1  A    between atoms: O_21  and  C_2 
REMARK    2  A    between atoms: O_22  and  C_4 
REMARK    3  A    between atoms: C_15  and  C_5 
REMARK    4  A    between atoms: C_6  and  C_16 
ROOT
HETATM    1  N   UNK N   1      36.135  13.659  10.787  0.00  0.00    -0.339 N 
HETATM    2  C   UNK N   1      34.951  14.372  10.710  0.00  0.00     0.257 C 
HETATM    3  C   UNK N   1      36.701  13.078  12.010  0.00  0.00     0.121 C 
HETATM    4  C   UNK N   1      38.289  12.872  10.209  0.00  0.00     0.022 C 
HETATM    5  C   UNK N   1      37.835  12.207  11.494  0.00  0.00     0.032 C 
HETATM    6  C   UNK N   1      37.060  13.592   9.684  0.00  0.00     0.127 C 
HETATM    7  O   UNK N   1      34.144  14.289  11.611  0.00  0.00    -0.267 OA
ENDROOT
BRANCH   3   8
HETATM    8  C   UNK N   1      35.795  12.463  13.099  0.00  0.00    -0.029 A 
HETATM    9  C   UNK N   1      34.947  11.407  12.713  0.00  0.00     0.010 A 
HETATM   10  C   UNK N   1      34.050  10.819  13.599  0.00  0.00     0.001 A 
HETATM   11  C   UNK N   1      33.949  11.298  14.899  0.00  0.00     0.001 A 
HETATM   12  C   UNK N   1      34.740  12.370  15.306  0.00  0.00     0.007 A 
HETATM   13  C   UNK N   1      35.658  12.964  14.429  0.00  0.00    -0.054 A 
HETATM   14  C   UNK N   1      36.435  14.120  14.956  0.00  0.00     0.049 C 
ENDBRANCH   3   8
BRANCH   2  15
HETATM   15  C   UNK N   1      34.631  15.341   9.589  0.00  0.00     0.065 A 
HETATM   16  C   UNK N   1      34.787  16.742   9.780  0.00  0.00     0.084 A 
HETATM   17  C   UNK N   1      34.648  17.621   8.702  0.00  0.00     0.074 A 
HETATM   18  C   UNK N   1      34.356  17.137   7.430  0.00  0.00     0.068 A 
HETATM   19  C   UNK N   1      34.171  15.772   7.230  0.00  0.00     0.037 A 
HETATM   20  C   UNK N   1      34.313  14.886   8.299  0.00  0.00     0.022 A 
BRANCH  16  21
HETATM   21  O   UNK N   1      35.105  17.254  10.983  0.00  0.00    -0.360 OA
HETATM   22  H   UNK N   1      34.722  16.905  11.763  0.00  0.00     0.217 HD
ENDBRANCH  16  21
BRANCH  18  23
HETATM   23  O   UNK N   1      34.264  17.987   6.394  0.00  0.00    -0.361 OA
HETATM   24  H   UNK N   1      34.206  17.658   5.519  0.00  0.00     0.217 HD
ENDBRANCH  18  23
ENDBRANCH   2  15
TORSDOF 4
ENDMDL
MODEL 2
REMARK VINA RESULT:      -7.3      0.412      1.532
REMARK  4 active torsions:
REMARK  status: ('A' for Active; 'I' for Inactive)
REMARK       I    between atoms: C_5  and  N_1 
REMARK    1  A    between atoms: O_21  and  C_2 
REMARK    2  A    between atoms: O_22  and  C_4 
REMARK    3  A    between atoms: C_15  and  C_5 
REMARK    4  A    between atoms: C_6  and  C_16 
ROOT
HETATM    1  N   UNK N   1      35.988  13.745  10.854  0.00  0.00    -0.339 N 
HETATM    2  C   UNK N   1      34.774  14.381  10.660  0.00  0.00     0.257 C 
HETATM    3  C   UNK N   1      36.454  13.166  12.120  0.00  0.00     0.121 C 
HETATM    4  C   UNK N   1      38.241  13.117  10.504  0.00  0.00     0.022 C 
HETATM    5  C   UNK N   1      37.694  12.386  11.715  0.00  0.00     0.032 C 
HETATM    6  C   UNK N   1      37.032  13.770   9.860  0.00  0.00     0.127 C 
HETATM    7  O   UNK N   1      33.880  14.220  11.463  0.00  0.00    -0.267 OA
ENDROOT
BRANCH   3   8
HETATM    8  C   UNK N   1      35.477  12.462  13.086  0.00  0.00    -0.029 A 
HETATM    9  C   UNK N   1      35.393  12.964  14.399  0.00  0.00     0.010 A 
HETATM   10  C   UNK N   1      34.588  12.370  15.367  0.00  0.00     0.001 A 
HETATM   11  C   UNK N   1      33.865  11.226  15.055  0.00  0.00     0.001 A 
HETATM   12  C   UNK N   1      33.955  10.674  13.780  0.00  0.00     0.007 A 
HETATM   13  C   UNK N   1      34.751  11.268  12.791  0.00  0.00    -0.054 A 
HETATM   14  C   UNK N   1      34.799  10.583  11.470  0.00  0.00     0.049 C 
ENDBRANCH   3   8
BRANCH   2  15
HETATM   15  C   UNK N   1      34.515  15.360   9.531  0.00  0.00     0.065 A 
HETATM   16  C   UNK N   1      34.734  16.753   9.721  0.00  0.00     0.084 A 
HETATM   17  C   UNK N   1      34.651  17.633   8.637  0.00  0.00     0.074 A 
HETATM   18  C   UNK N   1      34.354  17.159   7.363  0.00  0.00     0.068 A 
HETATM   19  C   UNK N   1      34.108  15.804   7.165  0.00  0.00     0.037 A 
HETATM   20  C   UNK N   1      34.194  14.915   8.239  0.00  0.00     0.022 A 
BRANCH  16  21
HETATM   21  O   UNK N   1      35.059  17.254  10.925  0.00  0.00    -0.360 OA
HETATM   22  H   UNK N   1      35.939  17.195  11.243  0.00  0.00     0.217 HD
ENDBRANCH  16  21
BRANCH  18  23
HETATM   23  O   UNK N   1      34.316  18.009   6.324  0.00  0.00    -0.361 OA
HETATM   24  H   UNK N   1      33.577  18.572   6.203  0.00  0.00     0.217 HD
ENDBRANCH  18  23
ENDBRANCH   2  15
TORSDOF 4
ENDMDL
MODEL 3
REMARK VINA RESULT:      -7.1     17.143     21.657
REMARK  4 active torsions:
REMARK  status: ('A' for Active; 'I' for Inactive)
REMARK       I    between atoms: C_5  and  N_1 
REMARK    1  A    between atoms: O_21  and  C_2 
REMARK    2  A    between atoms: O_22  and  C_4 
REMARK    3  A    between atoms: C_15  and  C_5 
REMARK    4  A    between atoms: C_6  and  C_16 
ROOT
HETATM    1  N   UNK N   1      27.511  25.707  -4.734  0.00  0.00    -0.339 N 
HETATM    2  C   UNK N   1      28.712  25.762  -4.049  0.00  0.00     0.257 C 
HETATM    3  C   UNK N   1      26.473  26.746  -4.717  0.00  0.00     0.121 C 
HETATM    4  C   UNK N   1      25.646  24.796  -5.868  0.00  0.00     0.022 C 
HETATM    5  C   UNK N   1      25.518  26.307  -5.815  0.00  0.00     0.032 C 
HETATM    6  C   UNK N   1      27.055  24.504  -5.383  0.00  0.00     0.127 C 
HETATM    7  O   UNK N   1      29.117  26.828  -3.636  0.00  0.00    -0.267 OA
ENDROOT
BRANCH   3   8
HETATM    8  C   UNK N   1      26.840  28.244  -4.676  0.00  0.00    -0.029 A 
HETATM    9  C   UNK N   1      26.304  29.012  -3.624  0.00  0.00     0.010 A 
HETATM   10  C   UNK N   1      26.523  30.383  -3.523  0.00  0.00     0.001 A 
HETATM   11  C   UNK N   1      27.263  31.037  -4.500  0.00  0.00     0.001 A 
HETATM   12  C   UNK N   1      27.773  30.319  -5.580  0.00  0.00     0.007 A 
HETATM   13  C   UNK N   1      27.571  28.937  -5.688  0.00  0.00    -0.054 A 
HETATM   14  C   UNK N   1      28.137  28.271  -6.894  0.00  0.00     0.049 C 
ENDBRANCH   3   8
BRANCH   2  15
HETATM   15  C   UNK N   1      29.529  24.534  -3.697  0.00  0.00     0.065 A 
HETATM   16  C   UNK N   1      30.830  24.352  -4.245  0.00  0.00     0.084 A 
HETATM   17  C   UNK N   1      31.643  23.307  -3.796  0.00  0.00     0.074 A 
HETATM   18  C   UNK N   1      31.193  22.434  -2.811  0.00  0.00     0.068 A 
HETATM   19  C   UNK N   1      29.912  22.579  -2.285  0.00  0.00     0.037 A 
HETATM   20  C   UNK N   1      29.094  23.623  -2.722  0.00  0.00     0.022 A 
BRANCH  16  21
HETATM   21  O   UNK N   1      31.323  25.191  -5.173  0.00  0.00    -0.360 OA
HETATM   22  H   UNK N   1      32.139  25.629  -5.031  0.00  0.00     0.217 HD
ENDBRANCH  16  21
BRANCH  18  23
HETATM   23  O   UNK N   1      31.998  21.459  -2.360  0.00  0.00    -0.361 OA
HETATM   24  H   UNK N   1      31.803  20.562  -2.549  0.00  0.00     0.217 HD
ENDBRANCH  18  23
ENDBRANCH   2  15
TORSDOF 4
ENDMDL
MODEL 4
REMARK VINA RESULT:      -6.7      6.897      9.667
REMARK  4 active torsions:
REMARK  status: ('A' for Active; 'I' for Inactive)
REMARK       I    between atoms: C_5  and  N_1 
REMARK    1  A    between atoms: O_21  and  C_2 
REMARK    2  A    between atoms: O_22  and  C_4 
REMARK    3  A    between atoms: C_15  and  C_5 
REMARK    4  A    between atoms: C_6  and  C_16 
ROOT
HETATM    1  N   UNK N   1      29.181  17.905   6.767  0.00  0.00    -0.339 N 
HETATM    2  C   UNK N   1      29.165  18.048   5.390  0.00  0.00     0.257 C 
HETATM    3  C   UNK N   1      30.051  16.991   7.517  0.00  0.00     0.121 C 
HETATM    4  C   UNK N   1      28.442  17.984   9.011  0.00  0.00     0.022 C 
HETATM    5  C   UNK N   1      29.849  17.420   8.961  0.00  0.00     0.032 C 
HETATM    6  C   UNK N   1      28.176  18.502   7.610  0.00  0.00     0.127 C 
HETATM    7  O   UNK N   1      30.102  17.643   4.736  0.00  0.00    -0.267 OA
ENDROOT
BRANCH   3   8
HETATM    8  C   UNK N   1      31.504  16.721   7.072  0.00  0.00    -0.029 A 
HETATM    9  C   UNK N   1      32.460  17.719   7.344  0.00  0.00     0.010 A 
HETATM   10  C   UNK N   1      33.785  17.604   6.936  0.00  0.00     0.001 A 
HETATM   11  C   UNK N   1      34.189  16.493   6.206  0.00  0.00     0.001 A 
HETATM   12  C   UNK N   1      33.263  15.505   5.880  0.00  0.00     0.007 A 
HETATM   13  C   UNK N   1      31.928  15.600   6.294  0.00  0.00    -0.054 A 
HETATM   14  C   UNK N   1      31.015  14.503   5.870  0.00  0.00     0.049 C 
ENDBRANCH   3   8
BRANCH   2  15
HETATM   15  C   UNK N   1      27.984  18.610   4.623  0.00  0.00     0.065 A 
HETATM   16  C   UNK N   1      26.969  17.744   4.125  0.00  0.00     0.084 A 
HETATM   17  C   UNK N   1      25.805  18.274   3.562  0.00  0.00     0.074 A 
HETATM   18  C   UNK N   1      25.622  19.651   3.481  0.00  0.00     0.068 A 
HETATM   19  C   UNK N   1      26.616  20.512   3.936  0.00  0.00     0.037 A 
HETATM   20  C   UNK N   1      27.781  19.994   4.505  0.00  0.00     0.022 A 
BRANCH  16  21
HETATM   21  O   UNK N   1      27.084  16.407   4.214  0.00  0.00    -0.360 OA
HETATM   22  H   UNK N   1      26.367  15.888   4.522  0.00  0.00     0.217 HD
ENDBRANCH  16  21
BRANCH  18  23
HETATM   23  O   UNK N   1      24.482  20.147   2.975  0.00  0.00    -0.361 OA
HETATM   24  H   UNK N   1      23.700  20.150   3.491  0.00  0.00     0.217 HD
ENDBRANCH  18  23
ENDBRANCH   2  15
TORSDOF 4
ENDMDL
MODEL 5
REMARK VINA RESULT:      -6.7     17.267     21.728
REMARK  4 active torsions:
REMARK  status: ('A' for Active; 'I' for Inactive)
REMARK       I    between atoms: C_5  and  N_1 
REMARK    1  A    between atoms: O_21  and  C_2 
REMARK    2  A    between atoms: O_22  and  C_4 
REMARK    3  A    between atoms: C_15  and  C_5 
REMARK    4  A    between atoms: C_6  and  C_16 
ROOT
HETATM    1  N   UNK N   1      28.295  25.635  -5.592  0.00  0.00    -0.339 N 
HETATM    2  C   UNK N   1      29.107  25.736  -4.475  0.00  0.00     0.257 C 
HETATM    3  C   UNK N   1      27.222  26.570  -5.951  0.00  0.00     0.121 C 
HETATM    4  C   UNK N   1      27.162  24.666  -7.427  0.00  0.00     0.022 C 
HETATM    5  C   UNK N   1      26.845  26.148  -7.362  0.00  0.00     0.032 C 
HETATM    6  C   UNK N   1      28.283  24.459  -6.425  0.00  0.00     0.127 C 
HETATM    7  O   UNK N   1      29.182  26.792  -3.884  0.00  0.00    -0.267 OA
ENDROOT
BRANCH   3   8
HETATM    8  C   UNK N   1      27.361  28.086  -5.696  0.00  0.00    -0.029 A 
HETATM    9  C   UNK N   1      28.335  28.780  -6.439  0.00  0.00     0.010 A 
HETATM   10  C   UNK N   1      28.583  30.136  -6.248  0.00  0.00     0.001 A 
HETATM   11  C   UNK N   1      27.883  30.835  -5.274  0.00  0.00     0.001 A 
HETATM   12  C   UNK N   1      26.941  30.174  -4.488  0.00  0.00     0.007 A 
HETATM   13  C   UNK N   1      26.671  28.812  -4.677  0.00  0.00    -0.054 A 
HETATM   14  C   UNK N   1      25.666  28.196  -3.767  0.00  0.00     0.049 C 
ENDBRANCH   3   8
BRANCH   2  15
HETATM   15  C   UNK N   1      29.853  24.560  -3.877  0.00  0.00     0.065 A 
HETATM   16  C   UNK N   1      29.170  23.603  -3.075  0.00  0.00     0.084 A 
HETATM   17  C   UNK N   1      29.820  22.438  -2.659  0.00  0.00     0.074 A 
HETATM   18  C   UNK N   1      31.141  22.198  -3.024  0.00  0.00     0.068 A 
HETATM   19  C   UNK N   1      31.835  23.135  -3.784  0.00  0.00     0.037 A 
HETATM   20  C   UNK N   1      31.193  24.300  -4.209  0.00  0.00     0.022 A 
BRANCH  16  21
HETATM   21  O   UNK N   1      27.882  23.774  -2.726  0.00  0.00    -0.360 OA
HETATM   22  H   UNK N   1      27.531  24.635  -2.612  0.00  0.00     0.217 HD
ENDBRANCH  16  21
BRANCH  18  23
HETATM   23  O   UNK N   1      31.742  21.056  -2.653  0.00  0.00    -0.361 OA
HETATM   24  H   UNK N   1      32.408  20.677  -3.193  0.00  0.00     0.217 HD
ENDBRANCH  18  23
ENDBRANCH   2  15
TORSDOF 4
ENDMDL
MODEL 6
REMARK VINA RESULT:      -6.7      8.539     11.996
REMARK  4 active torsions:
REMARK  status: ('A' for Active; 'I' for Inactive)
REMARK       I    between atoms: C_5  and  N_1 
REMARK    1  A    between atoms: O_21  and  C_2 
REMARK    2  A    between atoms: O_22  and  C_4 
REMARK    3  A    between atoms: C_15  and  C_5 
REMARK    4  A    between atoms: C_6  and  C_16 
ROOT
HETATM    1  N   UNK N   1      26.950  18.588   5.012  0.00  0.00    -0.339 N 
HETATM    2  C   UNK N   1      27.327  17.664   5.972  0.00  0.00     0.257 C 
HETATM    3  C   UNK N   1      25.985  18.348   3.932  0.00  0.00     0.121 C 
HETATM    4  C   UNK N   1      27.047  20.488   3.608  0.00  0.00     0.022 C 
HETATM    5  C   UNK N   1      25.755  19.735   3.353  0.00  0.00     0.032 C 
HETATM    6  C   UNK N   1      27.639  19.843   4.847  0.00  0.00     0.127 C 
HETATM    7  O   UNK N   1      26.637  16.685   6.163  0.00  0.00    -0.267 OA
ENDROOT
BRANCH   3   8
HETATM    8  C   UNK N   1      24.733  17.474   4.156  0.00  0.00    -0.029 A 
HETATM    9  C   UNK N   1      23.746  17.971   5.029  0.00  0.00     0.010 A 
HETATM   10  C   UNK N   1      22.604  17.240   5.346  0.00  0.00     0.001 A 
HETATM   11  C   UNK N   1      22.434  15.965   4.821  0.00  0.00     0.001 A 
HETATM   12  C   UNK N   1      23.409  15.422   3.988  0.00  0.00     0.007 A 
HETATM   13  C   UNK N   1      24.557  16.150   3.650  0.00  0.00    -0.054 A 
HETATM   14  C   UNK N   1      25.549  15.467   2.774  0.00  0.00     0.049 C 
ENDBRANCH   3   8
BRANCH   2  15
HETATM   15  C   UNK N   1      28.623  17.753   6.753  0.00  0.00     0.065 A 
HETATM   16  C   UNK N   1      28.627  18.242   8.090  0.00  0.00     0.084 A 
HETATM   17  C   UNK N   1      29.790  18.174   8.862  0.00  0.00     0.074 A 
HETATM   18  C   UNK N   1      30.957  17.627   8.335  0.00  0.00     0.068 A 
HETATM   19  C   UNK N   1      30.979  17.170   7.021  0.00  0.00     0.037 A 
HETATM   20  C   UNK N   1      29.821  17.229   6.243  0.00  0.00     0.022 A 
BRANCH  16  21
HETATM   21  O   UNK N   1      27.516  18.747   8.655  0.00  0.00    -0.360 OA
HETATM   22  H   UNK N   1      27.181  19.579   8.384  0.00  0.00     0.217 HD
ENDBRANCH  16  21
BRANCH  18  23
HETATM   23  O   UNK N   1      32.056  17.529   9.100  0.00  0.00    -0.361 OA
HETATM   24  H   UNK N   1      32.701  18.209   9.086  0.00  0.00     0.217 HD
ENDBRANCH  18  23
ENDBRANCH   2  15
TORSDOF 4
ENDMDL
MODEL 7
REMARK VINA RESULT:      -6.4     11.419     14.477
REMARK  4 active torsions:
REMARK  status: ('A' for Active; 'I' for Inactive)
REMARK       I    between atoms: C_5  and  N_1 
REMARK    1  A    between atoms: O_21  and  C_2 
REMARK    2  A    between atoms: O_22  and  C_4 
REMARK    3  A    between atoms: C_15  and  C_5 
REMARK    4  A    between atoms: C_6  and  C_16 
ROOT
HETATM    1  N   UNK N   1      24.503  16.784   3.862  0.00  0.00    -0.339 N 
HETATM    2  C   UNK N   1      23.483  17.399   4.567  0.00  0.00     0.257 C 
HETATM    3  C   UNK N   1      25.733  17.438   3.400  0.00  0.00     0.121 C 
HETATM    4  C   UNK N   1      25.609  15.211   2.485  0.00  0.00     0.022 C 
HETATM    5  C   UNK N   1      26.594  16.276   2.929  0.00  0.00     0.032 C 
HETATM    6  C   UNK N   1      24.363  15.457   3.315  0.00  0.00     0.127 C 
HETATM    7  O   UNK N   1      23.693  18.456   5.122  0.00  0.00    -0.267 OA
ENDROOT
BRANCH   3   8
HETATM    8  C   UNK N   1      26.433  18.519   4.249  0.00  0.00    -0.029 A 
HETATM    9  C   UNK N   1      27.069  18.100   5.433  0.00  0.00     0.010 A 
HETATM   10  C   UNK N   1      27.681  18.999   6.302  0.00  0.00     0.001 A 
HETATM   11  C   UNK N   1      27.643  20.359   6.026  0.00  0.00     0.001 A 
HETATM   12  C   UNK N   1      26.987  20.818   4.886  0.00  0.00     0.007 A 
HETATM   13  C   UNK N   1      26.377  19.924   3.996  0.00  0.00    -0.054 A 
HETATM   14  C   UNK N   1      25.679  20.520   2.823  0.00  0.00     0.049 C 
ENDBRANCH   3   8
BRANCH   2  15
HETATM   15  C   UNK N   1      22.064  16.867   4.617  0.00  0.00     0.065 A 
HETATM   16  C   UNK N   1      21.584  16.199   5.778  0.00  0.00     0.084 A 
HETATM   17  C   UNK N   1      20.234  15.853   5.885  0.00  0.00     0.074 A 
HETATM   18  C   UNK N   1      19.343  16.159   4.861  0.00  0.00     0.068 A 
HETATM   19  C   UNK N   1      19.800  16.786   3.706  0.00  0.00     0.037 A 
HETATM   20  C   UNK N   1      21.146  17.140   3.591  0.00  0.00     0.022 A 
BRANCH  16  21
HETATM   21  O   UNK N   1      22.399  15.914   6.810  0.00  0.00    -0.360 OA
HETATM   22  H   UNK N   1      23.265  15.592   6.656  0.00  0.00     0.217 HD
ENDBRANCH  16  21
BRANCH  18  23
HETATM   23  O   UNK N   1      18.041  15.858   4.993  0.00  0.00    -0.361 OA
HETATM   24  H   UNK N   1      17.782  15.079   5.444  0.00  0.00     0.217 HD
ENDBRANCH  18  23
ENDBRANCH   2  15
TORSDOF 4
ENDMDL
MODEL 8
REMARK VINA RESULT:      -6.4      1.908      6.403
REMARK  4 active torsions:
REMARK  status: ('A' for Active; 'I' for Inactive)
REMARK       I    between atoms: C_5  and  N_1 
REMARK    1  A    between atoms: O_21  and  C_2 
REMARK    2  A    between atoms: O_22  and  C_4 
REMARK    3  A    between atoms: C_15  and  C_5 
REMARK    4  A    between atoms: C_6  and  C_16 
ROOT
HETATM    1  N   UNK N   1      36.139  13.717  11.053  0.00  0.00    -0.339 N 
HETATM    2  C   UNK N   1      35.238  13.860  12.094  0.00  0.00     0.257 C 
HETATM    3  C   UNK N   1      35.831  13.898   9.629  0.00  0.00     0.121 C 
HETATM    4  C   UNK N   1      38.062  13.017   9.868  0.00  0.00     0.022 C 
HETATM    5  C   UNK N   1      37.200  13.883   8.969  0.00  0.00     0.032 C 
HETATM    6  C   UNK N   1      37.453  13.160  11.251  0.00  0.00     0.127 C 
HETATM    7  O   UNK N   1      34.198  14.456  11.907  0.00  0.00    -0.267 OA
ENDROOT
BRANCH   3   8
HETATM    8  C   UNK N   1      34.844  14.985   9.154  0.00  0.00    -0.029 A 
HETATM    9  C   UNK N   1      35.222  16.328   9.345  0.00  0.00     0.010 A 
HETATM   10  C   UNK N   1      34.384  17.387   9.006  0.00  0.00     0.001 A 
HETATM   11  C   UNK N   1      33.119  17.129   8.495  0.00  0.00     0.001 A 
HETATM   12  C   UNK N   1      32.692  15.813   8.332  0.00  0.00     0.007 A 
HETATM   13  C   UNK N   1      33.528  14.737   8.657  0.00  0.00    -0.054 A 
HETATM   14  C   UNK N   1      32.965  13.371   8.469  0.00  0.00     0.049 C 
ENDBRANCH   3   8
BRANCH   2  15
HETATM   15  C   UNK N   1      35.431  13.228  13.458  0.00  0.00     0.065 A 
HETATM   16  C   UNK N   1      36.208  13.885  14.454  0.00  0.00     0.084 A 
HETATM   17  C   UNK N   1      36.252  13.382  15.758  0.00  0.00     0.074 A 
HETATM   18  C   UNK N   1      35.539  12.237  16.099  0.00  0.00     0.068 A 
HETATM   19  C   UNK N   1      34.798  11.565  15.131  0.00  0.00     0.037 A 
HETATM   20  C   UNK N   1      34.742  12.062  13.827  0.00  0.00     0.022 A 
BRANCH  16  21
HETATM   21  O   UNK N   1      36.885  15.014  14.183  0.00  0.00    -0.360 OA
HETATM   22  H   UNK N   1      37.630  15.256  14.697  0.00  0.00     0.217 HD
ENDBRANCH  16  21
BRANCH  18  23
HETATM   23  O   UNK N   1      35.557  11.787  17.364  0.00  0.00    -0.361 OA
HETATM   24  H   UNK N   1      36.331  11.878  17.884  0.00  0.00     0.217 HD
ENDBRANCH  18  23
ENDBRANCH   2  15
TORSDOF 4
ENDMDL
MODEL 9
REMARK VINA RESULT:      -6.4      3.549      8.095
REMARK  4 active torsions:
REMARK  status: ('A' for Active; 'I' for Inactive)
REMARK       I    between atoms: C_5  and  N_1 
REMARK    1  A    between atoms: O_21  and  C_2 
REMARK    2  A    between atoms: O_22  and  C_4 
REMARK    3  A    between atoms: C_15  and  C_5 
REMARK    4  A    between atoms: C_6  and  C_16 
ROOT
HETATM    1  N   UNK N   1      31.608  16.555   7.844  0.00  0.00    -0.339 N 
HETATM    2  C   UNK N   1      32.795  15.849   7.939  0.00  0.00     0.257 C 
HETATM    3  C   UNK N   1      30.988  17.014   6.596  0.00  0.00     0.121 C 
HETATM    4  C   UNK N   1      29.793  17.933   8.477  0.00  0.00     0.022 C 
HETATM    5  C   UNK N   1      29.612  17.485   7.039  0.00  0.00     0.032 C 
HETATM    6  C   UNK N   1      30.950  17.103   9.004  0.00  0.00     0.127 C 
HETATM    7  O   UNK N   1      33.239  15.293   6.958  0.00  0.00    -0.267 OA
ENDROOT
BRANCH   3   8
HETATM    8  C   UNK N   1      31.048  16.162   5.310  0.00  0.00    -0.029 A 
HETATM    9  C   UNK N   1      30.294  14.973   5.288  0.00  0.00     0.010 A 
HETATM   10  C   UNK N   1      30.321  14.102   4.202  0.00  0.00     0.001 A 
HETATM   11  C   UNK N   1      31.136  14.381   3.113  0.00  0.00     0.001 A 
HETATM   12  C   UNK N   1      31.929  15.527   3.117  0.00  0.00     0.007 A 
HETATM   13  C   UNK N   1      31.904  16.419   4.196  0.00  0.00    -0.054 A 
HETATM   14  C   UNK N   1      32.809  17.598   4.111  0.00  0.00     0.049 C 
ENDBRANCH   3   8
BRANCH   2  15
HETATM   15  C   UNK N   1      33.640  15.802   9.197  0.00  0.00     0.065 A 
HETATM   16  C   UNK N   1      33.680  14.624   9.995  0.00  0.00     0.084 A 
HETATM   17  C   UNK N   1      34.579  14.525  11.061  0.00  0.00     0.074 A 
HETATM   18  C   UNK N   1      35.446  15.574  11.354  0.00  0.00     0.068 A 
HETATM   19  C   UNK N   1      35.401  16.745  10.602  0.00  0.00     0.037 A 
HETATM   20  C   UNK N   1      34.510  16.852   9.532  0.00  0.00     0.022 A 
BRANCH  16  21
HETATM   21  O   UNK N   1      32.888  13.570   9.730  0.00  0.00    -0.360 OA
HETATM   22  H   UNK N   1      32.306  13.587   8.995  0.00  0.00     0.217 HD
ENDBRANCH  16  21
BRANCH  18  23
HETATM   23  O   UNK N   1      36.333  15.451  12.354  0.00  0.00    -0.361 OA
HETATM   24  H   UNK N   1      36.630  16.211  12.816  0.00  0.00     0.217 HD
ENDBRANCH  18  23
ENDBRANCH   2  15
TORSDOF 4
ENDMDL
