MODEL 1
REMARK VINA RESULT:      -5.8      0.000      0.000
REMARK  4 active torsions:
REMARK  status: ('A' for Active; 'I' for Inactive)
REMARK       I    between atoms: C_12  and  N_1 
REMARK    1  A    between atoms: C_2  and  O_16 
REMARK    2  A    between atoms: C_9  and  C_12 
REMARK    3  A    between atoms: O_14  and  C_10 
REMARK    4  A    between atoms: O_15  and  C_11 
ROOT
HETATM    1  C   UNK N   1      33.286  17.301   6.398  0.00  0.00     0.086 A 
HETATM    2  C   UNK N   1      30.591  17.277   7.102  0.00  0.00     0.074 A 
HETATM    3  C   UNK N   1      32.291  17.209   5.421  0.00  0.00     0.074 A 
HETATM    4  C   UNK N   1      32.954  17.386   7.794  0.00  0.00     0.099 A 
HETATM    5  C   UNK N   1      30.952  17.197   5.772  0.00  0.00     0.071 A 
HETATM    6  C   UNK N   1      31.549  17.370   8.111  0.00  0.00     0.086 A 
ENDROOT
BRANCH   4   7
HETATM    7  C   UNK N   1      34.123  17.485   8.805  0.00  0.00     0.267 C 
HETATM    8  N   UNK N   1      34.461  16.547   9.776  0.00  0.00    -0.299 N 
HETATM    9  C   UNK N   1      35.502  16.710  10.623  0.00  0.00     0.099 A 
HETATM   10  C   UNK N   1      33.894  15.371  10.078  0.00  0.00     0.099 A 
HETATM   11  C   UNK N   1      35.589  15.623  11.468  0.00  0.00     0.019 A 
HETATM   12  C   UNK N   1      34.564  14.770  11.121  0.00  0.00     0.019 A 
HETATM   13  O   UNK N   1      34.822  18.488   8.745  0.00  0.00    -0.267 OA
ENDBRANCH   4   7
BRANCH   1  14
HETATM   14  O   UNK N   1      34.562  17.307   5.973  0.00  0.00    -0.359 OA
HETATM   15  H   UNK N   1      35.251  17.536   6.565  0.00  0.00     0.217 HD
ENDBRANCH   1  14
BRANCH   6  16
HETATM   16  O   UNK N   1      31.070  17.441   9.351  0.00  0.00    -0.359 OA
HETATM   17  H   UNK N   1      30.226  17.086   9.549  0.00  0.00     0.217 HD
ENDBRANCH   6  16
BRANCH   5  18
HETATM   18  O   UNK N   1      30.004  17.108   4.826  0.00  0.00    -0.361 OA
HETATM   19  H   UNK N   1      30.123  16.532   4.097  0.00  0.00     0.217 HD
ENDBRANCH   5  18
TORSDOF 4
ENDMDL
MODEL 2
REMARK VINA RESULT:      -5.7     12.416     14.355
REMARK  4 active torsions:
REMARK  status: ('A' for Active; 'I' for Inactive)
REMARK       I    between atoms: C_12  and  N_1 
REMARK    1  A    between atoms: C_2  and  O_16 
REMARK    2  A    between atoms: C_9  and  C_12 
REMARK    3  A    between atoms: O_14  and  C_10 
REMARK    4  A    between atoms: O_15  and  C_11 
ROOT
HETATM    1  C   UNK N   1      19.697  18.849   2.760  0.00  0.00     0.086 A 
HETATM    2  C   UNK N   1      22.344  19.447   3.387  0.00  0.00     0.074 A 
HETATM    3  C   UNK N   1      20.195  20.145   2.604  0.00  0.00     0.074 A 
HETATM    4  C   UNK N   1      20.530  17.784   3.246  0.00  0.00     0.099 A 
HETATM    5  C   UNK N   1      21.510  20.442   2.916  0.00  0.00     0.071 A 
HETATM    6  C   UNK N   1      21.891  18.139   3.558  0.00  0.00     0.086 A 
ENDROOT
BRANCH   4   7
HETATM    7  C   UNK N   1      19.891  16.380   3.386  0.00  0.00     0.267 C 
HETATM    8  N   UNK N   1      20.059  15.303   2.520  0.00  0.00    -0.299 N 
HETATM    9  C   UNK N   1      19.463  14.106   2.714  0.00  0.00     0.099 A 
HETATM   10  C   UNK N   1      20.780  15.201   1.395  0.00  0.00     0.099 A 
HETATM   11  C   UNK N   1      19.814  13.240   1.698  0.00  0.00     0.019 A 
HETATM   12  C   UNK N   1      20.653  13.939   0.858  0.00  0.00     0.019 A 
HETATM   13  O   UNK N   1      19.166  16.196   4.354  0.00  0.00    -0.267 OA
ENDBRANCH   4   7
BRANCH   1  14
HETATM   14  O   UNK N   1      18.407  18.646   2.434  0.00  0.00    -0.359 OA
HETATM   15  H   UNK N   1      17.728  18.992   2.978  0.00  0.00     0.217 HD
ENDBRANCH   1  14
BRANCH   6  16
HETATM   16  O   UNK N   1      22.793  17.275   4.018  0.00  0.00    -0.359 OA
HETATM   17  H   UNK N   1      23.381  16.851   3.424  0.00  0.00     0.217 HD
ENDBRANCH   6  16
BRANCH   5  18
HETATM   18  O   UNK N   1      21.979  21.690   2.763  0.00  0.00    -0.361 OA
HETATM   19  H   UNK N   1      21.989  22.085   1.914  0.00  0.00     0.217 HD
ENDBRANCH   5  18
TORSDOF 4
ENDMDL
MODEL 3
REMARK VINA RESULT:      -5.6     12.500     14.479
REMARK  4 active torsions:
REMARK  status: ('A' for Active; 'I' for Inactive)
REMARK       I    between atoms: C_12  and  N_1 
REMARK    1  A    between atoms: C_2  and  O_16 
REMARK    2  A    between atoms: C_9  and  C_12 
REMARK    3  A    between atoms: O_14  and  C_10 
REMARK    4  A    between atoms: O_15  and  C_11 
ROOT
HETATM    1  C   UNK N   1      21.785  18.079   3.603  0.00  0.00     0.086 A 
HETATM    2  C   UNK N   1      20.125  20.055   2.555  0.00  0.00     0.074 A 
HETATM    3  C   UNK N   1      22.253  19.382   3.412  0.00  0.00     0.074 A 
HETATM    4  C   UNK N   1      20.436  17.716   3.265  0.00  0.00     0.099 A 
HETATM    5  C   UNK N   1      21.428  20.363   2.892  0.00  0.00     0.071 A 
HETATM    6  C   UNK N   1      19.614  18.769   2.727  0.00  0.00     0.086 A 
ENDROOT
BRANCH   4   7
HETATM    7  C   UNK N   1      20.006  16.248   3.511  0.00  0.00     0.267 C 
HETATM    8  N   UNK N   1      19.754  15.285   2.538  0.00  0.00    -0.299 N 
HETATM    9  C   UNK N   1      19.381  14.020   2.837  0.00  0.00     0.099 A 
HETATM   10  C   UNK N   1      19.814  15.367   1.202  0.00  0.00     0.099 A 
HETATM   11  C   UNK N   1      19.204  13.299   1.674  0.00  0.00     0.019 A 
HETATM   12  C   UNK N   1      19.480  14.158   0.632  0.00  0.00     0.019 A 
HETATM   13  O   UNK N   1      19.874  15.898   4.675  0.00  0.00    -0.267 OA
ENDBRANCH   4   7
BRANCH   1  14
HETATM   14  O   UNK N   1      22.652  17.186   4.113  0.00  0.00    -0.359 OA
HETATM   15  H   UNK N   1      22.335  16.462   4.616  0.00  0.00     0.217 HD
ENDBRANCH   1  14
BRANCH   6  16
HETATM   16  O   UNK N   1      18.344  18.602   2.363  0.00  0.00    -0.359 OA
HETATM   17  H   UNK N   1      17.913  17.787   2.529  0.00  0.00     0.217 HD
ENDBRANCH   6  16
BRANCH   5  18
HETATM   18  O   UNK N   1      21.887  21.612   2.713  0.00  0.00    -0.361 OA
HETATM   19  H   UNK N   1      22.714  21.751   2.295  0.00  0.00     0.217 HD
ENDBRANCH   5  18
TORSDOF 4
ENDMDL
MODEL 4
REMARK VINA RESULT:      -5.6     13.263     16.330
REMARK  4 active torsions:
REMARK  status: ('A' for Active; 'I' for Inactive)
REMARK       I    between atoms: C_12  and  N_1 
REMARK    1  A    between atoms: C_2  and  O_16 
REMARK    2  A    between atoms: C_9  and  C_12 
REMARK    3  A    between atoms: O_14  and  C_10 
REMARK    4  A    between atoms: O_15  and  C_11 
ROOT
HETATM    1  C   UNK N   1      29.509  23.620  -4.940  0.00  0.00     0.086 A 
HETATM    2  C   UNK N   1      29.203  23.132  -2.215  0.00  0.00     0.074 A 
HETATM    3  C   UNK N   1      30.578  23.153  -4.170  0.00  0.00     0.074 A 
HETATM    4  C   UNK N   1      28.220  23.863  -4.353  0.00  0.00     0.099 A 
HETATM    5  C   UNK N   1      30.426  22.911  -2.817  0.00  0.00     0.071 A 
HETATM    6  C   UNK N   1      28.108  23.597  -2.941  0.00  0.00     0.086 A 
ENDROOT
BRANCH   4   7
HETATM    7  C   UNK N   1      27.094  24.379  -5.283  0.00  0.00     0.267 C 
HETATM    8  N   UNK N   1      26.385  25.569  -5.144  0.00  0.00    -0.299 N 
HETATM    9  C   UNK N   1      25.413  25.949  -6.004  0.00  0.00     0.099 A 
HETATM   10  C   UNK N   1      26.483  26.533  -4.218  0.00  0.00     0.099 A 
HETATM   11  C   UNK N   1      24.894  27.166  -5.612  0.00  0.00     0.019 A 
HETATM   12  C   UNK N   1      25.576  27.537  -4.474  0.00  0.00     0.019 A 
HETATM   13  O   UNK N   1      26.796  23.673  -6.236  0.00  0.00    -0.267 OA
ENDBRANCH   4   7
BRANCH   1  14
HETATM   14  O   UNK N   1      29.742  23.830  -6.248  0.00  0.00    -0.359 OA
HETATM   15  H   UNK N   1      29.094  24.255  -6.776  0.00  0.00     0.217 HD
ENDBRANCH   1  14
BRANCH   6  16
HETATM   16  O   UNK N   1      26.987  23.768  -2.244  0.00  0.00    -0.359 OA
HETATM   17  H   UNK N   1      26.754  24.622  -1.935  0.00  0.00     0.217 HD
ENDBRANCH   6  16
BRANCH   5  18
HETATM   18  O   UNK N   1      31.459  22.463  -2.087  0.00  0.00    -0.361 OA
HETATM   19  H   UNK N   1      31.815  21.613  -2.253  0.00  0.00     0.217 HD
ENDBRANCH   5  18
TORSDOF 4
ENDMDL
MODEL 5
REMARK VINA RESULT:      -5.5      0.183      2.103
REMARK  4 active torsions:
REMARK  status: ('A' for Active; 'I' for Inactive)
REMARK       I    between atoms: C_12  and  N_1 
REMARK    1  A    between atoms: C_2  and  O_16 
REMARK    2  A    between atoms: C_9  and  C_12 
REMARK    3  A    between atoms: O_14  and  C_10 
REMARK    4  A    between atoms: O_15  and  C_11 
ROOT
HETATM    1  C   UNK N   1      31.634  17.427   8.065  0.00  0.00     0.086 A 
HETATM    2  C   UNK N   1      32.122  17.193   5.333  0.00  0.00     0.074 A 
HETATM    3  C   UNK N   1      30.579  17.319   7.155  0.00  0.00     0.074 A 
HETATM    4  C   UNK N   1      33.002  17.421   7.624  0.00  0.00     0.099 A 
HETATM    5  C   UNK N   1      30.823  17.203   5.798  0.00  0.00     0.071 A 
HETATM    6  C   UNK N   1      33.207  17.298   6.203  0.00  0.00     0.086 A 
ENDROOT
BRANCH   4   7
HETATM    7  C   UNK N   1      34.105  17.545   8.704  0.00  0.00     0.267 C 
HETATM    8  N   UNK N   1      34.429  16.597   9.671  0.00  0.00    -0.299 N 
HETATM    9  C   UNK N   1      35.410  16.785  10.582  0.00  0.00     0.099 A 
HETATM   10  C   UNK N   1      33.901  15.390   9.911  0.00  0.00     0.099 A 
HETATM   11  C   UNK N   1      35.499  15.680  11.404  0.00  0.00     0.019 A 
HETATM   12  C   UNK N   1      34.537  14.792  10.976  0.00  0.00     0.019 A 
HETATM   13  O   UNK N   1      34.758  18.579   8.711  0.00  0.00    -0.267 OA
ENDBRANCH   4   7
BRANCH   1  14
HETATM   14  O   UNK N   1      31.312  17.536   9.367  0.00  0.00    -0.359 OA
HETATM   15  H   UNK N   1      30.533  17.128   9.691  0.00  0.00     0.217 HD
ENDBRANCH   1  14
BRANCH   6  16
HETATM   16  O   UNK N   1      34.408  17.276   5.629  0.00  0.00    -0.359 OA
HETATM   17  H   UNK N   1      35.164  17.051   6.134  0.00  0.00     0.217 HD
ENDBRANCH   6  16
BRANCH   5  18
HETATM   18  O   UNK N   1      29.802  17.099   4.932  0.00  0.00    -0.361 OA
HETATM   19  H   UNK N   1      28.966  16.797   5.228  0.00  0.00     0.217 HD
ENDBRANCH   5  18
TORSDOF 4
ENDMDL
MODEL 6
REMARK VINA RESULT:      -5.5      3.098      6.122
REMARK  4 active torsions:
REMARK  status: ('A' for Active; 'I' for Inactive)
REMARK       I    between atoms: C_12  and  N_1 
REMARK    1  A    between atoms: C_2  and  O_16 
REMARK    2  A    between atoms: C_9  and  C_12 
REMARK    3  A    between atoms: O_14  and  C_10 
REMARK    4  A    between atoms: O_15  and  C_11 
ROOT
HETATM    1  C   UNK N   1      36.755  13.851   9.968  0.00  0.00     0.086 A 
HETATM    2  C   UNK N   1      35.301  13.998  12.339  0.00  0.00     0.074 A 
HETATM    3  C   UNK N   1      37.314  13.434  11.179  0.00  0.00     0.074 A 
HETATM    4  C   UNK N   1      35.416  14.369   9.906  0.00  0.00     0.099 A 
HETATM    5  C   UNK N   1      36.591  13.506  12.356  0.00  0.00     0.071 A 
HETATM    6  C   UNK N   1      34.702  14.426  11.156  0.00  0.00     0.086 A 
ENDROOT
BRANCH   4   7
HETATM    7  C   UNK N   1      34.880  14.808   8.520  0.00  0.00     0.267 C 
HETATM    8  N   UNK N   1      34.531  16.100   8.138  0.00  0.00    -0.299 N 
HETATM    9  C   UNK N   1      34.070  16.400   6.903  0.00  0.00     0.099 A 
HETATM   10  C   UNK N   1      34.564  17.246   8.831  0.00  0.00     0.099 A 
HETATM   11  C   UNK N   1      33.809  17.753   6.820  0.00  0.00     0.019 A 
HETATM   12  C   UNK N   1      34.124  18.291   8.048  0.00  0.00     0.019 A 
HETATM   13  O   UNK N   1      34.750  13.933   7.675  0.00  0.00    -0.267 OA
ENDBRANCH   4   7
BRANCH   1  14
HETATM   14  O   UNK N   1      37.525  13.747   8.870  0.00  0.00    -0.359 OA
HETATM   15  H   UNK N   1      37.711  14.508   8.356  0.00  0.00     0.217 HD
ENDBRANCH   1  14
BRANCH   6  16
HETATM   16  O   UNK N   1      33.455  14.878  11.274  0.00  0.00    -0.359 OA
HETATM   17  H   UNK N   1      32.746  14.274  11.375  0.00  0.00     0.217 HD
ENDBRANCH   6  16
BRANCH   5  18
HETATM   18  O   UNK N   1      37.138  13.102  13.514  0.00  0.00    -0.361 OA
HETATM   19  H   UNK N   1      36.592  12.938  14.257  0.00  0.00     0.217 HD
ENDBRANCH   5  18
TORSDOF 4
ENDMDL
MODEL 7
REMARK VINA RESULT:      -5.4     10.739     13.066
REMARK  4 active torsions:
REMARK  status: ('A' for Active; 'I' for Inactive)
REMARK       I    between atoms: C_12  and  N_1 
REMARK    1  A    between atoms: C_2  and  O_16 
REMARK    2  A    between atoms: C_9  and  C_12 
REMARK    3  A    between atoms: O_14  and  C_10 
REMARK    4  A    between atoms: O_15  and  C_11 
ROOT
HETATM    1  C   UNK N   1      21.407  12.647  10.441  0.00  0.00     0.086 A 
HETATM    2  C   UNK N   1      24.163  12.255  10.530  0.00  0.00     0.074 A 
HETATM    3  C   UNK N   1      22.056  12.387  11.651  0.00  0.00     0.074 A 
HETATM    4  C   UNK N   1      22.138  12.721   9.205  0.00  0.00     0.099 A 
HETATM    5  C   UNK N   1      23.425  12.192  11.695  0.00  0.00     0.071 A 
HETATM    6  C   UNK N   1      23.560  12.511   9.300  0.00  0.00     0.086 A 
ENDROOT
BRANCH   4   7
HETATM    7  C   UNK N   1      21.335  13.014   7.913  0.00  0.00     0.267 C 
HETATM    8  N   UNK N   1      20.987  14.268   7.420  0.00  0.00    -0.299 N 
HETATM    9  C   UNK N   1      20.282  14.438   6.280  0.00  0.00     0.099 A 
HETATM   10  C   UNK N   1      21.241  15.491   7.907  0.00  0.00     0.099 A 
HETATM   11  C   UNK N   1      20.090  15.785   6.047  0.00  0.00     0.019 A 
HETATM   12  C   UNK N   1      20.701  16.455   7.085  0.00  0.00     0.019 A 
HETATM   13  O   UNK N   1      20.970  12.047   7.259  0.00  0.00    -0.267 OA
ENDBRANCH   4   7
BRANCH   1  14
HETATM   14  O   UNK N   1      20.074  12.824  10.486  0.00  0.00    -0.359 OA
HETATM   15  H   UNK N   1      19.679  13.208  11.243  0.00  0.00     0.217 HD
ENDBRANCH   1  14
BRANCH   6  16
HETATM   16  O   UNK N   1      24.383  12.546   8.253  0.00  0.00    -0.359 OA
HETATM   17  H   UNK N   1      24.523  13.350   7.794  0.00  0.00     0.217 HD
ENDBRANCH   6  16
BRANCH   5  18
HETATM   18  O   UNK N   1      24.038  11.943  12.863  0.00  0.00    -0.361 OA
HETATM   19  H   UNK N   1      24.934  12.185  12.981  0.00  0.00     0.217 HD
ENDBRANCH   5  18
TORSDOF 4
ENDMDL
MODEL 8
REMARK VINA RESULT:      -5.4     13.245     16.427
REMARK  4 active torsions:
REMARK  status: ('A' for Active; 'I' for Inactive)
REMARK       I    between atoms: C_12  and  N_1 
REMARK    1  A    between atoms: C_2  and  O_16 
REMARK    2  A    between atoms: C_9  and  C_12 
REMARK    3  A    between atoms: O_14  and  C_10 
REMARK    4  A    between atoms: O_15  and  C_11 
ROOT
HETATM    1  C   UNK N   1      28.112  23.581  -2.962  0.00  0.00     0.086 A 
HETATM    2  C   UNK N   1      30.590  23.151  -4.158  0.00  0.00     0.074 A 
HETATM    3  C   UNK N   1      29.201  23.128  -2.212  0.00  0.00     0.074 A 
HETATM    4  C   UNK N   1      28.233  23.839  -4.370  0.00  0.00     0.099 A 
HETATM    5  C   UNK N   1      30.432  22.915  -2.807  0.00  0.00     0.071 A 
HETATM    6  C   UNK N   1      29.533  23.603  -4.946  0.00  0.00     0.086 A 
ENDROOT
BRANCH   4   7
HETATM    7  C   UNK N   1      26.972  24.338  -5.119  0.00  0.00     0.267 C 
HETATM    8  N   UNK N   1      26.419  25.614  -5.051  0.00  0.00    -0.299 N 
HETATM    9  C   UNK N   1      25.311  25.971  -5.739  0.00  0.00     0.099 A 
HETATM   10  C   UNK N   1      26.809  26.691  -4.356  0.00  0.00     0.099 A 
HETATM   11  C   UNK N   1      25.002  27.289  -5.473  0.00  0.00     0.019 A 
HETATM   12  C   UNK N   1      25.957  27.747  -4.591  0.00  0.00     0.019 A 
HETATM   13  O   UNK N   1      26.405  23.533  -5.844  0.00  0.00    -0.267 OA
ENDBRANCH   4   7
BRANCH   1  14
HETATM   14  O   UNK N   1      26.951  23.762  -2.306  0.00  0.00    -0.359 OA
HETATM   15  H   UNK N   1      26.925  24.307  -1.545  0.00  0.00     0.217 HD
ENDBRANCH   1  14
BRANCH   6  16
HETATM   16  O   UNK N   1      29.815  23.792  -6.233  0.00  0.00    -0.359 OA
HETATM   17  H   UNK N   1      30.704  23.758  -6.528  0.00  0.00     0.217 HD
ENDBRANCH   6  16
BRANCH   5  18
HETATM   18  O   UNK N   1      31.472  22.480  -2.078  0.00  0.00    -0.361 OA
HETATM   19  H   UNK N   1      31.849  21.641  -2.255  0.00  0.00     0.217 HD
ENDBRANCH   5  18
TORSDOF 4
ENDMDL
MODEL 9
REMARK VINA RESULT:      -5.4     10.453     12.766
REMARK  4 active torsions:
REMARK  status: ('A' for Active; 'I' for Inactive)
REMARK       I    between atoms: C_12  and  N_1 
REMARK    1  A    between atoms: C_2  and  O_16 
REMARK    2  A    between atoms: C_9  and  C_12 
REMARK    3  A    between atoms: O_14  and  C_10 
REMARK    4  A    between atoms: O_15  and  C_11 
ROOT
HETATM    1  C   UNK N   1      23.555  12.780   8.637  0.00  0.00     0.086 A 
HETATM    2  C   UNK N   1      22.636  12.375  11.235  0.00  0.00     0.074 A 
HETATM    3  C   UNK N   1      24.445  12.498   9.677  0.00  0.00     0.074 A 
HETATM    4  C   UNK N   1      22.140  12.870   8.872  0.00  0.00     0.099 A 
HETATM    5  C   UNK N   1      23.988  12.297  10.967  0.00  0.00     0.071 A 
HETATM    6  C   UNK N   1      21.711  12.653  10.230  0.00  0.00     0.086 A 
ENDROOT
BRANCH   4   7
HETATM    7  C   UNK N   1      21.230  13.187   7.659  0.00  0.00     0.267 C 
HETATM    8  N   UNK N   1      20.846  14.450   7.219  0.00  0.00    -0.299 N 
HETATM    9  C   UNK N   1      20.045  14.641   6.147  0.00  0.00     0.099 A 
HETATM   10  C   UNK N   1      21.144  15.664   7.703  0.00  0.00     0.099 A 
HETATM   11  C   UNK N   1      19.839  15.992   5.954  0.00  0.00     0.019 A 
HETATM   12  C   UNK N   1      20.540  16.643   6.946  0.00  0.00     0.019 A 
HETATM   13  O   UNK N   1      20.806  12.232   7.022  0.00  0.00    -0.267 OA
ENDBRANCH   4   7
BRANCH   1  14
HETATM   14  O   UNK N   1      24.082  12.962   7.413  0.00  0.00    -0.359 OA
HETATM   15  H   UNK N   1      24.198  13.830   7.078  0.00  0.00     0.217 HD
ENDBRANCH   1  14
BRANCH   6  16
HETATM   16  O   UNK N   1      20.438  12.701  10.619  0.00  0.00    -0.359 OA
HETATM   17  H   UNK N   1      20.090  13.489  10.987  0.00  0.00     0.217 HD
ENDBRANCH   6  16
BRANCH   5  18
HETATM   18  O   UNK N   1      24.852  12.027  11.959  0.00  0.00    -0.361 OA
HETATM   19  H   UNK N   1      25.369  12.714  12.328  0.00  0.00     0.217 HD
ENDBRANCH   5  18
TORSDOF 4
ENDMDL
