MODEL 1
REMARK VINA RESULT:      -8.4      0.000      0.000
REMARK  4 active torsions:
REMARK  status: ('A' for Active; 'I' for Inactive)
REMARK    1  A    between atoms: C_9  and  C_30 
REMARK    2  A    between atoms: C_13  and  O_28 
REMARK    3  A    between atoms: C_16  and  C_30 
REMARK    4  A    between atoms: C_23  and  O_28 
ROOT
HETATM    1  C   UNK N   1      22.848  18.269   4.609  0.00  0.00    -0.058 A 
HETATM    2  C   UNK N   1      21.914  18.849   3.752  0.00  0.00     0.029 A 
HETATM    3  C   UNK N   1      22.300  19.944   2.958  0.00  0.00     0.047 A 
HETATM    4  C   UNK N   1      23.598  20.445   2.999  0.00  0.00     0.059 A 
HETATM    5  C   UNK N   1      24.542  19.884   3.833  0.00  0.00     0.078 A 
HETATM    6  C   UNK N   1      24.132  18.794   4.653  0.00  0.00     0.044 A 
HETATM    7  C   UNK N   1      22.496  17.095   5.462  0.00  0.00     0.048 C 
HETATM    8  C   UNK N   1      21.383  20.594   2.087  0.00  0.00     0.099 C 
HETATM    9  N   UNK N   1      20.685  21.160   1.362  0.00  0.00    -0.191 NA
ENDROOT
BRANCH   5  10
HETATM   10  O   UNK N   1      25.814  20.427   3.860  0.00  0.00    -0.309 OA
BRANCH  10  11
HETATM   11  C   UNK N   1      26.846  19.836   4.512  0.00  0.00     0.093 C 
HETATM   12  C   UNK N   1      27.144  20.090   5.871  0.00  0.00     0.045 C 
HETATM   13  C   UNK N   1      27.945  19.148   6.570  0.00  0.00     0.029 C 
HETATM   14 Br   UNK N   1      26.393  21.593   6.788  0.00  0.00    -0.048 Br
HETATM   15  C   UNK N   1      28.489  18.053   5.857  0.00  0.00    -0.051 C 
HETATM   16  C   UNK N   1      28.372  18.026   4.490  0.00  0.00     0.010 C 
HETATM   17  C   UNK N   1      27.574  18.879   3.844  0.00  0.00     0.039 C 
BRANCH  15  18
HETATM   18  C   UNK N   1      29.031  16.809   6.507  0.00  0.00     0.098 C 
BRANCH  18  19
HETATM   19  C   UNK N   1      30.224  17.106   7.428  0.00  0.00     0.044 A 
HETATM   20  C   UNK N   1      31.515  17.221   7.033  0.00  0.00     0.036 A 
HETATM   21  C   UNK N   1      32.114  17.181   5.795  0.00  0.00     0.036 A 
HETATM   22  C   UNK N   1      32.230  17.420   8.165  0.00  0.00     0.147 A 
HETATM   23  C   UNK N   1      33.502  17.377   5.776  0.00  0.00     0.108 A 
HETATM   24  N   UNK N   1      34.189  17.579   6.951  0.00  0.00    -0.310 N 
HETATM   25  N   UNK N   1      33.568  17.595   8.138  0.00  0.00    -0.284 N 
ATOM     26  HN  UNK N   1      35.199  17.720   6.917  1.00  0.00     0.186 HD
ATOM     27  HN  UNK N   1      34.093  17.737   9.001  1.00  0.00     0.188 HD
HETATM   28  N   UNK N   1      31.427  17.436   9.236  0.00  0.00    -0.283 N 
HETATM   29  N   UNK N   1      30.188  17.258   8.789  0.00  0.00    -0.302 N 
HETATM   30  H   UNK N   1      31.701  17.557  10.174  0.00  0.00     0.188 HD
ATOM     31  HN  UNK N   1      29.346  17.237   9.365  1.00  0.00     0.186 HD
ENDBRANCH  18  19
ENDBRANCH  15  18
ENDBRANCH  10  11
ENDBRANCH   5  10
TORSDOF 4
ENDMDL
MODEL 2
REMARK VINA RESULT:      -8.4      6.313      7.655
REMARK  4 active torsions:
REMARK  status: ('A' for Active; 'I' for Inactive)
REMARK    1  A    between atoms: C_9  and  C_30 
REMARK    2  A    between atoms: C_13  and  O_28 
REMARK    3  A    between atoms: C_16  and  C_30 
REMARK    4  A    between atoms: C_23  and  O_28 
ROOT
HETATM    1  C   UNK N   1      20.286  16.713   2.235  0.00  0.00    -0.058 A 
HETATM    2  C   UNK N   1      20.398  17.876   1.476  0.00  0.00     0.029 A 
HETATM    3  C   UNK N   1      20.674  19.094   2.125  0.00  0.00     0.047 A 
HETATM    4  C   UNK N   1      20.854  19.153   3.504  0.00  0.00     0.059 A 
HETATM    5  C   UNK N   1      20.754  18.015   4.275  0.00  0.00     0.078 A 
HETATM    6  C   UNK N   1      20.448  16.793   3.611  0.00  0.00     0.044 A 
HETATM    7  C   UNK N   1      20.010  15.392   1.596  0.00  0.00     0.048 C 
HETATM    8  C   UNK N   1      20.772  20.317   1.406  0.00  0.00     0.099 C 
HETATM    9  N   UNK N   1      20.863  21.339   0.877  0.00  0.00    -0.191 NA
ENDROOT
BRANCH   5  10
HETATM   10  O   UNK N   1      20.918  18.122   5.645  0.00  0.00    -0.309 OA
BRANCH  10  11
HETATM   11  C   UNK N   1      21.541  17.170   6.383  0.00  0.00     0.093 C 
HETATM   12  C   UNK N   1      20.957  16.577   7.526  0.00  0.00     0.045 C 
HETATM   13  C   UNK N   1      21.474  15.334   7.976  0.00  0.00     0.029 C 
HETATM   14 Br   UNK N   1      19.431  17.359   8.380  0.00  0.00    -0.048 Br
HETATM   15  C   UNK N   1      22.607  14.790   7.326  0.00  0.00    -0.051 C 
HETATM   16  C   UNK N   1      23.273  15.556   6.401  0.00  0.00     0.010 C 
HETATM   17  C   UNK N   1      22.754  16.697   5.940  0.00  0.00     0.039 C 
BRANCH  15  18
HETATM   18  C   UNK N   1      23.035  13.352   7.436  0.00  0.00     0.098 C 
BRANCH  18  19
HETATM   19  C   UNK N   1      23.695  13.044   8.789  0.00  0.00     0.044 A 
HETATM   20  C   UNK N   1      23.045  12.648   9.910  0.00  0.00     0.036 A 
HETATM   21  C   UNK N   1      21.725  12.353  10.163  0.00  0.00     0.036 A 
HETATM   22  C   UNK N   1      23.993  12.553  10.871  0.00  0.00     0.147 A 
HETATM   23  C   UNK N   1      21.426  11.932  11.466  0.00  0.00     0.108 A 
HETATM   24  N   UNK N   1      22.423  11.848  12.412  0.00  0.00    -0.310 N 
HETATM   25  N   UNK N   1      23.695  12.160  12.127  0.00  0.00    -0.284 N 
ATOM     26  HN  UNK N   1      22.186  11.540  13.355  1.00  0.00     0.186 HD
ATOM     27  HN  UNK N   1      24.420  12.100  12.842  1.00  0.00     0.188 HD
HETATM   28  N   UNK N   1      25.198  12.873  10.382  0.00  0.00    -0.283 N 
HETATM   29  N   UNK N   1      25.025  13.163   9.096  0.00  0.00    -0.302 N 
HETATM   30  H   UNK N   1      26.048  12.889  10.878  0.00  0.00     0.188 HD
ATOM     31  HN  UNK N   1      25.762  13.430   8.443  1.00  0.00     0.186 HD
ENDBRANCH  18  19
ENDBRANCH  15  18
ENDBRANCH  10  11
ENDBRANCH   5  10
TORSDOF 4
ENDMDL
MODEL 3
REMARK VINA RESULT:      -7.9      2.759      9.322
REMARK  4 active torsions:
REMARK  status: ('A' for Active; 'I' for Inactive)
REMARK    1  A    between atoms: C_9  and  C_30 
REMARK    2  A    between atoms: C_13  and  O_28 
REMARK    3  A    between atoms: C_16  and  C_30 
REMARK    4  A    between atoms: C_23  and  O_28 
ROOT
HETATM    1  C   UNK N   1      30.796  17.012   5.779  0.00  0.00    -0.058 A 
HETATM    2  C   UNK N   1      30.224  16.949   7.049  0.00  0.00     0.029 A 
HETATM    3  C   UNK N   1      28.935  17.476   7.247  0.00  0.00     0.047 A 
HETATM    4  C   UNK N   1      28.217  18.042   6.197  0.00  0.00     0.059 A 
HETATM    5  C   UNK N   1      28.758  18.110   4.931  0.00  0.00     0.078 A 
HETATM    6  C   UNK N   1      30.074  17.598   4.748  0.00  0.00     0.044 A 
HETATM    7  C   UNK N   1      32.154  16.454   5.510  0.00  0.00     0.048 C 
HETATM    8  C   UNK N   1      28.312  17.466   8.525  0.00  0.00     0.099 C 
HETATM    9  N   UNK N   1      27.757  17.484   9.537  0.00  0.00    -0.191 NA
ENDROOT
BRANCH   5  10
HETATM   10  O   UNK N   1      28.019  18.701   3.921  0.00  0.00    -0.309 OA
BRANCH  10  11
HETATM   11  C   UNK N   1      26.682  18.512   3.789  0.00  0.00     0.093 C 
HETATM   12  C   UNK N   1      26.107  17.248   3.516  0.00  0.00     0.045 C 
HETATM   13  C   UNK N   1      24.729  17.062   3.803  0.00  0.00     0.029 C 
HETATM   14 Br   UNK N   1      27.174  15.787   2.891  0.00  0.00    -0.048 Br
HETATM   15  C   UNK N   1      23.970  18.168   4.257  0.00  0.00    -0.051 C 
HETATM   16  C   UNK N   1      24.541  19.416   4.240  0.00  0.00     0.010 C 
HETATM   17  C   UNK N   1      25.849  19.580   4.024  0.00  0.00     0.039 C 
BRANCH  15  18
HETATM   18  C   UNK N   1      22.634  18.052   4.937  0.00  0.00     0.098 C 
BRANCH  18  19
HETATM   19  C   UNK N   1      21.473  18.430   4.005  0.00  0.00     0.044 A 
HETATM   20  C   UNK N   1      20.913  17.618   3.076  0.00  0.00     0.036 A 
HETATM   21  C   UNK N   1      21.129  16.301   2.742  0.00  0.00     0.036 A 
HETATM   22  C   UNK N   1      19.978  18.369   2.447  0.00  0.00     0.147 A 
HETATM   23  C   UNK N   1      20.313  15.781   1.727  0.00  0.00     0.108 A 
HETATM   24  N   UNK N   1      19.374  16.580   1.116  0.00  0.00    -0.310 N 
HETATM   25  N   UNK N   1      19.206  17.864   1.462  0.00  0.00    -0.284 N 
ATOM     26  HN  UNK N   1      18.789  16.183   0.380  1.00  0.00     0.186 HD
ATOM     27  HN  UNK N   1      18.511  18.445   0.994  1.00  0.00     0.188 HD
HETATM   28  N   UNK N   1      19.942  19.607   2.957  0.00  0.00    -0.283 N 
HETATM   29  N   UNK N   1      20.851  19.648   3.927  0.00  0.00    -0.302 N 
HETATM   30  H   UNK N   1      19.356  20.344   2.669  0.00  0.00     0.188 HD
ATOM     31  HN  UNK N   1      21.051  20.455   4.518  1.00  0.00     0.186 HD
ENDBRANCH  18  19
ENDBRANCH  15  18
ENDBRANCH  10  11
ENDBRANCH   5  10
TORSDOF 4
ENDMDL
MODEL 4
REMARK VINA RESULT:      -7.9      8.818     14.059
REMARK  4 active torsions:
REMARK  status: ('A' for Active; 'I' for Inactive)
REMARK    1  A    between atoms: C_9  and  C_30 
REMARK    2  A    between atoms: C_13  and  O_28 
REMARK    3  A    between atoms: C_16  and  C_30 
REMARK    4  A    between atoms: C_23  and  O_28 
ROOT
HETATM    1  C   UNK N   1      35.097  12.875  17.627  0.00  0.00    -0.058 A 
HETATM    2  C   UNK N   1      35.301  11.573  18.081  0.00  0.00     0.029 A 
HETATM    3  C   UNK N   1      35.105  10.499  17.195  0.00  0.00     0.047 A 
HETATM    4  C   UNK N   1      34.730  10.714  15.871  0.00  0.00     0.059 A 
HETATM    5  C   UNK N   1      34.529  11.992  15.396  0.00  0.00     0.078 A 
HETATM    6  C   UNK N   1      34.703  13.070  16.310  0.00  0.00     0.044 A 
HETATM    7  C   UNK N   1      35.306  14.052  18.521  0.00  0.00     0.048 C 
HETATM    8  C   UNK N   1      35.271   9.149  17.609  0.00  0.00     0.099 C 
HETATM    9  N   UNK N   1      35.391   8.035  17.888  0.00  0.00    -0.191 NA
ENDROOT
BRANCH   5  10
HETATM   10  O   UNK N   1      34.134  12.159  14.081  0.00  0.00    -0.309 OA
BRANCH  10  11
HETATM   11  C   UNK N   1      34.988  12.568  13.109  0.00  0.00     0.093 C 
HETATM   12  C   UNK N   1      35.248  11.810  11.944  0.00  0.00     0.045 C 
HETATM   13  C   UNK N   1      35.803  12.476  10.820  0.00  0.00     0.029 C 
HETATM   14 Br   UNK N   1      34.757   9.963  11.831  0.00  0.00    -0.048 Br
HETATM   15  C   UNK N   1      36.161  13.840  10.942  0.00  0.00    -0.051 C 
HETATM   16  C   UNK N   1      36.123  14.428  12.182  0.00  0.00     0.010 C 
HETATM   17  C   UNK N   1      35.549  13.819  13.223  0.00  0.00     0.039 C 
BRANCH  15  18
HETATM   18  C   UNK N   1      36.405  14.757   9.775  0.00  0.00     0.098 C 
BRANCH  18  19
HETATM   19  C   UNK N   1      35.227  15.712   9.529  0.00  0.00     0.044 A 
HETATM   20  C   UNK N   1      34.129  15.431   8.787  0.00  0.00     0.036 A 
HETATM   21  C   UNK N   1      33.715  14.293   8.133  0.00  0.00     0.036 A 
HETATM   22  C   UNK N   1      33.387  16.563   8.785  0.00  0.00     0.147 A 
HETATM   23  C   UNK N   1      32.474  14.371   7.484  0.00  0.00     0.108 A 
HETATM   24  N   UNK N   1      31.752  15.543   7.511  0.00  0.00    -0.310 N 
HETATM   25  N   UNK N   1      32.200  16.634   8.147  0.00  0.00    -0.284 N 
ATOM     26  HN  UNK N   1      30.852  15.581   7.033  1.00  0.00     0.186 HD
ATOM     27  HN  UNK N   1      31.656  17.497   8.150  1.00  0.00     0.188 HD
HETATM   28  N   UNK N   1      33.986  17.524   9.499  0.00  0.00    -0.283 N 
HETATM   29  N   UNK N   1      35.114  17.002   9.973  0.00  0.00    -0.302 N 
HETATM   30  H   UNK N   1      33.656  18.440   9.647  0.00  0.00     0.188 HD
ATOM     31  HN  UNK N   1      35.786  17.484  10.570  1.00  0.00     0.186 HD
ENDBRANCH  18  19
ENDBRANCH  15  18
ENDBRANCH  10  11
ENDBRANCH   5  10
TORSDOF 4
ENDMDL
MODEL 5
REMARK VINA RESULT:      -7.8      4.541     10.128
REMARK  4 active torsions:
REMARK  status: ('A' for Active; 'I' for Inactive)
REMARK    1  A    between atoms: C_9  and  C_30 
REMARK    2  A    between atoms: C_13  and  O_28 
REMARK    3  A    between atoms: C_16  and  C_30 
REMARK    4  A    between atoms: C_23  and  O_28 
ROOT
HETATM    1  C   UNK N   1      35.552  13.291   8.035  0.00  0.00    -0.058 A 
HETATM    2  C   UNK N   1      35.471  13.085   9.411  0.00  0.00     0.029 A 
HETATM    3  C   UNK N   1      35.061  14.145  10.240  0.00  0.00     0.047 A 
HETATM    4  C   UNK N   1      34.718  15.386   9.709  0.00  0.00     0.059 A 
HETATM    5  C   UNK N   1      34.783  15.612   8.351  0.00  0.00     0.078 A 
HETATM    6  C   UNK N   1      35.227  14.540   7.525  0.00  0.00     0.044 A 
HETATM    7  C   UNK N   1      35.967  12.196   7.109  0.00  0.00     0.048 C 
HETATM    8  C   UNK N   1      34.986  14.003  11.652  0.00  0.00     0.099 C 
HETATM    9  N   UNK N   1      34.906  13.946  12.803  0.00  0.00    -0.191 NA
ENDROOT
BRANCH   5  10
HETATM   10  O   UNK N   1      34.456  16.867   7.868  0.00  0.00    -0.309 OA
BRANCH  10  11
HETATM   11  C   UNK N   1      33.184  17.219   7.554  0.00  0.00     0.093 C 
HETATM   12  C   UNK N   1      32.600  16.950   6.294  0.00  0.00     0.045 C 
HETATM   13  C   UNK N   1      31.184  16.968   6.194  0.00  0.00     0.029 C 
HETATM   14 Br   UNK N   1      33.673  16.456   4.788  0.00  0.00    -0.048 Br
HETATM   15  C   UNK N   1      30.423  17.346   7.326  0.00  0.00    -0.051 C 
HETATM   16  C   UNK N   1      31.074  17.847   8.426  0.00  0.00     0.010 C 
HETATM   17  C   UNK N   1      32.403  17.777   8.539  0.00  0.00     0.039 C 
BRANCH  15  18
HETATM   18  C   UNK N   1      28.955  17.065   7.489  0.00  0.00     0.098 C 
BRANCH  18  19
HETATM   19  C   UNK N   1      28.107  18.344   7.419  0.00  0.00     0.044 A 
HETATM   20  C   UNK N   1      27.806  19.028   6.289  0.00  0.00     0.036 A 
HETATM   21  C   UNK N   1      28.074  18.791   4.960  0.00  0.00     0.036 A 
HETATM   22  C   UNK N   1      27.101  20.112   6.691  0.00  0.00     0.147 A 
HETATM   23  C   UNK N   1      27.560  19.726   4.051  0.00  0.00     0.108 A 
HETATM   24  N   UNK N   1      26.846  20.812   4.504  0.00  0.00    -0.310 N 
HETATM   25  N   UNK N   1      26.620  21.014   5.810  0.00  0.00    -0.284 N 
ATOM     26  HN  UNK N   1      26.479  21.481   3.827  1.00  0.00     0.186 HD
ATOM     27  HN  UNK N   1      26.097  21.829   6.130  1.00  0.00     0.188 HD
HETATM   28  N   UNK N   1      26.956  20.116   8.022  0.00  0.00    -0.283 N 
HETATM   29  N   UNK N   1      27.561  19.022   8.476  0.00  0.00    -0.302 N 
HETATM   30  H   UNK N   1      26.491  20.796   8.560  0.00  0.00     0.188 HD
ATOM     31  HN  UNK N   1      27.610  18.734   9.453  1.00  0.00     0.186 HD
ENDBRANCH  18  19
ENDBRANCH  15  18
ENDBRANCH  10  11
ENDBRANCH   5  10
TORSDOF 4
ENDMDL
MODEL 6
REMARK VINA RESULT:      -7.8      6.085     10.406
REMARK  4 active torsions:
REMARK  status: ('A' for Active; 'I' for Inactive)
REMARK    1  A    between atoms: C_9  and  C_30 
REMARK    2  A    between atoms: C_13  and  O_28 
REMARK    3  A    between atoms: C_16  and  C_30 
REMARK    4  A    between atoms: C_23  and  O_28 
ROOT
HETATM    1  C   UNK N   1      22.924  12.477  10.855  0.00  0.00    -0.058 A 
HETATM    2  C   UNK N   1      24.063  12.659  10.072  0.00  0.00     0.029 A 
HETATM    3  C   UNK N   1      23.933  13.233   8.795  0.00  0.00     0.047 A 
HETATM    4  C   UNK N   1      22.693  13.638   8.308  0.00  0.00     0.059 A 
HETATM    5  C   UNK N   1      21.553  13.476   9.065  0.00  0.00     0.078 A 
HETATM    6  C   UNK N   1      21.693  12.868  10.346  0.00  0.00     0.044 A 
HETATM    7  C   UNK N   1      23.007  11.887  12.223  0.00  0.00     0.048 C 
HETATM    8  C   UNK N   1      25.055  13.417   7.942  0.00  0.00     0.099 C 
HETATM    9  N   UNK N   1      25.928  13.592   7.207  0.00  0.00    -0.191 NA
ENDROOT
BRANCH   5  10
HETATM   10  O   UNK N   1      20.338  13.871   8.534  0.00  0.00    -0.309 OA
BRANCH  10  11
HETATM   11  C   UNK N   1      20.234  14.485   7.329  0.00  0.00     0.093 C 
HETATM   12  C   UNK N   1      20.163  15.891   7.185  0.00  0.00     0.045 C 
HETATM   13  C   UNK N   1      20.473  16.452   5.918  0.00  0.00     0.029 C 
HETATM   14 Br   UNK N   1      19.778  17.023   8.680  0.00  0.00    -0.048 Br
HETATM   15  C   UNK N   1      20.744  15.584   4.834  0.00  0.00    -0.051 C 
HETATM   16  C   UNK N   1      20.532  14.236   4.993  0.00  0.00     0.010 C 
HETATM   17  C   UNK N   1      20.296  13.707   6.196  0.00  0.00     0.039 C 
BRANCH  15  18
HETATM   18  C   UNK N   1      21.431  16.007   3.565  0.00  0.00     0.098 C 
BRANCH  18  19
HETATM   19  C   UNK N   1      20.652  17.101   2.819  0.00  0.00     0.044 A 
HETATM   20  C   UNK N   1      20.986  18.413   2.774  0.00  0.00     0.036 A 
HETATM   21  C   UNK N   1      22.058  19.117   3.272  0.00  0.00     0.036 A 
HETATM   22  C   UNK N   1      20.001  19.019   2.069  0.00  0.00     0.147 A 
HETATM   23  C   UNK N   1      22.079  20.490   2.990  0.00  0.00     0.108 A 
HETATM   24  N   UNK N   1      21.058  21.064   2.267  0.00  0.00    -0.310 N 
HETATM   25  N   UNK N   1      20.023  20.344   1.813  0.00  0.00    -0.284 N 
ATOM     26  HN  UNK N   1      21.091  22.065   2.072  1.00  0.00     0.186 HD
ATOM     27  HN  UNK N   1      19.270  20.786   1.287  1.00  0.00     0.188 HD
HETATM   28  N   UNK N   1      19.081  18.129   1.678  0.00  0.00    -0.283 N 
HETATM   29  N   UNK N   1      19.483  16.942   2.124  0.00  0.00    -0.302 N 
HETATM   30  H   UNK N   1      18.265  18.316   1.160  0.00  0.00     0.188 HD
ATOM     31  HN  UNK N   1      18.999  16.057   1.973  1.00  0.00     0.186 HD
ENDBRANCH  18  19
ENDBRANCH  15  18
ENDBRANCH  10  11
ENDBRANCH   5  10
TORSDOF 4
ENDMDL
MODEL 7
REMARK VINA RESULT:      -7.6      5.292      7.751
REMARK  4 active torsions:
REMARK  status: ('A' for Active; 'I' for Inactive)
REMARK    1  A    between atoms: C_9  and  C_30 
REMARK    2  A    between atoms: C_13  and  O_28 
REMARK    3  A    between atoms: C_16  and  C_30 
REMARK    4  A    between atoms: C_23  and  O_28 
ROOT
HETATM    1  C   UNK N   1      25.187  16.809   4.448  0.00  0.00    -0.058 A 
HETATM    2  C   UNK N   1      25.661  17.947   3.797  0.00  0.00     0.029 A 
HETATM    3  C   UNK N   1      24.763  18.984   3.487  0.00  0.00     0.047 A 
HETATM    4  C   UNK N   1      23.417  18.902   3.835  0.00  0.00     0.059 A 
HETATM    5  C   UNK N   1      22.926  17.791   4.485  0.00  0.00     0.078 A 
HETATM    6  C   UNK N   1      23.839  16.735   4.770  0.00  0.00     0.044 A 
HETATM    7  C   UNK N   1      26.100  15.687   4.815  0.00  0.00     0.048 C 
HETATM    8  C   UNK N   1      25.183  20.155   2.799  0.00  0.00     0.099 C 
HETATM    9  N   UNK N   1      25.466  21.127   2.244  0.00  0.00    -0.191 NA
ENDROOT
BRANCH   5  10
HETATM   10  O   UNK N   1      21.577  17.740   4.792  0.00  0.00    -0.309 OA
BRANCH  10  11
HETATM   11  C   UNK N   1      21.051  16.800   5.617  0.00  0.00     0.093 C 
HETATM   12  C   UNK N   1      20.566  15.555   5.154  0.00  0.00     0.045 C 
HETATM   13  C   UNK N   1      20.429  14.498   6.092  0.00  0.00     0.029 C 
HETATM   14 Br   UNK N   1      20.215  15.255   3.296  0.00  0.00    -0.048 Br
HETATM   15  C   UNK N   1      20.689  14.759   7.458  0.00  0.00    -0.051 C 
HETATM   16  C   UNK N   1      20.896  16.056   7.859  0.00  0.00     0.010 C 
HETATM   17  C   UNK N   1      21.079  17.037   6.971  0.00  0.00     0.039 C 
BRANCH  15  18
HETATM   18  C   UNK N   1      20.943  13.693   8.488  0.00  0.00     0.098 C 
BRANCH  18  19
HETATM   19  C   UNK N   1      22.442  13.486   8.754  0.00  0.00     0.044 A 
HETATM   20  C   UNK N   1      22.977  12.980   9.891  0.00  0.00     0.036 A 
HETATM   21  C   UNK N   1      22.412  12.473  11.038  0.00  0.00     0.036 A 
HETATM   22  C   UNK N   1      24.319  13.034   9.721  0.00  0.00     0.147 A 
HETATM   23  C   UNK N   1      23.306  12.000  12.009  0.00  0.00     0.108 A 
HETATM   24  N   UNK N   1      24.664  12.071  11.793  0.00  0.00    -0.310 N 
HETATM   25  N   UNK N   1      25.173  12.588  10.666  0.00  0.00    -0.284 N 
ATOM     26  HN  UNK N   1      25.299  11.722  12.511  1.00  0.00     0.186 HD
ATOM     27  HN  UNK N   1      26.182  12.642  10.525  1.00  0.00     0.188 HD
HETATM   28  N   UNK N   1      24.626  13.549   8.523  0.00  0.00    -0.283 N 
HETATM   29  N   UNK N   1      23.473  13.816   7.916  0.00  0.00    -0.302 N 
HETATM   30  H   UNK N   1      25.529  13.699   8.162  0.00  0.00     0.188 HD
ATOM     31  HN  UNK N   1      23.374  14.204   6.978  1.00  0.00     0.186 HD
ENDBRANCH  18  19
ENDBRANCH  15  18
ENDBRANCH  10  11
ENDBRANCH   5  10
TORSDOF 4
ENDMDL
MODEL 8
REMARK VINA RESULT:      -7.5     10.653     14.305
REMARK  4 active torsions:
REMARK  status: ('A' for Active; 'I' for Inactive)
REMARK    1  A    between atoms: C_9  and  C_30 
REMARK    2  A    between atoms: C_13  and  O_28 
REMARK    3  A    between atoms: C_16  and  C_30 
REMARK    4  A    between atoms: C_23  and  O_28 
ROOT
HETATM    1  C   UNK N   1      30.078  20.918  -6.182  0.00  0.00    -0.058 A 
HETATM    2  C   UNK N   1      31.170  20.078  -5.969  0.00  0.00     0.029 A 
HETATM    3  C   UNK N   1      31.925  20.220  -4.791  0.00  0.00     0.047 A 
HETATM    4  C   UNK N   1      31.592  21.171  -3.830  0.00  0.00     0.059 A 
HETATM    5  C   UNK N   1      30.513  22.009  -4.014  0.00  0.00     0.078 A 
HETATM    6  C   UNK N   1      29.772  21.874  -5.223  0.00  0.00     0.044 A 
HETATM    7  C   UNK N   1      29.234  20.799  -7.407  0.00  0.00     0.048 C 
HETATM    8  C   UNK N   1      33.065  19.411  -4.532  0.00  0.00     0.099 C 
HETATM    9  N   UNK N   1      33.997  18.783  -4.268  0.00  0.00    -0.191 NA
ENDROOT
BRANCH   5  10
HETATM   10  O   UNK N   1      30.230  22.954  -3.044  0.00  0.00    -0.309 OA
BRANCH  10  11
HETATM   11  C   UNK N   1      29.268  23.897  -3.202  0.00  0.00     0.093 C 
HETATM   12  C   UNK N   1      29.493  25.121  -3.875  0.00  0.00     0.045 C 
HETATM   13  C   UNK N   1      28.366  25.841  -4.352  0.00  0.00     0.029 C 
HETATM   14 Br   UNK N   1      31.267  25.739  -4.244  0.00  0.00    -0.048 Br
HETATM   15  C   UNK N   1      27.070  25.358  -4.053  0.00  0.00    -0.051 C 
HETATM   16  C   UNK N   1      26.937  24.313  -3.173  0.00  0.00     0.010 C 
HETATM   17  C   UNK N   1      27.995  23.604  -2.771  0.00  0.00     0.039 C 
BRANCH  15  18
HETATM   18  C   UNK N   1      25.822  25.785  -4.777  0.00  0.00     0.098 C 
BRANCH  18  19
HETATM   19  C   UNK N   1      25.926  25.567  -6.294  0.00  0.00     0.044 A 
HETATM   20  C   UNK N   1      25.922  24.365  -6.918  0.00  0.00     0.036 A 
HETATM   21  C   UNK N   1      25.769  23.078  -6.455  0.00  0.00     0.036 A 
HETATM   22  C   UNK N   1      26.095  24.633  -8.234  0.00  0.00     0.147 A 
HETATM   23  C   UNK N   1      25.786  22.067  -7.426  0.00  0.00     0.108 A 
HETATM   24  N   UNK N   1      25.963  22.385  -8.754  0.00  0.00    -0.310 N 
HETATM   25  N   UNK N   1      26.124  23.652  -9.161  0.00  0.00    -0.284 N 
ATOM     26  HN  UNK N   1      25.973  21.636  -9.446  1.00  0.00     0.186 HD
ATOM     27  HN  UNK N   1      26.262  23.871 -10.147  1.00  0.00     0.188 HD
HETATM   28  N   UNK N   1      26.203  25.952  -8.439  0.00  0.00    -0.283 N 
HETATM   29  N   UNK N   1      26.085  26.535  -7.250  0.00  0.00    -0.302 N 
HETATM   30  H   UNK N   1      26.341  26.402  -9.303  0.00  0.00     0.188 HD
ATOM     31  HN  UNK N   1      26.108  27.540  -7.077  1.00  0.00     0.186 HD
ENDBRANCH  18  19
ENDBRANCH  15  18
ENDBRANCH  10  11
ENDBRANCH   5  10
TORSDOF 4
ENDMDL
MODEL 9
REMARK VINA RESULT:      -7.4      4.753      6.252
REMARK  4 active torsions:
REMARK  status: ('A' for Active; 'I' for Inactive)
REMARK    1  A    between atoms: C_9  and  C_30 
REMARK    2  A    between atoms: C_13  and  O_28 
REMARK    3  A    between atoms: C_16  and  C_30 
REMARK    4  A    between atoms: C_23  and  O_28 
ROOT
HETATM    1  C   UNK N   1      23.821  12.591   9.855  0.00  0.00    -0.058 A 
HETATM    2  C   UNK N   1      22.566  13.109  10.172  0.00  0.00     0.029 A 
HETATM    3  C   UNK N   1      21.721  13.543   9.135  0.00  0.00     0.047 A 
HETATM    4  C   UNK N   1      22.108  13.448   7.800  0.00  0.00     0.059 A 
HETATM    5  C   UNK N   1      23.340  12.933   7.461  0.00  0.00     0.078 A 
HETATM    6  C   UNK N   1      24.198  12.522   8.521  0.00  0.00     0.044 A 
HETATM    7  C   UNK N   1      24.750  12.102  10.915  0.00  0.00     0.048 C 
HETATM    8  C   UNK N   1      20.443  14.106   9.399  0.00  0.00     0.099 C 
HETATM    9  N   UNK N   1      19.397  14.570   9.553  0.00  0.00    -0.191 NA
ENDROOT
BRANCH   5  10
HETATM   10  O   UNK N   1      23.693  12.877   6.124  0.00  0.00    -0.309 OA
BRANCH  10  11
HETATM   11  C   UNK N   1      24.643  13.682   5.586  0.00  0.00     0.093 C 
HETATM   12  C   UNK N   1      24.381  15.006   5.165  0.00  0.00     0.045 C 
HETATM   13  C   UNK N   1      25.480  15.892   5.013  0.00  0.00     0.029 C 
HETATM   14 Br   UNK N   1      22.589  15.634   4.920  0.00  0.00    -0.048 Br
HETATM   15  C   UNK N   1      26.791  15.391   5.194  0.00  0.00    -0.051 C 
HETATM   16  C   UNK N   1      26.971  14.038   5.339  0.00  0.00     0.010 C 
HETATM   17  C   UNK N   1      25.937  13.216   5.537  0.00  0.00     0.039 C 
BRANCH  15  18
HETATM   18  C   UNK N   1      28.000  16.255   5.428  0.00  0.00     0.098 C 
BRANCH  18  19
HETATM   19  C   UNK N   1      28.093  16.744   6.881  0.00  0.00     0.044 A 
HETATM   20  C   UNK N   1      29.232  17.106   7.519  0.00  0.00     0.036 A 
HETATM   21  C   UNK N   1      30.539  17.209   7.100  0.00  0.00     0.036 A 
HETATM   22  C   UNK N   1      28.865  17.405   8.787  0.00  0.00     0.147 A 
HETATM   23  C   UNK N   1      31.459  17.659   8.057  0.00  0.00     0.108 A 
HETATM   24  N   UNK N   1      31.041  17.955   9.334  0.00  0.00    -0.310 N 
HETATM   25  N   UNK N   1      29.759  17.826   9.705  0.00  0.00    -0.284 N 
ATOM     26  HN  UNK N   1      31.725  18.282  10.017  1.00  0.00     0.186 HD
ATOM     27  HN  UNK N   1      29.467  18.041  10.659  1.00  0.00     0.188 HD
HETATM   28  N   UNK N   1      27.545  17.245   8.949  0.00  0.00    -0.283 N 
HETATM   29  N   UNK N   1      27.061  16.851   7.775  0.00  0.00    -0.302 N 
HETATM   30  H   UNK N   1      27.033  17.391   9.777  0.00  0.00     0.188 HD
ATOM     31  HN  UNK N   1      26.079  16.661   7.572  1.00  0.00     0.186 HD
ENDBRANCH  18  19
ENDBRANCH  15  18
ENDBRANCH  10  11
ENDBRANCH   5  10
TORSDOF 4
ENDMDL
