MODEL 1
REMARK VINA RESULT:      -8.3      0.000      0.000
REMARK  5 active torsions:
REMARK  status: ('A' for Active; 'I' for Inactive)
REMARK    1  A    between atoms: C_3  and  O_31 
REMARK    2  A    between atoms: C_5  and  C_6 
REMARK    3  A    between atoms: C_18  and  N_19 
REMARK    4  A    between atoms: N_20  and  C_22 
REMARK    5  A    between atoms: C_26  and  C_29 
ROOT
HETATM    1  C   UNK N   1      28.997  18.655   6.870  0.00  0.00     0.063 C 
HETATM    2  C   UNK N   1      29.785  17.678   8.881  0.00  0.00     0.149 C 
HETATM    3  C   UNK N   1      28.592  18.448   8.345  0.00  0.00     0.102 C 
HETATM    4  N   UNK N   1      30.398  17.117   7.691  0.00  0.00    -0.364 N 
HETATM    5  C   UNK N   1      29.629  17.327   6.525  0.00  0.00     0.136 C 
ENDROOT
BRANCH   4   6
HETATM    6  C   UNK N   1      31.805  17.055   7.599  0.00  0.00     0.106 A 
HETATM    7  C   UNK N   1      32.497  16.530   8.644  0.00  0.00     0.078 A 
HETATM    8  C   UNK N   1      33.859  16.399   8.592  0.00  0.00     0.048 A 
HETATM    9  N   UNK N   1      34.530  16.807   7.475  0.00  0.00    -0.351 N 
HETATM   10  C   UNK N   1      33.846  17.392   6.447  0.00  0.00     0.182 A 
ATOM     11  HN  UNK N   1      35.540  16.676   7.409  1.00  0.00     0.166 HD
HETATM   12  N   UNK N   1      32.485  17.504   6.499  0.00  0.00    -0.339 N 
ATOM     13  HN  UNK N   1      31.976  17.921   5.719  1.00  0.00     0.168 HD
BRANCH   8  14
HETATM   14  C   UNK N   1      34.453  15.595   9.661  0.00  0.00     0.006 A 
HETATM   15  C   UNK N   1      35.298  16.237  10.582  0.00  0.00     0.019 A 
HETATM   16  C   UNK N   1      35.637  15.628  11.771  0.00  0.00     0.057 A 
HETATM   17  C   UNK N   1      35.104  14.381  12.061  0.00  0.00     0.141 A 
HETATM   18  N   UNK N   1      34.326  13.735  11.137  0.00  0.00    -0.346 N 
HETATM   19  C   UNK N   1      33.997  14.311   9.947  0.00  0.00     0.103 A 
ATOM     20  HN  UNK N   1      33.984  12.796  11.344  1.00  0.00     0.167 HD
BRANCH  17  21
HETATM   21  O   UNK N   1      35.329  13.851  13.278  0.00  0.00    -0.341 OA
HETATM   22  C   UNK N   1      36.412  14.207  14.043  0.00  0.00     0.211 C 
ENDBRANCH  17  21
ENDBRANCH   8  14
ENDBRANCH   4   6
BRANCH   3  23
HETATM   23  N   UNK N   1      27.431  17.579   8.473  0.00  0.00    -0.424 N 
HETATM   24  H   UNK N   1      26.563  17.296   8.017  0.00  0.00     0.150 HD
HETATM   25  H   UNK N   1      27.518  17.058   9.345  0.00  0.00     0.150 HD
ENDBRANCH   3  23
BRANCH   1  26
HETATM   26  C   UNK N   1      28.026  19.055   5.803  0.00  0.00    -0.009 A 
HETATM   27  C   UNK N   1      27.481  20.346   5.650  0.00  0.00     0.126 A 
HETATM   28  C   UNK N   1      26.541  20.582   4.641  0.00  0.00     0.088 A 
HETATM   29  F   UNK N   1      27.852  21.378   6.446  0.00  0.00    -0.205 F 
HETATM   30  C   UNK N   1      26.145  19.547   3.786  0.00  0.00     0.157 A 
HETATM   31  F   UNK N   1      25.220  19.779   2.827  0.00  0.00    -0.203 F 
HETATM   32  C   UNK N   1      26.703  18.277   3.921  0.00  0.00     0.155 A 
HETATM   33  C   UNK N   1      27.637  18.040   4.915  0.00  0.00     0.056 A 
HETATM   34  F   UNK N   1      26.333  17.265   3.101  0.00  0.00    -0.203 F 
ENDBRANCH   1  26
TORSDOF 5
ENDMDL
MODEL 2
REMARK VINA RESULT:      -8.1      7.752     11.345
REMARK  5 active torsions:
REMARK  status: ('A' for Active; 'I' for Inactive)
REMARK    1  A    between atoms: C_3  and  O_31 
REMARK    2  A    between atoms: C_5  and  C_6 
REMARK    3  A    between atoms: C_18  and  N_19 
REMARK    4  A    between atoms: N_20  and  C_22 
REMARK    5  A    between atoms: C_26  and  C_29 
ROOT
HETATM    1  C   UNK N   1      24.274  13.379   8.149  0.00  0.00     0.063 C 
HETATM    2  C   UNK N   1      25.292  13.244   6.012  0.00  0.00     0.149 C 
HETATM    3  C   UNK N   1      24.824  12.346   7.143  0.00  0.00     0.102 C 
HETATM    4  N   UNK N   1      24.552  14.475   6.219  0.00  0.00    -0.364 N 
HETATM    5  C   UNK N   1      23.583  14.369   7.242  0.00  0.00     0.136 C 
ENDROOT
BRANCH   4   6
HETATM    6  C   UNK N   1      25.185  15.713   5.983  0.00  0.00     0.106 A 
HETATM    7  C   UNK N   1      24.528  16.642   5.238  0.00  0.00     0.078 A 
HETATM    8  C   UNK N   1      25.070  17.879   5.016  0.00  0.00     0.048 A 
HETATM    9  N   UNK N   1      26.292  18.181   5.547  0.00  0.00    -0.351 N 
HETATM   10  C   UNK N   1      26.984  17.231   6.244  0.00  0.00     0.182 A 
ATOM     11  HN  UNK N   1      26.687  19.113   5.422  1.00  0.00     0.166 HD
HETATM   12  N   UNK N   1      26.429  16.004   6.475  0.00  0.00    -0.339 N 
ATOM     13  HN  UNK N   1      26.940  15.305   7.015  1.00  0.00     0.168 HD
BRANCH   8  14
HETATM   14  C   UNK N   1      24.165  18.863   4.423  0.00  0.00     0.006 A 
HETATM   15  C   UNK N   1      24.725  19.918   3.682  0.00  0.00     0.019 A 
HETATM   16  C   UNK N   1      23.942  20.690   2.851  0.00  0.00     0.057 A 
HETATM   17  C   UNK N   1      22.593  20.388   2.731  0.00  0.00     0.141 A 
HETATM   18  N   UNK N   1      22.040  19.396   3.497  0.00  0.00    -0.346 N 
HETATM   19  C   UNK N   1      22.794  18.636   4.341  0.00  0.00     0.103 A 
ATOM     20  HN  UNK N   1      21.037  19.222   3.435  1.00  0.00     0.167 HD
BRANCH  17  21
HETATM   21  O   UNK N   1      21.863  21.056   1.818  0.00  0.00    -0.341 OA
HETATM   22  C   UNK N   1      20.856  20.456   1.104  0.00  0.00     0.211 C 
ENDBRANCH  17  21
ENDBRANCH   8  14
ENDBRANCH   4   6
BRANCH   3  23
HETATM   23  N   UNK N   1      23.771  11.497   6.606  0.00  0.00    -0.424 N 
HETATM   24  H   UNK N   1      22.818  11.502   6.241  0.00  0.00     0.150 HD
HETATM   25  H   UNK N   1      24.114  10.536   6.588  0.00  0.00     0.150 HD
ENDBRANCH   3  23
BRANCH   1  26
HETATM   26  C   UNK N   1      23.376  13.013   9.290  0.00  0.00    -0.009 A 
HETATM   27  C   UNK N   1      23.753  12.219  10.392  0.00  0.00     0.126 A 
HETATM   28  C   UNK N   1      22.805  11.904  11.371  0.00  0.00     0.088 A 
HETATM   29  F   UNK N   1      25.018  11.758  10.542  0.00  0.00    -0.205 F 
HETATM   30  C   UNK N   1      21.491  12.376  11.262  0.00  0.00     0.157 A 
HETATM   31  F   UNK N   1      20.576  12.049  12.203  0.00  0.00    -0.203 F 
HETATM   32  C   UNK N   1      21.126  13.183  10.186  0.00  0.00     0.155 A 
HETATM   33  C   UNK N   1      22.062  13.501   9.218  0.00  0.00     0.056 A 
HETATM   34  F   UNK N   1      19.860  13.650  10.068  0.00  0.00    -0.203 F 
ENDBRANCH   1  26
TORSDOF 5
ENDMDL
MODEL 3
REMARK VINA RESULT:      -8.0      3.275      4.793
REMARK  5 active torsions:
REMARK  status: ('A' for Active; 'I' for Inactive)
REMARK    1  A    between atoms: C_3  and  O_31 
REMARK    2  A    between atoms: C_5  and  C_6 
REMARK    3  A    between atoms: C_18  and  N_19 
REMARK    4  A    between atoms: N_20  and  C_22 
REMARK    5  A    between atoms: C_26  and  C_29 
ROOT
HETATM    1  C   UNK N   1      28.817  18.894   7.171  0.00  0.00     0.063 C 
HETATM    2  C   UNK N   1      29.820  18.169   9.194  0.00  0.00     0.149 C 
HETATM    3  C   UNK N   1      28.576  18.882   8.696  0.00  0.00     0.102 C 
HETATM    4  N   UNK N   1      30.299  17.453   8.026  0.00  0.00    -0.364 N 
HETATM    5  C   UNK N   1      29.407  17.524   6.932  0.00  0.00     0.136 C 
ENDROOT
BRANCH   4   6
HETATM    6  C   UNK N   1      31.687  17.360   7.790  0.00  0.00     0.106 A 
HETATM    7  C   UNK N   1      32.110  16.695   6.682  0.00  0.00     0.078 A 
HETATM    8  C   UNK N   1      33.442  16.614   6.375  0.00  0.00     0.048 A 
HETATM    9  N   UNK N   1      34.357  17.207   7.198  0.00  0.00    -0.351 N 
HETATM   10  C   UNK N   1      33.942  17.823   8.345  0.00  0.00     0.182 A 
ATOM     11  HN  UNK N   1      35.349  17.188   6.957  1.00  0.00     0.166 HD
HETATM   12  N   UNK N   1      32.610  17.914   8.635  0.00  0.00    -0.339 N 
ATOM     13  HN  UNK N   1      32.304  18.395   9.482  1.00  0.00     0.168 HD
BRANCH   8  14
HETATM   14  C   UNK N   1      33.747  16.099   5.040  0.00  0.00     0.006 A 
HETATM   15  C   UNK N   1      34.551  14.951   4.941  0.00  0.00     0.019 A 
HETATM   16  C   UNK N   1      34.623  14.240   3.761  0.00  0.00     0.057 A 
HETATM   17  C   UNK N   1      33.860  14.658   2.681  0.00  0.00     0.141 A 
HETATM   18  N   UNK N   1      33.122  15.809   2.764  0.00  0.00    -0.346 N 
HETATM   19  C   UNK N   1      33.056  16.537   3.914  0.00  0.00     0.103 A 
ATOM     20  HN  UNK N   1      32.608  16.130   1.943  1.00  0.00     0.167 HD
BRANCH  17  21
HETATM   21  O   UNK N   1      33.829  13.886   1.578  0.00  0.00    -0.341 OA
HETATM   22  C   UNK N   1      33.020  12.782   1.479  0.00  0.00     0.211 C 
ENDBRANCH  17  21
ENDBRANCH   8  14
ENDBRANCH   4   6
BRANCH   3  23
HETATM   23  N   UNK N   1      27.435  18.053   9.058  0.00  0.00    -0.424 N 
HETATM   24  H   UNK N   1      26.675  17.950   9.731  0.00  0.00     0.150 HD
HETATM   25  H   UNK N   1      27.371  17.288   8.385  0.00  0.00     0.150 HD
ENDBRANCH   3  23
BRANCH   1  26
HETATM   26  C   UNK N   1      27.735  19.169   6.173  0.00  0.00    -0.009 A 
HETATM   27  C   UNK N   1      27.214  20.446   5.879  0.00  0.00     0.126 A 
HETATM   28  C   UNK N   1      26.166  20.566   4.961  0.00  0.00     0.088 A 
HETATM   29  F   UNK N   1      27.709  21.570   6.451  0.00  0.00    -0.205 F 
HETATM   30  C   UNK N   1      25.638  19.431   4.335  0.00  0.00     0.157 A 
HETATM   31  F   UNK N   1      24.611  19.555   3.464  0.00  0.00    -0.203 F 
HETATM   32  C   UNK N   1      26.172  18.172   4.606  0.00  0.00     0.155 A 
HETATM   33  C   UNK N   1      27.212  18.049   5.510  0.00  0.00     0.056 A 
HETATM   34  F   UNK N   1      25.675  17.064   4.007  0.00  0.00    -0.203 F 
ENDBRANCH   1  26
TORSDOF 5
ENDMDL
MODEL 4
REMARK VINA RESULT:      -7.9      6.013      7.925
REMARK  5 active torsions:
REMARK  status: ('A' for Active; 'I' for Inactive)
REMARK    1  A    between atoms: C_3  and  O_31 
REMARK    2  A    between atoms: C_5  and  C_6 
REMARK    3  A    between atoms: C_18  and  N_19 
REMARK    4  A    between atoms: N_20  and  C_22 
REMARK    5  A    between atoms: C_26  and  C_29 
ROOT
HETATM    1  C   UNK N   1      24.540  13.581   8.056  0.00  0.00     0.063 C 
HETATM    2  C   UNK N   1      25.713  13.538   5.995  0.00  0.00     0.149 C 
HETATM    3  C   UNK N   1      25.106  12.592   7.014  0.00  0.00     0.102 C 
HETATM    4  N   UNK N   1      25.033  14.796   6.244  0.00  0.00    -0.364 N 
HETATM    5  C   UNK N   1      23.982  14.678   7.181  0.00  0.00     0.136 C 
ENDROOT
BRANCH   4   6
HETATM    6  C   UNK N   1      25.755  16.005   6.153  0.00  0.00     0.106 A 
HETATM    7  C   UNK N   1      26.914  16.118   6.854  0.00  0.00     0.078 A 
HETATM    8  C   UNK N   1      27.683  17.248   6.767  0.00  0.00     0.048 A 
HETATM    9  N   UNK N   1      27.275  18.276   5.967  0.00  0.00    -0.351 N 
HETATM   10  C   UNK N   1      26.081  18.193   5.308  0.00  0.00     0.182 A 
ATOM     11  HN  UNK N   1      27.860  19.106   5.863  1.00  0.00     0.166 HD
HETATM   12  N   UNK N   1      25.327  17.056   5.387  0.00  0.00    -0.339 N 
ATOM     13  HN  UNK N   1      24.447  16.989   4.875  1.00  0.00     0.168 HD
BRANCH   8  14
HETATM   14  C   UNK N   1      29.016  17.146   7.361  0.00  0.00     0.006 A 
HETATM   15  C   UNK N   1      30.110  16.939   6.504  0.00  0.00     0.019 A 
HETATM   16  C   UNK N   1      31.400  17.141   6.946  0.00  0.00     0.057 A 
HETATM   17  C   UNK N   1      31.602  17.585   8.244  0.00  0.00     0.141 A 
HETATM   18  N   UNK N   1      30.536  17.731   9.094  0.00  0.00    -0.346 N 
HETATM   19  C   UNK N   1      29.256  17.516   8.682  0.00  0.00     0.103 A 
ATOM     20  HN  UNK N   1      30.707  18.008  10.061  1.00  0.00     0.167 HD
BRANCH  17  21
HETATM   21  O   UNK N   1      32.851  17.909   8.627  0.00  0.00    -0.341 OA
HETATM   22  C   UNK N   1      33.885  18.025   7.732  0.00  0.00     0.211 C 
ENDBRANCH  17  21
ENDBRANCH   8  14
ENDBRANCH   4   6
BRANCH   3  23
HETATM   23  N   UNK N   1      24.049  11.855   6.336  0.00  0.00    -0.424 N 
HETATM   24  H   UNK N   1      23.069  11.578   6.401  0.00  0.00     0.150 HD
HETATM   25  H   UNK N   1      24.431  11.473   5.471  0.00  0.00     0.150 HD
ENDBRANCH   3  23
BRANCH   1  26
HETATM   26  C   UNK N   1      23.536  13.190   9.095  0.00  0.00    -0.009 A 
HETATM   27  C   UNK N   1      23.785  12.310  10.168  0.00  0.00     0.126 A 
HETATM   28  C   UNK N   1      22.746  11.984  11.046  0.00  0.00     0.088 A 
HETATM   29  F   UNK N   1      25.011  11.777  10.386  0.00  0.00    -0.205 F 
HETATM   30  C   UNK N   1      21.469  12.528  10.866  0.00  0.00     0.157 A 
HETATM   31  F   UNK N   1      20.465  12.190  11.707  0.00  0.00    -0.203 F 
HETATM   32  C   UNK N   1      21.230  13.418   9.821  0.00  0.00     0.155 A 
HETATM   33  C   UNK N   1      22.257  13.748   8.952  0.00  0.00     0.056 A 
HETATM   34  F   UNK N   1      20.001  13.956   9.634  0.00  0.00    -0.203 F 
ENDBRANCH   1  26
TORSDOF 5
ENDMDL
MODEL 5
REMARK VINA RESULT:      -7.8      2.457      3.387
REMARK  5 active torsions:
REMARK  status: ('A' for Active; 'I' for Inactive)
REMARK    1  A    between atoms: C_3  and  O_31 
REMARK    2  A    between atoms: C_5  and  C_6 
REMARK    3  A    between atoms: C_18  and  N_19 
REMARK    4  A    between atoms: N_20  and  C_22 
REMARK    5  A    between atoms: C_26  and  C_29 
ROOT
HETATM    1  C   UNK N   1      28.930  17.240   5.607  0.00  0.00     0.063 C 
HETATM    2  C   UNK N   1      29.246  14.965   5.017  0.00  0.00     0.149 C 
HETATM    3  C   UNK N   1      28.210  15.875   5.650  0.00  0.00     0.102 C 
HETATM    4  N   UNK N   1      30.097  15.875   4.273  0.00  0.00    -0.364 N 
HETATM    5  C   UNK N   1      29.605  17.200   4.256  0.00  0.00     0.136 C 
ENDROOT
BRANCH   4   6
HETATM    6  C   UNK N   1      31.489  15.647   4.233  0.00  0.00     0.106 A 
HETATM    7  C   UNK N   1      32.253  16.143   5.243  0.00  0.00     0.078 A 
HETATM    8  C   UNK N   1      33.602  15.913   5.284  0.00  0.00     0.048 A 
HETATM    9  N   UNK N   1      34.187  15.177   4.293  0.00  0.00    -0.351 N 
HETATM   10  C   UNK N   1      33.434  14.729   3.244  0.00  0.00     0.182 A 
ATOM     11  HN  UNK N   1      35.184  14.964   4.335  1.00  0.00     0.166 HD
HETATM   12  N   UNK N   1      32.086  14.949   3.219  0.00  0.00    -0.339 N 
ATOM     13  HN  UNK N   1      31.524  14.593   2.445  1.00  0.00     0.168 HD
BRANCH   8  14
HETATM   14  C   UNK N   1      34.262  16.276   6.537  0.00  0.00     0.006 A 
HETATM   15  C   UNK N   1      34.073  17.578   7.033  0.00  0.00     0.019 A 
HETATM   16  C   UNK N   1      34.398  17.891   8.336  0.00  0.00     0.057 A 
HETATM   17  C   UNK N   1      34.886  16.890   9.163  0.00  0.00     0.141 A 
HETATM   18  N   UNK N   1      35.122  15.637   8.660  0.00  0.00    -0.346 N 
HETATM   19  C   UNK N   1      34.827  15.315   7.370  0.00  0.00     0.103 A 
ATOM     20  HN  UNK N   1      35.530  14.927   9.269  1.00  0.00     0.167 HD
BRANCH  17  21
HETATM   21  O   UNK N   1      35.075  17.167  10.467  0.00  0.00    -0.341 OA
HETATM   22  C   UNK N   1      35.525  16.226  11.358  0.00  0.00     0.211 C 
ENDBRANCH  17  21
ENDBRANCH   8  14
ENDBRANCH   4   6
BRANCH   3  23
HETATM   23  N   UNK N   1      27.037  15.852   4.787  0.00  0.00    -0.424 N 
HETATM   24  H   UNK N   1      26.278  15.261   4.448  0.00  0.00     0.150 HD
HETATM   25  H   UNK N   1      26.936  16.775   4.363  0.00  0.00     0.150 HD
ENDBRANCH   3  23
BRANCH   1  26
HETATM   26  C   UNK N   1      28.221  18.546   5.790  0.00  0.00    -0.009 A 
HETATM   27  C   UNK N   1      27.965  19.159   7.033  0.00  0.00     0.126 A 
HETATM   28  C   UNK N   1      27.246  20.358   7.075  0.00  0.00     0.088 A 
HETATM   29  F   UNK N   1      28.408  18.627   8.197  0.00  0.00    -0.205 F 
HETATM   30  C   UNK N   1      26.786  20.949   5.892  0.00  0.00     0.157 A 
HETATM   31  F   UNK N   1      26.073  22.097   5.944  0.00  0.00    -0.203 F 
HETATM   32  C   UNK N   1      27.062  20.356   4.662  0.00  0.00     0.155 A 
HETATM   33  C   UNK N   1      27.777  19.172   4.615  0.00  0.00     0.056 A 
HETATM   34  F   UNK N   1      26.626  20.917   3.508  0.00  0.00    -0.203 F 
ENDBRANCH   1  26
TORSDOF 5
ENDMDL
MODEL 6
REMARK VINA RESULT:      -7.7      1.247      2.091
REMARK  5 active torsions:
REMARK  status: ('A' for Active; 'I' for Inactive)
REMARK    1  A    between atoms: C_3  and  O_31 
REMARK    2  A    between atoms: C_5  and  C_6 
REMARK    3  A    between atoms: C_18  and  N_19 
REMARK    4  A    between atoms: N_20  and  C_22 
REMARK    5  A    between atoms: C_26  and  C_29 
ROOT
HETATM    1  C   UNK N   1      28.862  18.498   7.505  0.00  0.00     0.063 C 
HETATM    2  C   UNK N   1      29.742  17.239   9.311  0.00  0.00     0.149 C 
HETATM    3  C   UNK N   1      28.487  17.996   8.916  0.00  0.00     0.102 C 
HETATM    4  N   UNK N   1      30.388  16.954   8.043  0.00  0.00    -0.364 N 
HETATM    5  C   UNK N   1      29.595  17.310   6.929  0.00  0.00     0.136 C 
ENDROOT
BRANCH   4   6
HETATM    6  C   UNK N   1      31.794  17.022   7.950  0.00  0.00     0.106 A 
HETATM    7  C   UNK N   1      32.531  16.625   9.022  0.00  0.00     0.078 A 
HETATM    8  C   UNK N   1      33.899  16.622   8.973  0.00  0.00     0.048 A 
HETATM    9  N   UNK N   1      34.531  17.030   7.833  0.00  0.00    -0.351 N 
HETATM   10  C   UNK N   1      33.796  17.488   6.776  0.00  0.00     0.182 A 
ATOM     11  HN  UNK N   1      35.549  16.993   7.771  1.00  0.00     0.166 HD
HETATM   12  N   UNK N   1      32.431  17.472   6.826  0.00  0.00    -0.339 N 
ATOM     13  HN  UNK N   1      31.886  17.794   6.025  1.00  0.00     0.168 HD
BRANCH   8  14
HETATM   14  C   UNK N   1      34.564  15.940  10.083  0.00  0.00     0.006 A 
HETATM   15  C   UNK N   1      34.183  14.619  10.374  0.00  0.00     0.019 A 
HETATM   16  C   UNK N   1      34.964  13.821  11.183  0.00  0.00     0.057 A 
HETATM   17  C   UNK N   1      36.152  14.333  11.681  0.00  0.00     0.141 A 
HETATM   18  N   UNK N   1      36.493  15.639  11.442  0.00  0.00    -0.346 N 
HETATM   19  C   UNK N   1      35.723  16.449  10.663  0.00  0.00     0.103 A 
ATOM     20  HN  UNK N   1      37.344  16.014  11.859  1.00  0.00     0.167 HD
BRANCH  17  21
HETATM   21  O   UNK N   1      36.975  13.509  12.358  0.00  0.00    -0.341 OA
HETATM   22  C   UNK N   1      37.456  12.345  11.813  0.00  0.00     0.211 C 
ENDBRANCH  17  21
ENDBRANCH   8  14
ENDBRANCH   4   6
BRANCH   3  23
HETATM   23  N   UNK N   1      27.399  17.029   8.876  0.00  0.00    -0.424 N 
HETATM   24  H   UNK N   1      26.948  16.279   9.400  0.00  0.00     0.150 HD
HETATM   25  H   UNK N   1      26.902  17.145   7.992  0.00  0.00     0.150 HD
ENDBRANCH   3  23
BRANCH   1  26
HETATM   26  C   UNK N   1      27.853  19.007   6.522  0.00  0.00    -0.009 A 
HETATM   27  C   UNK N   1      27.389  18.292   5.399  0.00  0.00     0.126 A 
HETATM   28  C   UNK N   1      26.481  18.899   4.524  0.00  0.00     0.088 A 
HETATM   29  F   UNK N   1      27.786  17.023   5.144  0.00  0.00    -0.205 F 
HETATM   30  C   UNK N   1      26.032  20.203   4.762  0.00  0.00     0.157 A 
HETATM   31  F   UNK N   1      25.171  20.790   3.900  0.00  0.00    -0.203 F 
HETATM   32  C   UNK N   1      26.471  20.899   5.887  0.00  0.00     0.155 A 
HETATM   33  C   UNK N   1      27.366  20.301   6.757  0.00  0.00     0.056 A 
HETATM   34  F   UNK N   1      26.045  22.161   6.134  0.00  0.00    -0.203 F 
ENDBRANCH   1  26
TORSDOF 5
ENDMDL
MODEL 7
REMARK VINA RESULT:      -7.7      6.772     11.699
REMARK  5 active torsions:
REMARK  status: ('A' for Active; 'I' for Inactive)
REMARK    1  A    between atoms: C_3  and  O_31 
REMARK    2  A    between atoms: C_5  and  C_6 
REMARK    3  A    between atoms: C_18  and  N_19 
REMARK    4  A    between atoms: N_20  and  C_22 
REMARK    5  A    between atoms: C_26  and  C_29 
ROOT
HETATM    1  C   UNK N   1      35.493  11.719  14.902  0.00  0.00     0.063 C 
HETATM    2  C   UNK N   1      34.722  10.981  12.784  0.00  0.00     0.149 C 
HETATM    3  C   UNK N   1      34.699  10.569  14.245  0.00  0.00     0.102 C 
HETATM    4  N   UNK N   1      35.000  12.405  12.830  0.00  0.00    -0.364 N 
HETATM    5  C   UNK N   1      34.991  12.925  14.144  0.00  0.00     0.136 C 
ENDROOT
BRANCH   4   6
HETATM    6  C   UNK N   1      35.846  12.978  11.858  0.00  0.00     0.106 A 
HETATM    7  C   UNK N   1      35.291  13.790  10.919  0.00  0.00     0.078 A 
HETATM    8  C   UNK N   1      36.068  14.414   9.980  0.00  0.00     0.048 A 
HETATM    9  N   UNK N   1      37.419  14.212   9.985  0.00  0.00    -0.351 N 
HETATM   10  C   UNK N   1      37.974  13.349  10.888  0.00  0.00     0.182 A 
ATOM     11  HN  UNK N   1      38.012  14.704   9.316  1.00  0.00     0.166 HD
HETATM   12  N   UNK N   1      37.194  12.743  11.832  0.00  0.00    -0.339 N 
ATOM     13  HN  UNK N   1      37.616  12.116  12.518  1.00  0.00     0.168 HD
BRANCH   8  14
HETATM   14  C   UNK N   1      35.395  15.449   9.196  0.00  0.00     0.006 A 
HETATM   15  C   UNK N   1      35.208  15.224   7.821  0.00  0.00     0.019 A 
HETATM   16  C   UNK N   1      34.326  15.993   7.093  0.00  0.00     0.057 A 
HETATM   17  C   UNK N   1      33.597  16.975   7.748  0.00  0.00     0.141 A 
HETATM   18  N   UNK N   1      33.823  17.230   9.075  0.00  0.00    -0.346 N 
HETATM   19  C   UNK N   1      34.706  16.494   9.806  0.00  0.00     0.103 A 
ATOM     20  HN  UNK N   1      33.316  17.990   9.528  1.00  0.00     0.167 HD
BRANCH  17  21
HETATM   21  O   UNK N   1      32.641  17.632   7.063  0.00  0.00    -0.341 OA
HETATM   22  C   UNK N   1      32.319  17.314   5.767  0.00  0.00     0.211 C 
ENDBRANCH  17  21
ENDBRANCH   8  14
ENDBRANCH   4   6
BRANCH   3  23
HETATM   23  N   UNK N   1      33.306  10.563  14.666  0.00  0.00    -0.424 N 
HETATM   24  H   UNK N   1      32.443  11.108  14.658  0.00  0.00     0.150 HD
HETATM   25  H   UNK N   1      33.123   9.683  15.148  0.00  0.00     0.150 HD
ENDBRANCH   3  23
BRANCH   1  26
HETATM   26  C   UNK N   1      35.474  11.992  16.374  0.00  0.00    -0.009 A 
HETATM   27  C   UNK N   1      35.611  11.012  17.378  0.00  0.00     0.126 A 
HETATM   28  C   UNK N   1      35.524  11.387  18.723  0.00  0.00     0.088 A 
HETATM   29  F   UNK N   1      35.839   9.710  17.081  0.00  0.00    -0.205 F 
HETATM   30  C   UNK N   1      35.307  12.725  19.072  0.00  0.00     0.157 A 
HETATM   31  F   UNK N   1      35.203  13.076  20.374  0.00  0.00    -0.203 F 
HETATM   32  C   UNK N   1      35.198  13.697  18.079  0.00  0.00     0.155 A 
HETATM   33  C   UNK N   1      35.288  13.331  16.747  0.00  0.00     0.056 A 
HETATM   34  F   UNK N   1      34.991  14.997  18.399  0.00  0.00    -0.203 F 
ENDBRANCH   1  26
TORSDOF 5
ENDMDL
MODEL 8
REMARK VINA RESULT:      -7.6      2.827      4.832
REMARK  5 active torsions:
REMARK  status: ('A' for Active; 'I' for Inactive)
REMARK    1  A    between atoms: C_3  and  O_31 
REMARK    2  A    between atoms: C_5  and  C_6 
REMARK    3  A    between atoms: C_18  and  N_19 
REMARK    4  A    between atoms: N_20  and  C_22 
REMARK    5  A    between atoms: C_26  and  C_29 
ROOT
HETATM    1  C   UNK N   1      33.145  16.328   7.430  0.00  0.00     0.063 C 
HETATM    2  C   UNK N   1      34.855  16.509   9.062  0.00  0.00     0.149 C 
HETATM    3  C   UNK N   1      34.312  17.246   7.852  0.00  0.00     0.102 C 
HETATM    4  N   UNK N   1      33.748  15.667   9.480  0.00  0.00    -0.364 N 
HETATM    5  C   UNK N   1      32.559  15.926   8.763  0.00  0.00     0.136 C 
ENDROOT
BRANCH   4   6
HETATM    6  C   UNK N   1      34.008  14.364   9.954  0.00  0.00     0.106 A 
HETATM    7  C   UNK N   1      34.668  14.227  11.135  0.00  0.00     0.078 A 
HETATM    8  C   UNK N   1      34.906  12.989  11.669  0.00  0.00     0.048 A 
HETATM    9  N   UNK N   1      34.477  11.877  11.002  0.00  0.00    -0.351 N 
HETATM   10  C   UNK N   1      33.869  12.006   9.786  0.00  0.00     0.182 A 
ATOM     11  HN  UNK N   1      34.613  10.952  11.411  1.00  0.00     0.166 HD
HETATM   12  N   UNK N   1      33.621  13.246   9.267  0.00  0.00    -0.339 N 
ATOM     13  HN  UNK N   1      33.145  13.338   8.368  1.00  0.00     0.168 HD
BRANCH   8  14
HETATM   14  C   UNK N   1      35.391  12.985  13.049  0.00  0.00     0.006 A 
HETATM   15  C   UNK N   1      36.326  13.965  13.427  0.00  0.00     0.019 A 
HETATM   16  C   UNK N   1      36.587  14.215  14.757  0.00  0.00     0.057 A 
HETATM   17  C   UNK N   1      35.887  13.506  15.722  0.00  0.00     0.141 A 
HETATM   18  N   UNK N   1      35.019  12.513  15.350  0.00  0.00    -0.346 N 
HETATM   19  C   UNK N   1      34.764  12.236  14.041  0.00  0.00     0.103 A 
ATOM     20  HN  UNK N   1      34.552  11.965  16.073  1.00  0.00     0.167 HD
BRANCH  17  21
HETATM   21  O   UNK N   1      36.047  13.847  17.015  0.00  0.00    -0.341 OA
HETATM   22  C   UNK N   1      35.083  13.604  17.961  0.00  0.00     0.211 C 
ENDBRANCH  17  21
ENDBRANCH   8  14
ENDBRANCH   4   6
BRANCH   3  23
HETATM   23  N   UNK N   1      33.841  18.543   8.317  0.00  0.00    -0.424 N 
HETATM   24  H   UNK N   1      33.306  19.368   8.046  0.00  0.00     0.150 HD
HETATM   25  H   UNK N   1      34.170  18.676   9.274  0.00  0.00     0.150 HD
ENDBRANCH   3  23
BRANCH   1  26
HETATM   26  C   UNK N   1      32.056  16.764   6.499  0.00  0.00    -0.009 A 
HETATM   27  C   UNK N   1      32.249  17.166   5.162  0.00  0.00     0.126 A 
HETATM   28  C   UNK N   1      31.154  17.601   4.408  0.00  0.00     0.088 A 
HETATM   29  F   UNK N   1      33.469  17.132   4.574  0.00  0.00    -0.205 F 
HETATM   30  C   UNK N   1      29.874  17.634   4.974  0.00  0.00     0.157 A 
HETATM   31  F   UNK N   1      28.824  18.076   4.244  0.00  0.00    -0.203 F 
HETATM   32  C   UNK N   1      29.679  17.211   6.287  0.00  0.00     0.155 A 
HETATM   33  C   UNK N   1      30.759  16.776   7.035  0.00  0.00     0.056 A 
HETATM   34  F   UNK N   1      28.446  17.234   6.849  0.00  0.00    -0.203 F 
ENDBRANCH   1  26
TORSDOF 5
ENDMDL
MODEL 9
REMARK VINA RESULT:      -7.6      5.361      8.496
REMARK  5 active torsions:
REMARK  status: ('A' for Active; 'I' for Inactive)
REMARK    1  A    between atoms: C_3  and  O_31 
REMARK    2  A    between atoms: C_5  and  C_6 
REMARK    3  A    between atoms: C_18  and  N_19 
REMARK    4  A    between atoms: N_20  and  C_22 
REMARK    5  A    between atoms: C_26  and  C_29 
ROOT
HETATM    1  C   UNK N   1      34.563  14.370  10.847  0.00  0.00     0.063 C 
HETATM    2  C   UNK N   1      35.706  12.475  11.699  0.00  0.00     0.149 C 
HETATM    3  C   UNK N   1      34.838  12.886  10.523  0.00  0.00     0.102 C 
HETATM    4  N   UNK N   1      36.224  13.734  12.202  0.00  0.00    -0.364 N 
HETATM    5  C   UNK N   1      35.899  14.833  11.376  0.00  0.00     0.136 C 
ENDROOT
BRANCH   4   6
HETATM    6  C   UNK N   1      36.358  13.922  13.595  0.00  0.00     0.106 A 
HETATM    7  C   UNK N   1      35.923  12.936  14.423  0.00  0.00     0.078 A 
HETATM    8  C   UNK N   1      36.071  13.040  15.780  0.00  0.00     0.048 A 
HETATM    9  N   UNK N   1      36.660  14.154  16.307  0.00  0.00    -0.351 N 
HETATM   10  C   UNK N   1      37.043  15.175  15.483  0.00  0.00     0.182 A 
ATOM     11  HN  UNK N   1      36.813  14.224  17.314  1.00  0.00     0.166 HD
HETATM   12  N   UNK N   1      36.907  15.056  14.129  0.00  0.00    -0.339 N 
ATOM     13  HN  UNK N   1      37.215  15.812  13.516  1.00  0.00     0.168 HD
BRANCH   8  14
HETATM   14  C   UNK N   1      35.799  11.817  16.536  0.00  0.00     0.006 A 
HETATM   15  C   UNK N   1      35.594  11.927  17.922  0.00  0.00     0.019 A 
HETATM   16  C   UNK N   1      35.037  10.888  18.637  0.00  0.00     0.057 A 
HETATM   17  C   UNK N   1      34.649   9.741  17.959  0.00  0.00     0.141 A 
HETATM   18  N   UNK N   1      34.903   9.616  16.618  0.00  0.00    -0.346 N 
HETATM   19  C   UNK N   1      35.472  10.624  15.899  0.00  0.00     0.103 A 
ATOM     20  HN  UNK N   1      34.659   8.746  16.146  1.00  0.00     0.167 HD
BRANCH  17  21
HETATM   21  O   UNK N   1      33.984   8.786  18.637  0.00  0.00    -0.341 OA
HETATM   22  C   UNK N   1      34.472   7.511  18.774  0.00  0.00     0.211 C 
ENDBRANCH  17  21
ENDBRANCH   8  14
ENDBRANCH   4   6
BRANCH   3  23
HETATM   23  N   UNK N   1      35.647  12.734   9.322  0.00  0.00    -0.424 N 
HETATM   24  H   UNK N   1      36.591  12.540   8.987  0.00  0.00     0.150 HD
HETATM   25  H   UNK N   1      35.043  12.872   8.512  0.00  0.00     0.150 HD
ENDBRANCH   3  23
BRANCH   1  26
HETATM   26  C   UNK N   1      34.043  15.345   9.837  0.00  0.00    -0.009 A 
HETATM   27  C   UNK N   1      32.905  15.143   9.030  0.00  0.00     0.126 A 
HETATM   28  C   UNK N   1      32.550  16.111   8.085  0.00  0.00     0.088 A 
HETATM   29  F   UNK N   1      32.129  14.039   9.151  0.00  0.00    -0.205 F 
HETATM   30  C   UNK N   1      33.315  17.275   7.941  0.00  0.00     0.157 A 
HETATM   31  F   UNK N   1      32.977  18.195   7.010  0.00  0.00    -0.203 F 
HETATM   32  C   UNK N   1      34.425  17.486   8.757  0.00  0.00     0.155 A 
HETATM   33  C   UNK N   1      34.777  16.533   9.697  0.00  0.00     0.056 A 
HETATM   34  F   UNK N   1      35.175  18.607   8.633  0.00  0.00    -0.203 F 
ENDBRANCH   1  26
TORSDOF 5
ENDMDL
