REMARK  4 active torsions:
REMARK  status: ('A' for Active; 'I' for Inactive)
REMARK    1  A    between atoms: C_9  and  O_10 
REMARK    2  A    between atoms: O_10  and  C_11 
REMARK    3  A    between atoms: C_16  and  C_19 
REMARK    4  A    between atoms: C_19  and  C_20 
ROOT
HETATM    1  N   UNK N   1      -4.495  -6.845  -1.030  0.00  0.00    -0.191 NA
HETATM    2  C   UNK N   1      -4.144  -5.784  -0.733  0.00  0.00     0.099 C 
HETATM    3  C   UNK N   1      -3.721  -4.466  -0.356  0.00  0.00     0.049 A 
HETATM    4  C   UNK N   1      -4.597  -3.647   0.364  0.00  0.00     0.046 A 
HETATM    5  C   UNK N   1      -4.200  -2.367   0.745  0.00  0.00     0.038 A 
HETATM    6 Cl   UNK N   1      -5.285  -1.325   1.638  0.00  0.00    -0.084 Cl
HETATM    7  C   UNK N   1      -2.936  -1.907   0.404  0.00  0.00     0.061 A 
HETATM    8  C   UNK N   1      -2.444  -4.001  -0.708  0.00  0.00     0.060 A 
HETATM    9  C   UNK N   1      -2.046  -2.711  -0.336  0.00  0.00     0.079 A 
ENDROOT
BRANCH   9  10
HETATM   10  O   UNK N   1      -0.812  -2.244  -0.677  0.00  0.00    -0.306 OA
BRANCH  10  11
HETATM   11  C   UNK N   1      -0.484  -0.935  -0.513  0.00  0.00     0.132 A 
HETATM   12  C   UNK N   1      -1.234   0.085  -1.149  0.00  0.00     0.048 A 
HETATM   13 Br   UNK N   1      -2.632  -0.292  -2.406  0.00  0.00    -0.048 Br
HETATM   14  C   UNK N   1      -0.958   1.419  -0.878  0.00  0.00     0.022 A 
HETATM   15  C   UNK N   1       0.055   1.754   0.008  0.00  0.00     0.012 A 
HETATM   16  C   UNK N   1       0.849   0.765   0.605  0.00  0.00    -0.011 A 
HETATM   17  C   UNK N   1       0.579  -0.589   0.339  0.00  0.00     0.158 A 
HETATM   18  F   UNK N   1       1.314  -1.563   0.936  0.00  0.00    -0.203 F 
BRANCH  16  19
HETATM   19  C   UNK N   1       1.955   1.162   1.546  0.00  0.00     0.101 C 
BRANCH  19  20
HETATM   20  C   UNK N   1       2.645   2.404   1.065  0.00  0.00     0.044 A 
HETATM   21  N   UNK N   1       2.032   3.609   0.936  0.00  0.00    -0.302 N 
HETATM   22  N   UNK N   1       2.905   4.481   0.440  0.00  0.00    -0.283 N 
ATOM     23  HN  UNK N   1       1.062   3.812   1.180  1.00  0.00     0.186 HD
HETATM   24  C   UNK N   1       4.062   3.826   0.265  0.00  0.00     0.147 A 
HETATM   25  H   UNK N   1       2.734   5.429   0.240  0.00  0.00     0.188 HD
HETATM   26  N   UNK N   1       5.216   4.328  -0.229  0.00  0.00    -0.284 N 
HETATM   27  C   UNK N   1       3.945   2.533   0.647  0.00  0.00     0.036 A 
HETATM   28  N   UNK N   1       6.277   3.516  -0.335  0.00  0.00    -0.310 N 
ATOM     29  HN  UNK N   1       5.277   5.305  -0.514  1.00  0.00     0.188 HD
HETATM   30  C   UNK N   1       6.216   2.196   0.043  0.00  0.00     0.108 A 
ATOM     31  HN  UNK N   1       7.152   3.887  -0.706  1.00  0.00     0.186 HD
HETATM   32  C   UNK N   1       5.017   1.661   0.550  0.00  0.00     0.036 A 
ENDBRANCH  19  20
ENDBRANCH  16  19
ENDBRANCH  10  11
ENDBRANCH   9  10
TORSDOF 4
