MODEL 1
REMARK VINA RESULT:      -7.8      0.000      0.000
REMARK  4 active torsions:
REMARK  status: ('A' for Active; 'I' for Inactive)
REMARK    1  A    between atoms: C_9  and  O_10 
REMARK    2  A    between atoms: O_10  and  C_11 
REMARK    3  A    between atoms: C_16  and  C_19 
REMARK    4  A    between atoms: C_19  and  C_20 
ROOT
HETATM    1  N   UNK N   1      27.928  17.311   9.763  0.00  0.00    -0.191 NA
HETATM    2  C   UNK N   1      28.205  17.378   8.642  0.00  0.00     0.099 C 
HETATM    3  C   UNK N   1      28.562  17.457   7.255  0.00  0.00     0.049 A 
HETATM    4  C   UNK N   1      29.907  17.343   6.889  0.00  0.00     0.046 A 
HETATM    5  C   UNK N   1      30.272  17.410   5.546  0.00  0.00     0.038 A 
HETATM    6 Cl   UNK N   1      31.950  17.279   5.069  0.00  0.00    -0.084 Cl
HETATM    7  C   UNK N   1      29.297  17.595   4.575  0.00  0.00     0.061 A 
HETATM    8  C   UNK N   1      27.575  17.650   6.276  0.00  0.00     0.060 A 
HETATM    9  C   UNK N   1      27.939  17.729   4.926  0.00  0.00     0.079 A 
ENDROOT
BRANCH   9  10
HETATM   10  O   UNK N   1      26.992  17.923   3.966  0.00  0.00    -0.306 OA
BRANCH  10  11
HETATM   11  C   UNK N   1      25.840  17.201   3.956  0.00  0.00     0.132 A 
HETATM   12  C   UNK N   1      25.785  15.933   3.327  0.00  0.00     0.048 A 
HETATM   13 Br   UNK N   1      27.244  15.222   2.306  0.00  0.00    -0.048 Br
HETATM   14  C   UNK N   1      24.636  15.160   3.427  0.00  0.00     0.022 A 
HETATM   15  C   UNK N   1      23.540  15.630   4.136  0.00  0.00     0.012 A 
HETATM   16  C   UNK N   1      23.549  16.905   4.718  0.00  0.00    -0.011 A 
HETATM   17  C   UNK N   1      24.707  17.697   4.624  0.00  0.00     0.158 A 
HETATM   18  F   UNK N   1      24.748  18.921   5.212  0.00  0.00    -0.203 F 
BRANCH  16  19
HETATM   19  C   UNK N   1      22.336  17.394   5.463  0.00  0.00     0.101 C 
BRANCH  19  20
HETATM   20  C   UNK N   1      21.187  17.616   4.524  0.00  0.00     0.044 A 
HETATM   21  N   UNK N   1      20.105  16.800   4.446  0.00  0.00    -0.302 N 
HETATM   22  N   UNK N   1      19.302  17.247   3.485  0.00  0.00    -0.283 N 
ATOM     23  HN  UNK N   1      19.936  15.979   5.029  1.00  0.00     0.186 HD
HETATM   24  C   UNK N   1      19.876  18.343   2.968  0.00  0.00     0.147 A 
HETATM   25  H   UNK N   1      18.446  16.848   3.207  0.00  0.00     0.188 HD
HETATM   26  N   UNK N   1      19.405  19.110   1.959  0.00  0.00    -0.284 N 
HETATM   27  C   UNK N   1      21.047  18.611   3.590  0.00  0.00     0.036 A 
HETATM   28  N   UNK N   1      20.123  20.173   1.571  0.00  0.00    -0.310 N 
ATOM     29  HN  UNK N   1      18.522  18.884   1.503  1.00  0.00     0.188 HD
HETATM   30  C   UNK N   1      21.317  20.495   2.171  0.00  0.00     0.108 A 
ATOM     31  HN  UNK N   1      19.775  20.758   0.811  1.00  0.00     0.186 HD
HETATM   32  C   UNK N   1      21.820  19.698   3.217  0.00  0.00     0.036 A 
ENDBRANCH  19  20
ENDBRANCH  16  19
ENDBRANCH  10  11
ENDBRANCH   9  10
TORSDOF 4
ENDMDL
MODEL 2
REMARK VINA RESULT:      -7.6      8.295     11.345
REMARK  4 active torsions:
REMARK  status: ('A' for Active; 'I' for Inactive)
REMARK    1  A    between atoms: C_9  and  O_10 
REMARK    2  A    between atoms: O_10  and  C_11 
REMARK    3  A    between atoms: C_16  and  C_19 
REMARK    4  A    between atoms: C_19  and  C_20 
ROOT
HETATM    1  N   UNK N   1      31.442  10.895   5.304  0.00  0.00    -0.191 NA
HETATM    2  C   UNK N   1      31.811  11.888   4.840  0.00  0.00     0.099 C 
HETATM    3  C   UNK N   1      32.276  13.112   4.254  0.00  0.00     0.049 A 
HETATM    4  C   UNK N   1      33.276  13.065   3.277  0.00  0.00     0.046 A 
HETATM    5  C   UNK N   1      33.734  14.244   2.692  0.00  0.00     0.038 A 
HETATM    6 Cl   UNK N   1      34.990  14.205   1.474  0.00  0.00    -0.084 Cl
HETATM    7  C   UNK N   1      33.200  15.462   3.086  0.00  0.00     0.061 A 
HETATM    8  C   UNK N   1      31.738  14.344   4.659  0.00  0.00     0.060 A 
HETATM    9  C   UNK N   1      32.205  15.531   4.081  0.00  0.00     0.079 A 
ENDROOT
BRANCH   9  10
HETATM   10  O   UNK N   1      31.697  16.734   4.470  0.00  0.00    -0.306 OA
BRANCH  10  11
HETATM   11  C   UNK N   1      31.756  17.139   5.766  0.00  0.00     0.132 A 
HETATM   12  C   UNK N   1      30.589  17.166   6.570  0.00  0.00     0.048 A 
HETATM   13 Br   UNK N   1      28.841  16.814   5.866  0.00  0.00    -0.048 Br
HETATM   14  C   UNK N   1      30.687  17.470   7.922  0.00  0.00     0.022 A 
HETATM   15  C   UNK N   1      31.923  17.752   8.484  0.00  0.00     0.012 A 
HETATM   16  C   UNK N   1      33.083  17.788   7.698  0.00  0.00    -0.011 A 
HETATM   17  C   UNK N   1      32.997  17.483   6.328  0.00  0.00     0.158 A 
HETATM   18  F   UNK N   1      34.115  17.477   5.557  0.00  0.00    -0.203 F 
BRANCH  16  19
HETATM   19  C   UNK N   1      34.407  18.120   8.334  0.00  0.00     0.101 C 
BRANCH  19  20
HETATM   20  C   UNK N   1      34.820  17.046   9.296  0.00  0.00     0.044 A 
HETATM   21  N   UNK N   1      34.982  17.245  10.630  0.00  0.00    -0.302 N 
HETATM   22  N   UNK N   1      35.401  16.111  11.183  0.00  0.00    -0.283 N 
ATOM     23  HN  UNK N   1      34.810  18.121  11.126  1.00  0.00     0.186 HD
HETATM   24  C   UNK N   1      35.495  15.203  10.201  0.00  0.00     0.147 A 
HETATM   25  H   UNK N   1      35.603  15.965  12.135  0.00  0.00     0.188 HD
HETATM   26  N   UNK N   1      35.894  13.916  10.316  0.00  0.00    -0.284 N 
HETATM   27  C   UNK N   1      35.137  15.742   9.012  0.00  0.00     0.036 A 
HETATM   28  N   UNK N   1      35.929  13.153   9.214  0.00  0.00    -0.310 N 
ATOM     29  HN  UNK N   1      36.163  13.535  11.222  1.00  0.00     0.188 HD
HETATM   30  C   UNK N   1      35.571  13.647   7.983  0.00  0.00     0.108 A 
ATOM     31  HN  UNK N   1      36.228  12.181   9.292  1.00  0.00     0.186 HD
HETATM   32  C   UNK N   1      35.162  14.987   7.851  0.00  0.00     0.036 A 
ENDBRANCH  19  20
ENDBRANCH  16  19
ENDBRANCH  10  11
ENDBRANCH   9  10
TORSDOF 4
ENDMDL
MODEL 3
REMARK VINA RESULT:      -7.5      4.155      9.025
REMARK  4 active torsions:
REMARK  status: ('A' for Active; 'I' for Inactive)
REMARK    1  A    between atoms: C_9  and  O_10 
REMARK    2  A    between atoms: O_10  and  C_11 
REMARK    3  A    between atoms: C_16  and  C_19 
REMARK    4  A    between atoms: C_19  and  C_20 
ROOT
HETATM    1  N   UNK N   1      22.350  16.095   6.100  0.00  0.00    -0.191 NA
HETATM    2  C   UNK N   1      22.709  17.006   5.484  0.00  0.00     0.099 C 
HETATM    3  C   UNK N   1      23.139  18.139   4.717  0.00  0.00     0.049 A 
HETATM    4  C   UNK N   1      22.226  18.782   3.875  0.00  0.00     0.046 A 
HETATM    5  C   UNK N   1      22.625  19.888   3.128  0.00  0.00     0.038 A 
HETATM    6 Cl   UNK N   1      21.498  20.699   2.064  0.00  0.00    -0.084 Cl
HETATM    7  C   UNK N   1      23.932  20.346   3.219  0.00  0.00     0.061 A 
HETATM    8  C   UNK N   1      24.464  18.596   4.806  0.00  0.00     0.060 A 
HETATM    9  C   UNK N   1      24.871  19.701   4.048  0.00  0.00     0.079 A 
ENDROOT
BRANCH   9  10
HETATM   10  O   UNK N   1      26.155  20.151   4.119  0.00  0.00    -0.306 OA
BRANCH  10  11
HETATM   11  C   UNK N   1      27.039  19.624   5.008  0.00  0.00     0.132 A 
HETATM   12  C   UNK N   1      27.137  20.140   6.324  0.00  0.00     0.048 A 
HETATM   13 Br   UNK N   1      26.183  21.702   6.895  0.00  0.00    -0.048 Br
HETATM   14  C   UNK N   1      27.960  19.516   7.253  0.00  0.00     0.022 A 
HETATM   15  C   UNK N   1      28.690  18.393   6.892  0.00  0.00     0.012 A 
HETATM   16  C   UNK N   1      28.654  17.898   5.581  0.00  0.00    -0.011 A 
HETATM   17  C   UNK N   1      27.825  18.521   4.632  0.00  0.00     0.158 A 
HETATM   18  F   UNK N   1      27.749  18.035   3.366  0.00  0.00    -0.203 F 
BRANCH  16  19
HETATM   19  C   UNK N   1      29.475  16.690   5.216  0.00  0.00     0.101 C 
BRANCH  19  20
HETATM   20  C   UNK N   1      30.931  17.040   5.132  0.00  0.00     0.044 A 
HETATM   21  N   UNK N   1      31.520  17.571   4.029  0.00  0.00    -0.302 N 
HETATM   22  N   UNK N   1      32.821  17.712   4.266  0.00  0.00    -0.283 N 
ATOM     23  HN  UNK N   1      31.043  17.821   3.162  1.00  0.00     0.186 HD
HETATM   24  C   UNK N   1      33.045  17.278   5.515  0.00  0.00     0.147 A 
HETATM   25  H   UNK N   1      33.492  18.070   3.642  0.00  0.00     0.188 HD
HETATM   26  N   UNK N   1      34.231  17.232   6.161  0.00  0.00    -0.284 N 
HETATM   27  C   UNK N   1      31.895  16.857   6.090  0.00  0.00     0.036 A 
HETATM   28  N   UNK N   1      34.262  16.759   7.415  0.00  0.00    -0.310 N 
ATOM     29  HN  UNK N   1      35.084  17.551   5.703  1.00  0.00     0.188 HD
HETATM   30  C   UNK N   1      33.124  16.323   8.050  0.00  0.00     0.108 A 
ATOM     31  HN  UNK N   1      35.154  16.722   7.910  1.00  0.00     0.186 HD
HETATM   32  C   UNK N   1      31.885  16.358   7.383  0.00  0.00     0.036 A 
ENDBRANCH  19  20
ENDBRANCH  16  19
ENDBRANCH  10  11
ENDBRANCH   9  10
TORSDOF 4
ENDMDL
MODEL 4
REMARK VINA RESULT:      -7.4     12.657     13.913
REMARK  4 active torsions:
REMARK  status: ('A' for Active; 'I' for Inactive)
REMARK    1  A    between atoms: C_9  and  O_10 
REMARK    2  A    between atoms: O_10  and  C_11 
REMARK    3  A    between atoms: C_16  and  C_19 
REMARK    4  A    between atoms: C_19  and  C_20 
ROOT
HETATM    1  N   UNK N   1      32.554  19.830  -5.452  0.00  0.00    -0.191 NA
HETATM    2  C   UNK N   1      31.854  20.745  -5.346  0.00  0.00     0.099 C 
HETATM    3  C   UNK N   1      30.997  21.887  -5.207  0.00  0.00     0.049 A 
HETATM    4  C   UNK N   1      31.467  23.015  -4.527  0.00  0.00     0.046 A 
HETATM    5  C   UNK N   1      30.651  24.136  -4.390  0.00  0.00     0.038 A 
HETATM    6 Cl   UNK N   1      31.218  25.553  -3.535  0.00  0.00    -0.084 Cl
HETATM    7  C   UNK N   1      29.371  24.127  -4.926  0.00  0.00     0.061 A 
HETATM    8  C   UNK N   1      29.700  21.872  -5.745  0.00  0.00     0.060 A 
HETATM    9  C   UNK N   1      28.874  22.993  -5.599  0.00  0.00     0.079 A 
ENDROOT
BRANCH   9  10
HETATM   10  O   UNK N   1      27.611  22.991  -6.110  0.00  0.00    -0.306 OA
BRANCH  10  11
HETATM   11  C   UNK N   1      27.077  24.106  -6.676  0.00  0.00     0.132 A 
HETATM   12  C   UNK N   1      27.198  24.341  -8.067  0.00  0.00     0.048 A 
HETATM   13 Br   UNK N   1      28.251  23.224  -9.216  0.00  0.00    -0.048 Br
HETATM   14  C   UNK N   1      26.548  25.423  -8.646  0.00  0.00     0.022 A 
HETATM   15  C   UNK N   1      25.787  26.278  -7.863  0.00  0.00     0.012 A 
HETATM   16  C   UNK N   1      25.699  26.100  -6.475  0.00  0.00    -0.011 A 
HETATM   17  C   UNK N   1      26.352  25.008  -5.878  0.00  0.00     0.158 A 
HETATM   18  F   UNK N   1      26.249  24.798  -4.539  0.00  0.00    -0.203 F 
BRANCH  16  19
HETATM   19  C   UNK N   1      24.882  27.058  -5.649  0.00  0.00     0.101 C 
BRANCH  19  20
HETATM   20  C   UNK N   1      25.753  27.809  -4.686  0.00  0.00     0.044 A 
HETATM   21  N   UNK N   1      25.552  27.832  -3.343  0.00  0.00    -0.302 N 
HETATM   22  N   UNK N   1      26.463  28.626  -2.789  0.00  0.00    -0.283 N 
ATOM     23  HN  UNK N   1      24.823  27.322  -2.842  1.00  0.00     0.186 HD
HETATM   24  C   UNK N   1      27.235  29.095  -3.780  0.00  0.00     0.147 A 
HETATM   25  H   UNK N   1      26.554  28.831  -1.831  0.00  0.00     0.188 HD
HETATM   26  N   UNK N   1      28.279  29.946  -3.667  0.00  0.00    -0.284 N 
HETATM   27  C   UNK N   1      26.831  28.606  -4.976  0.00  0.00     0.036 A 
HETATM   28  N   UNK N   1      28.936  30.309  -4.777  0.00  0.00    -0.310 N 
ATOM     29  HN  UNK N   1      28.561  30.303  -2.755  1.00  0.00     0.188 HD
HETATM   30  C   UNK N   1      28.572  29.839  -6.017  0.00  0.00     0.108 A 
ATOM     31  HN  UNK N   1      29.726  30.950  -4.701  1.00  0.00     0.186 HD
HETATM   32  C   UNK N   1      27.481  28.960  -6.147  0.00  0.00     0.036 A 
ENDBRANCH  19  20
ENDBRANCH  16  19
ENDBRANCH  10  11
ENDBRANCH   9  10
TORSDOF 4
ENDMDL
MODEL 5
REMARK VINA RESULT:      -7.4     15.199     18.121
REMARK  4 active torsions:
REMARK  status: ('A' for Active; 'I' for Inactive)
REMARK    1  A    between atoms: C_9  and  O_10 
REMARK    2  A    between atoms: O_10  and  C_11 
REMARK    3  A    between atoms: C_16  and  C_19 
REMARK    4  A    between atoms: C_19  and  C_20 
ROOT
HETATM    1  N   UNK N   1      34.590   3.651  19.105  0.00  0.00    -0.191 NA
HETATM    2  C   UNK N   1      34.378   4.788  19.108  0.00  0.00     0.099 C 
HETATM    3  C   UNK N   1      34.101   6.195  19.119  0.00  0.00     0.049 A 
HETATM    4  C   UNK N   1      32.871   6.646  19.607  0.00  0.00     0.046 A 
HETATM    5  C   UNK N   1      32.588   8.010  19.632  0.00  0.00     0.038 A 
HETATM    6 Cl   UNK N   1      31.051   8.593  20.231  0.00  0.00    -0.084 Cl
HETATM    7  C   UNK N   1      33.530   8.918  19.167  0.00  0.00     0.061 A 
HETATM    8  C   UNK N   1      35.053   7.111  18.642  0.00  0.00     0.060 A 
HETATM    9  C   UNK N   1      34.768   8.482  18.656  0.00  0.00     0.079 A 
ENDROOT
BRANCH   9  10
HETATM   10  O   UNK N   1      35.680   9.381  18.190  0.00  0.00    -0.306 OA
BRANCH  10  11
HETATM   11  C   UNK N   1      35.291  10.482  17.493  0.00  0.00     0.132 A 
HETATM   12  C   UNK N   1      35.260  11.756  18.110  0.00  0.00     0.048 A 
HETATM   13 Br   UNK N   1      35.586  12.005  19.983  0.00  0.00    -0.048 Br
HETATM   14  C   UNK N   1      34.973  12.886  17.354  0.00  0.00     0.022 A 
HETATM   15  C   UNK N   1      34.710  12.766  15.998  0.00  0.00     0.012 A 
HETATM   16  C   UNK N   1      34.677  11.510  15.376  0.00  0.00    -0.011 A 
HETATM   17  C   UNK N   1      34.966  10.360  16.131  0.00  0.00     0.158 A 
HETATM   18  F   UNK N   1      34.975   9.137  15.538  0.00  0.00    -0.203 F 
BRANCH  16  19
HETATM   19  C   UNK N   1      34.367  11.412  13.906  0.00  0.00     0.101 C 
BRANCH  19  20
HETATM   20  C   UNK N   1      35.581  11.724  13.082  0.00  0.00     0.044 A 
HETATM   21  N   UNK N   1      36.602  10.853  12.879  0.00  0.00    -0.302 N 
HETATM   22  N   UNK N   1      37.539  11.455  12.152  0.00  0.00    -0.283 N 
ATOM     23  HN  UNK N   1      36.644   9.894  13.226  1.00  0.00     0.186 HD
HETATM   24  C   UNK N   1      37.103  12.697  11.896  0.00  0.00     0.147 A 
HETATM   25  H   UNK N   1      38.392  11.063  11.857  0.00  0.00     0.188 HD
HETATM   26  N   UNK N   1      37.746  13.658  11.196  0.00  0.00    -0.284 N 
HETATM   27  C   UNK N   1      35.886  12.903  12.451  0.00  0.00     0.036 A 
HETATM   28  N   UNK N   1      37.151  14.850  11.044  0.00  0.00    -0.310 N 
ATOM     29  HN  UNK N   1      38.664  13.479  10.791  1.00  0.00     0.188 HD
HETATM   30  C   UNK N   1      35.914  15.112  11.582  0.00  0.00     0.108 A 
ATOM     31  HN  UNK N   1      37.629  15.581  10.516  1.00  0.00     0.186 HD
HETATM   32  C   UNK N   1      35.240  14.122  12.320  0.00  0.00     0.036 A 
ENDBRANCH  19  20
ENDBRANCH  16  19
ENDBRANCH  10  11
ENDBRANCH   9  10
TORSDOF 4
ENDMDL
MODEL 6
REMARK VINA RESULT:      -7.3      5.195      7.237
REMARK  4 active torsions:
REMARK  status: ('A' for Active; 'I' for Inactive)
REMARK    1  A    between atoms: C_9  and  O_10 
REMARK    2  A    between atoms: O_10  and  C_11 
REMARK    3  A    between atoms: C_16  and  C_19 
REMARK    4  A    between atoms: C_19  and  C_20 
ROOT
HETATM    1  N   UNK N   1      19.842  11.785  12.329  0.00  0.00    -0.191 NA
HETATM    2  C   UNK N   1      20.473  12.232  11.469  0.00  0.00     0.099 C 
HETATM    3  C   UNK N   1      21.269  12.782  10.410  0.00  0.00     0.049 A 
HETATM    4  C   UNK N   1      22.662  12.791  10.536  0.00  0.00     0.046 A 
HETATM    5  C   UNK N   1      23.451  13.314   9.513  0.00  0.00     0.038 A 
HETATM    6 Cl   UNK N   1      25.194  13.342   9.656  0.00  0.00    -0.084 Cl
HETATM    7  C   UNK N   1      22.850  13.829   8.373  0.00  0.00     0.061 A 
HETATM    8  C   UNK N   1      20.658  13.308   9.261  0.00  0.00     0.060 A 
HETATM    9  C   UNK N   1      21.447  13.844   8.236  0.00  0.00     0.079 A 
ENDROOT
BRANCH   9  10
HETATM   10  O   UNK N   1      20.867  14.365   7.118  0.00  0.00    -0.306 OA
BRANCH  10  11
HETATM   11  C   UNK N   1      21.244  15.575   6.627  0.00  0.00     0.132 A 
HETATM   12  C   UNK N   1      20.686  16.772   7.141  0.00  0.00     0.048 A 
HETATM   13 Br   UNK N   1      19.256  16.779   8.418  0.00  0.00    -0.048 Br
HETATM   14  C   UNK N   1      21.167  18.001   6.710  0.00  0.00     0.022 A 
HETATM   15  C   UNK N   1      22.187  18.060   5.773  0.00  0.00     0.012 A 
HETATM   16  C   UNK N   1      22.716  16.892   5.206  0.00  0.00    -0.011 A 
HETATM   17  C   UNK N   1      22.238  15.641   5.635  0.00  0.00     0.158 A 
HETATM   18  F   UNK N   1      22.763  14.496   5.124  0.00  0.00    -0.203 F 
BRANCH  16  19
HETATM   19  C   UNK N   1      23.808  16.989   4.175  0.00  0.00     0.101 C 
BRANCH  19  20
HETATM   20  C   UNK N   1      25.125  17.305   4.821  0.00  0.00     0.044 A 
HETATM   21  N   UNK N   1      25.629  16.626   5.883  0.00  0.00    -0.302 N 
HETATM   22  N   UNK N   1      26.780  17.187   6.241  0.00  0.00    -0.283 N 
ATOM     23  HN  UNK N   1      25.197  15.818   6.332  1.00  0.00     0.186 HD
HETATM   24  C   UNK N   1      26.999  18.210   5.402  0.00  0.00     0.147 A 
HETATM   25  H   UNK N   1      27.363  16.905   6.982  0.00  0.00     0.188 HD
HETATM   26  N   UNK N   1      28.050  19.061   5.410  0.00  0.00    -0.284 N 
HETATM   27  C   UNK N   1      25.996  18.314   4.499  0.00  0.00     0.036 A 
HETATM   28  N   UNK N   1      28.098  20.033   4.488  0.00  0.00    -0.310 N 
ATOM     29  HN  UNK N   1      28.791  18.964   6.104  1.00  0.00     0.188 HD
HETATM   30  C   UNK N   1      27.109  20.181   3.545  0.00  0.00     0.108 A 
ATOM     31  HN  UNK N   1      28.887  20.679   4.487  1.00  0.00     0.186 HD
HETATM   32  C   UNK N   1      26.007  19.307   3.533  0.00  0.00     0.036 A 
ENDBRANCH  19  20
ENDBRANCH  16  19
ENDBRANCH  10  11
ENDBRANCH   9  10
TORSDOF 4
ENDMDL
MODEL 7
REMARK VINA RESULT:      -7.2      4.328      7.979
REMARK  4 active torsions:
REMARK  status: ('A' for Active; 'I' for Inactive)
REMARK    1  A    between atoms: C_9  and  O_10 
REMARK    2  A    between atoms: O_10  and  C_11 
REMARK    3  A    between atoms: C_16  and  C_19 
REMARK    4  A    between atoms: C_19  and  C_20 
ROOT
HETATM    1  N   UNK N   1      19.352  14.586   9.571  0.00  0.00    -0.191 NA
HETATM    2  C   UNK N   1      20.431  14.372   9.214  0.00  0.00     0.099 C 
HETATM    3  C   UNK N   1      21.773  14.100   8.785  0.00  0.00     0.049 A 
HETATM    4  C   UNK N   1      22.691  13.576   9.701  0.00  0.00     0.046 A 
HETATM    5  C   UNK N   1      23.996  13.299   9.299  0.00  0.00     0.038 A 
HETATM    6 Cl   UNK N   1      25.160  12.651  10.432  0.00  0.00    -0.084 Cl
HETATM    7  C   UNK N   1      24.382  13.549   7.990  0.00  0.00     0.061 A 
HETATM    8  C   UNK N   1      22.162  14.360   7.461  0.00  0.00     0.060 A 
HETATM    9  C   UNK N   1      23.476  14.093   7.057  0.00  0.00     0.079 A 
ENDROOT
BRANCH   9  10
HETATM   10  O   UNK N   1      23.870  14.347   5.777  0.00  0.00    -0.306 OA
BRANCH  10  11
HETATM   11  C   UNK N   1      24.368  15.561   5.421  0.00  0.00     0.132 A 
HETATM   12  C   UNK N   1      23.502  16.615   5.037  0.00  0.00     0.048 A 
HETATM   13 Br   UNK N   1      21.612  16.372   4.820  0.00  0.00    -0.048 Br
HETATM   14  C   UNK N   1      24.019  17.880   4.789  0.00  0.00     0.022 A 
HETATM   15  C   UNK N   1      25.381  18.112   4.910  0.00  0.00     0.012 A 
HETATM   16  C   UNK N   1      26.264  17.072   5.233  0.00  0.00    -0.011 A 
HETATM   17  C   UNK N   1      25.753  15.787   5.486  0.00  0.00     0.158 A 
HETATM   18  F   UNK N   1      26.590  14.775   5.835  0.00  0.00    -0.203 F 
BRANCH  16  19
HETATM   19  C   UNK N   1      27.740  17.352   5.336  0.00  0.00     0.101 C 
BRANCH  19  20
HETATM   20  C   UNK N   1      28.110  17.756   6.732  0.00  0.00     0.044 A 
HETATM   21  N   UNK N   1      27.339  18.547   7.521  0.00  0.00    -0.302 N 
HETATM   22  N   UNK N   1      27.975  18.755   8.670  0.00  0.00    -0.283 N 
ATOM     23  HN  UNK N   1      26.422  18.920   7.273  1.00  0.00     0.186 HD
HETATM   24  C   UNK N   1      29.138  18.091   8.603  0.00  0.00     0.147 A 
HETATM   25  H   UNK N   1      27.653  19.294   9.427  0.00  0.00     0.188 HD
HETATM   26  N   UNK N   1      30.102  18.037   9.550  0.00  0.00    -0.284 N 
HETATM   27  C   UNK N   1      29.259  17.451   7.417  0.00  0.00     0.036 A 
HETATM   28  N   UNK N   1      31.207  17.320   9.303  0.00  0.00    -0.310 N 
ATOM     29  HN  UNK N   1      29.988  18.532  10.434  1.00  0.00     0.188 HD
HETATM   30  C   UNK N   1      31.380  16.646   8.118  0.00  0.00     0.108 A 
ATOM     31  HN  UNK N   1      31.938  17.274  10.013  1.00  0.00     0.186 HD
HETATM   32  C   UNK N   1      30.387  16.703   7.122  0.00  0.00     0.036 A 
ENDBRANCH  19  20
ENDBRANCH  16  19
ENDBRANCH  10  11
ENDBRANCH   9  10
TORSDOF 4
ENDMDL
MODEL 8
REMARK VINA RESULT:      -7.2      5.120      7.201
REMARK  4 active torsions:
REMARK  status: ('A' for Active; 'I' for Inactive)
REMARK    1  A    between atoms: C_9  and  O_10 
REMARK    2  A    between atoms: O_10  and  C_11 
REMARK    3  A    between atoms: C_16  and  C_19 
REMARK    4  A    between atoms: C_19  and  C_20 
ROOT
HETATM    1  N   UNK N   1      23.170  11.940  12.830  0.00  0.00    -0.191 NA
HETATM    2  C   UNK N   1      23.235  11.982  11.676  0.00  0.00     0.099 C 
HETATM    3  C   UNK N   1      23.316  12.018  10.244  0.00  0.00     0.049 A 
HETATM    4  C   UNK N   1      23.508  10.825   9.540  0.00  0.00     0.046 A 
HETATM    5  C   UNK N   1      23.581  10.840   8.149  0.00  0.00     0.038 A 
HETATM    6 Cl   UNK N   1      23.830   9.359   7.252  0.00  0.00    -0.084 Cl
HETATM    7  C   UNK N   1      23.468  12.043   7.466  0.00  0.00     0.061 A 
HETATM    8  C   UNK N   1      23.207  13.237   9.557  0.00  0.00     0.060 A 
HETATM    9  C   UNK N   1      23.291  13.257   8.159  0.00  0.00     0.079 A 
ENDROOT
BRANCH   9  10
HETATM   10  O   UNK N   1      23.195  14.434   7.479  0.00  0.00    -0.306 OA
BRANCH  10  11
HETATM   11  C   UNK N   1      24.088  14.762   6.508  0.00  0.00     0.132 A 
HETATM   12  C   UNK N   1      23.695  14.805   5.147  0.00  0.00     0.048 A 
HETATM   13 Br   UNK N   1      21.959  14.246   4.555  0.00  0.00    -0.048 Br
HETATM   14  C   UNK N   1      24.588  15.254   4.182  0.00  0.00     0.022 A 
HETATM   15  C   UNK N   1      25.864  15.654   4.548  0.00  0.00     0.012 A 
HETATM   16  C   UNK N   1      26.296  15.566   5.879  0.00  0.00    -0.011 A 
HETATM   17  C   UNK N   1      25.401  15.113   6.864  0.00  0.00     0.158 A 
HETATM   18  F   UNK N   1      25.789  15.055   8.165  0.00  0.00    -0.203 F 
BRANCH  16  19
HETATM   19  C   UNK N   1      27.695  15.987   6.240  0.00  0.00     0.101 C 
BRANCH  19  20
HETATM   20  C   UNK N   1      27.704  17.373   6.812  0.00  0.00     0.044 A 
HETATM   21  N   UNK N   1      27.759  17.644   8.142  0.00  0.00    -0.302 N 
HETATM   22  N   UNK N   1      27.699  18.961   8.312  0.00  0.00    -0.283 N 
ATOM     23  HN  UNK N   1      27.834  16.950   8.887  1.00  0.00     0.186 HD
HETATM   24  C   UNK N   1      27.613  19.514   7.094  0.00  0.00     0.147 A 
HETATM   25  H   UNK N   1      27.715  19.440   9.172  0.00  0.00     0.188 HD
HETATM   26  N   UNK N   1      27.521  20.831   6.801  0.00  0.00    -0.284 N 
HETATM   27  C   UNK N   1      27.620  18.562   6.132  0.00  0.00     0.036 A 
HETATM   28  N   UNK N   1      27.440  21.199   5.515  0.00  0.00    -0.310 N 
ATOM     29  HN  UNK N   1      27.513  21.528   7.544  1.00  0.00     0.188 HD
HETATM   30  C   UNK N   1      27.447  20.275   4.498  0.00  0.00     0.108 A 
ATOM     31  HN  UNK N   1      27.370  22.191   5.285  1.00  0.00     0.186 HD
HETATM   32  C   UNK N   1      27.534  18.901   4.792  0.00  0.00     0.036 A 
ENDBRANCH  19  20
ENDBRANCH  16  19
ENDBRANCH  10  11
ENDBRANCH   9  10
TORSDOF 4
ENDMDL
MODEL 9
REMARK VINA RESULT:      -7.2      7.663     10.864
REMARK  4 active torsions:
REMARK  status: ('A' for Active; 'I' for Inactive)
REMARK    1  A    between atoms: C_9  and  O_10 
REMARK    2  A    between atoms: O_10  and  C_11 
REMARK    3  A    between atoms: C_16  and  C_19 
REMARK    4  A    between atoms: C_19  and  C_20 
ROOT
HETATM    1  N   UNK N   1      31.747  11.194   5.204  0.00  0.00    -0.191 NA
HETATM    2  C   UNK N   1      31.217  12.143   4.810  0.00  0.00     0.099 C 
HETATM    3  C   UNK N   1      30.547  13.311   4.316  0.00  0.00     0.049 A 
HETATM    4  C   UNK N   1      29.454  13.160   3.457  0.00  0.00     0.046 A 
HETATM    5  C   UNK N   1      28.787  14.284   2.973  0.00  0.00     0.038 A 
HETATM    6 Cl   UNK N   1      27.423  14.116   1.891  0.00  0.00    -0.084 Cl
HETATM    7  C   UNK N   1      29.214  15.552   3.343  0.00  0.00     0.061 A 
HETATM    8  C   UNK N   1      30.985  14.592   4.687  0.00  0.00     0.060 A 
HETATM    9  C   UNK N   1      30.324  15.724   4.194  0.00  0.00     0.079 A 
ENDROOT
BRANCH   9  10
HETATM   10  O   UNK N   1      30.743  16.974   4.540  0.00  0.00    -0.306 OA
BRANCH  10  11
HETATM   11  C   UNK N   1      31.079  17.274   5.823  0.00  0.00     0.132 A 
HETATM   12  C   UNK N   1      30.077  17.497   6.801  0.00  0.00     0.048 A 
HETATM   13 Br   UNK N   1      28.210  17.566   6.370  0.00  0.00    -0.048 Br
HETATM   14  C   UNK N   1      30.436  17.687   8.129  0.00  0.00     0.022 A 
HETATM   15  C   UNK N   1      31.773  17.667   8.498  0.00  0.00     0.012 A 
HETATM   16  C   UNK N   1      32.785  17.507   7.541  0.00  0.00    -0.011 A 
HETATM   17  C   UNK N   1      32.434  17.313   6.193  0.00  0.00     0.158 A 
HETATM   18  F   UNK N   1      33.399  17.120   5.257  0.00  0.00    -0.203 F 
BRANCH  16  19
HETATM   19  C   UNK N   1      34.227  17.512   7.971  0.00  0.00     0.101 C 
BRANCH  19  20
HETATM   20  C   UNK N   1      34.414  16.705   9.222  0.00  0.00     0.044 A 
HETATM   21  N   UNK N   1      34.879  17.217  10.391  0.00  0.00    -0.302 N 
HETATM   22  N   UNK N   1      34.974  16.232  11.280  0.00  0.00    -0.283 N 
ATOM     23  HN  UNK N   1      35.116  18.195  10.559  1.00  0.00     0.186 HD
HETATM   24  C   UNK N   1      34.564  15.110  10.672  0.00  0.00     0.147 A 
HETATM   25  H   UNK N   1      35.285  16.313  12.210  0.00  0.00     0.188 HD
HETATM   26  N   UNK N   1      34.507  13.868  11.205  0.00  0.00    -0.284 N 
HETATM   27  C   UNK N   1      34.201  15.361   9.393  0.00  0.00     0.036 A 
HETATM   28  N   UNK N   1      34.070  12.859  10.439  0.00  0.00    -0.310 N 
ATOM     29  HN  UNK N   1      34.790  13.705  12.171  1.00  0.00     0.188 HD
HETATM   30  C   UNK N   1      33.684  13.058   9.135  0.00  0.00     0.108 A 
ATOM     31  HN  UNK N   1      34.023  11.920  10.834  1.00  0.00     0.186 HD
HETATM   32  C   UNK N   1      33.748  14.344   8.568  0.00  0.00     0.036 A 
ENDBRANCH  19  20
ENDBRANCH  16  19
ENDBRANCH  10  11
ENDBRANCH   9  10
TORSDOF 4
ENDMDL
