MODEL 1
REMARK VINA RESULT:      -5.7      0.000      0.000
REMARK  6 active torsions:
REMARK  status: ('A' for Active; 'I' for Inactive)
REMARK    1  A    between atoms: C_2  and  C_10 
REMARK    2  A    between atoms: C_7  and  C_14 
REMARK    3  A    between atoms: C_10  and  N_11 
REMARK    4  A    between atoms: C_14  and  C_15 
REMARK    5  A    between atoms: C_15  and  C_16 
REMARK    6  A    between atoms: C_16  and  O_17 
ROOT
HETATM    1  C   UNK N   1      30.151  17.507   8.728  0.00  0.00     0.098 A 
HETATM    2  C   UNK N   1      29.972  17.363   7.356  0.00  0.00    -0.002 A 
HETATM    3  N   UNK N   1      31.472  17.515   9.019  0.00  0.00    -0.364 N 
HETATM    4  C   UNK N   1      31.662  17.166   5.485  0.00  0.00     0.014 A 
HETATM    5  C   UNK N   1      33.051  17.151   5.247  0.00  0.00     0.002 A 
HETATM    6  C   UNK N   1      33.966  17.265   6.321  0.00  0.00     0.009 A 
HETATM    7  C   UNK N   1      33.495  17.385   7.648  0.00  0.00    -0.030 A 
HETATM    8  C   UNK N   1      31.231  17.286   6.807  0.00  0.00     0.001 A 
HETATM    9  C   UNK N   1      32.117  17.387   7.843  0.00  0.00     0.049 A 
HETATM   10  H   UNK N   1      31.880  17.595   9.911  0.00  0.00     0.165 HD
ENDROOT
BRANCH   7  11
HETATM   11  C   UNK N   1      34.402  17.535   8.836  0.00  0.00     0.043 C 
BRANCH  11  12
HETATM   12  C   UNK N   1      34.930  16.238   9.422  0.00  0.00     0.031 C 
BRANCH  12  13
HETATM   13  C   UNK N   1      35.510  16.549  10.787  0.00  0.00     0.164 C 
BRANCH  13  14
HETATM   14  O   UNK N   1      36.852  16.177  10.828  0.00  0.00    -0.401 OA
HETATM   15  H   UNK N   1      37.468  16.643  11.413  0.00  0.00     0.209 HD
ENDBRANCH  13  14
ENDBRANCH  12  13
ENDBRANCH  11  12
ENDBRANCH   7  11
BRANCH   2  16
HETATM   16  C   UNK N   1      28.659  17.365   6.634  0.00  0.00     0.312 C 
BRANCH  16  17
HETATM   17  N   UNK N   1      28.453  18.611   5.902  0.00  0.00     0.084 N 
HETATM   18  C   UNK N   1      27.712  19.499   6.777  0.00  0.00     0.309 C 
HETATM   19  C   UNK N   1      27.571  18.328   4.778  0.00  0.00     0.309 C 
ENDBRANCH  16  17
ENDBRANCH   2  16
TORSDOF 6
ENDMDL
MODEL 2
REMARK VINA RESULT:      -5.4      6.620      9.864
REMARK  6 active torsions:
REMARK  status: ('A' for Active; 'I' for Inactive)
REMARK    1  A    between atoms: C_2  and  C_10 
REMARK    2  A    between atoms: C_7  and  C_14 
REMARK    3  A    between atoms: C_10  and  N_11 
REMARK    4  A    between atoms: C_14  and  C_15 
REMARK    5  A    between atoms: C_15  and  C_16 
REMARK    6  A    between atoms: C_16  and  O_17 
ROOT
HETATM    1  C   UNK N   1      36.658  14.324  14.460  0.00  0.00     0.098 A 
HETATM    2  C   UNK N   1      35.974  13.760  13.387  0.00  0.00    -0.002 A 
HETATM    3  N   UNK N   1      36.400  13.619  15.586  0.00  0.00    -0.364 N 
HETATM    4  C   UNK N   1      34.467  11.734  13.272  0.00  0.00     0.014 A 
HETATM    5  C   UNK N   1      33.934  10.705  14.075  0.00  0.00     0.002 A 
HETATM    6  C   UNK N   1      34.238  10.641  15.456  0.00  0.00     0.009 A 
HETATM    7  C   UNK N   1      35.074  11.615  16.048  0.00  0.00    -0.030 A 
HETATM    8  C   UNK N   1      35.289  12.679  13.888  0.00  0.00     0.001 A 
HETATM    9  C   UNK N   1      35.574  12.619  15.223  0.00  0.00     0.049 A 
HETATM   10  H   UNK N   1      36.746  13.802  16.489  0.00  0.00     0.165 HD
ENDROOT
BRANCH   7  11
HETATM   11  C   UNK N   1      35.461  11.599  17.499  0.00  0.00     0.043 C 
BRANCH  11  12
HETATM   12  C   UNK N   1      35.097  12.844  18.286  0.00  0.00     0.031 C 
BRANCH  12  13
HETATM   13  C   UNK N   1      35.323  12.546  19.755  0.00  0.00     0.164 C 
BRANCH  13  14
HETATM   14  O   UNK N   1      34.617  13.456  20.538  0.00  0.00    -0.401 OA
HETATM   15  H   UNK N   1      33.987  13.138  21.203  0.00  0.00     0.209 HD
ENDBRANCH  13  14
ENDBRANCH  12  13
ENDBRANCH  11  12
ENDBRANCH   7  11
BRANCH   2  16
HETATM   16  C   UNK N   1      36.044  14.218  11.961  0.00  0.00     0.312 C 
BRANCH  16  17
HETATM   17  N   UNK N   1      34.886  15.028  11.601  0.00  0.00     0.084 N 
HETATM   18  C   UNK N   1      34.251  14.381  10.469  0.00  0.00     0.309 C 
HETATM   19  C   UNK N   1      35.371  16.310  11.111  0.00  0.00     0.309 C 
ENDBRANCH  16  17
ENDBRANCH   2  16
TORSDOF 6
ENDMDL
MODEL 3
REMARK VINA RESULT:      -5.4      2.076      3.362
REMARK  6 active torsions:
REMARK  status: ('A' for Active; 'I' for Inactive)
REMARK    1  A    between atoms: C_2  and  C_10 
REMARK    2  A    between atoms: C_7  and  C_14 
REMARK    3  A    between atoms: C_10  and  N_11 
REMARK    4  A    between atoms: C_14  and  C_15 
REMARK    5  A    between atoms: C_15  and  C_16 
REMARK    6  A    between atoms: C_16  and  O_17 
ROOT
HETATM    1  C   UNK N   1      29.496  17.522   5.007  0.00  0.00     0.098 A 
HETATM    2  C   UNK N   1      28.522  18.183   5.748  0.00  0.00    -0.002 A 
HETATM    3  N   UNK N   1      30.500  17.125   5.822  0.00  0.00    -0.364 N 
HETATM    4  C   UNK N   1      28.380  18.666   8.226  0.00  0.00     0.014 A 
HETATM    5  C   UNK N   1      29.079  18.464   9.433  0.00  0.00     0.002 A 
HETATM    6  C   UNK N   1      30.317  17.778   9.442  0.00  0.00     0.009 A 
HETATM    7  C   UNK N   1      30.872  17.296   8.235  0.00  0.00    -0.030 A 
HETATM    8  C   UNK N   1      28.957  18.177   7.053  0.00  0.00     0.001 A 
HETATM    9  C   UNK N   1      30.156  17.522   7.063  0.00  0.00     0.049 A 
HETATM   10  H   UNK N   1      31.318  16.644   5.561  0.00  0.00     0.165 HD
ENDROOT
BRANCH   7  11
HETATM   11  C   UNK N   1      32.167  16.538   8.167  0.00  0.00     0.043 C 
BRANCH  11  12
HETATM   12  C   UNK N   1      33.370  17.247   8.763  0.00  0.00     0.031 C 
BRANCH  12  13
HETATM   13  C   UNK N   1      33.840  18.282   7.761  0.00  0.00     0.164 C 
BRANCH  13  14
HETATM   14  O   UNK N   1      34.885  19.027   8.304  0.00  0.00    -0.401 OA
HETATM   15  H   UNK N   1      35.336  18.719   9.104  0.00  0.00     0.209 HD
ENDBRANCH  13  14
ENDBRANCH  12  13
ENDBRANCH  11  12
ENDBRANCH   7  11
BRANCH   2  16
HETATM   16  C   UNK N   1      27.228  18.724   5.218  0.00  0.00     0.312 C 
BRANCH  16  17
HETATM   17  N   UNK N   1      27.374  20.098   4.749  0.00  0.00     0.084 N 
HETATM   18  C   UNK N   1      26.705  20.948   5.715  0.00  0.00     0.309 C 
HETATM   19  C   UNK N   1      26.623  20.230   3.509  0.00  0.00     0.309 C 
ENDBRANCH  16  17
ENDBRANCH   2  16
TORSDOF 6
ENDMDL
MODEL 4
REMARK VINA RESULT:      -5.3      2.755      5.925
REMARK  6 active torsions:
REMARK  status: ('A' for Active; 'I' for Inactive)
REMARK    1  A    between atoms: C_2  and  C_10 
REMARK    2  A    between atoms: C_7  and  C_14 
REMARK    3  A    between atoms: C_10  and  N_11 
REMARK    4  A    between atoms: C_14  and  C_15 
REMARK    5  A    between atoms: C_15  and  C_16 
REMARK    6  A    between atoms: C_16  and  O_17 
ROOT
HETATM    1  C   UNK N   1      31.633  17.224   8.682  0.00  0.00     0.098 A 
HETATM    2  C   UNK N   1      32.869  17.370   8.061  0.00  0.00    -0.002 A 
HETATM    3  N   UNK N   1      30.656  17.173   7.747  0.00  0.00    -0.364 N 
HETATM    4  C   UNK N   1      33.479  17.504   5.611  0.00  0.00     0.014 A 
HETATM    5  C   UNK N   1      32.903  17.472   4.325  0.00  0.00     0.002 A 
HETATM    6  C   UNK N   1      31.504  17.330   4.167  0.00  0.00     0.009 A 
HETATM    7  C   UNK N   1      30.666  17.231   5.301  0.00  0.00    -0.030 A 
HETATM    8  C   UNK N   1      32.623  17.403   6.708  0.00  0.00     0.001 A 
HETATM    9  C   UNK N   1      31.271  17.275   6.554  0.00  0.00     0.049 A 
HETATM   10  H   UNK N   1      29.689  17.082   7.908  0.00  0.00     0.165 HD
ENDROOT
BRANCH   7  11
HETATM   11  C   UNK N   1      29.177  17.054   5.214  0.00  0.00     0.043 C 
BRANCH  11  12
HETATM   12  C   UNK N   1      28.393  18.297   4.832  0.00  0.00     0.031 C 
BRANCH  12  13
HETATM   13  C   UNK N   1      27.899  18.943   6.111  0.00  0.00     0.164 C 
BRANCH  13  14
HETATM   14  O   UNK N   1      27.611  17.963   7.057  0.00  0.00    -0.401 OA
HETATM   15  H   UNK N   1      27.891  18.078   7.978  0.00  0.00     0.209 HD
ENDBRANCH  13  14
ENDBRANCH  12  13
ENDBRANCH  11  12
ENDBRANCH   7  11
BRANCH   2  16
HETATM   16  C   UNK N   1      34.201  17.410   8.749  0.00  0.00     0.312 C 
BRANCH  16  17
HETATM   17  N   UNK N   1      34.396  16.244   9.605  0.00  0.00     0.084 N 
HETATM   18  C   UNK N   1      35.336  16.631  10.639  0.00  0.00     0.309 C 
HETATM   19  C   UNK N   1      35.064  15.218   8.818  0.00  0.00     0.309 C 
ENDBRANCH  16  17
ENDBRANCH   2  16
TORSDOF 6
ENDMDL
MODEL 5
REMARK VINA RESULT:      -5.2      5.194      7.654
REMARK  6 active torsions:
REMARK  status: ('A' for Active; 'I' for Inactive)
REMARK    1  A    between atoms: C_2  and  C_10 
REMARK    2  A    between atoms: C_7  and  C_14 
REMARK    3  A    between atoms: C_10  and  N_11 
REMARK    4  A    between atoms: C_14  and  C_15 
REMARK    5  A    between atoms: C_15  and  C_16 
REMARK    6  A    between atoms: C_16  and  O_17 
ROOT
HETATM    1  C   UNK N   1      23.405  18.079   4.890  0.00  0.00     0.098 A 
HETATM    2  C   UNK N   1      23.555  19.040   3.894  0.00  0.00    -0.002 A 
HETATM    3  N   UNK N   1      24.605  17.817   5.456  0.00  0.00    -0.364 N 
HETATM    4  C   UNK N   1      25.608  20.284   3.099  0.00  0.00     0.014 A 
HETATM    5  C   UNK N   1      26.990  20.409   3.347  0.00  0.00     0.002 A 
HETATM    6  C   UNK N   1      27.613  19.631   4.352  0.00  0.00     0.009 A 
HETATM    7  C   UNK N   1      26.857  18.711   5.113  0.00  0.00    -0.030 A 
HETATM    8  C   UNK N   1      24.891  19.367   3.869  0.00  0.00     0.001 A 
HETATM    9  C   UNK N   1      25.497  18.611   4.833  0.00  0.00     0.049 A 
HETATM   10  H   UNK N   1      24.789  17.174   6.179  0.00  0.00     0.165 HD
ENDROOT
BRANCH   7  11
HETATM   11  C   UNK N   1      27.442  17.871   6.212  0.00  0.00     0.043 C 
BRANCH  11  12
HETATM   12  C   UNK N   1      28.150  18.638   7.313  0.00  0.00     0.031 C 
BRANCH  12  13
HETATM   13  C   UNK N   1      28.352  17.691   8.480  0.00  0.00     0.164 C 
BRANCH  13  14
HETATM   14  O   UNK N   1      27.468  18.009   9.508  0.00  0.00    -0.401 OA
HETATM   15  H   UNK N   1      26.526  17.800   9.420  0.00  0.00     0.209 HD
ENDBRANCH  13  14
ENDBRANCH  12  13
ENDBRANCH  11  12
ENDBRANCH   7  11
BRANCH   2  16
HETATM   16  C   UNK N   1      22.452  19.637   3.073  0.00  0.00     0.312 C 
BRANCH  16  17
HETATM   17  N   UNK N   1      21.140  19.219   3.555  0.00  0.00     0.084 N 
HETATM   18  C   UNK N   1      20.650  18.213   2.631  0.00  0.00     0.309 C 
HETATM   19  C   UNK N   1      20.235  20.353   3.430  0.00  0.00     0.309 C 
ENDBRANCH  16  17
ENDBRANCH   2  16
TORSDOF 6
ENDMDL
MODEL 6
REMARK VINA RESULT:      -5.2      3.060      6.478
REMARK  6 active torsions:
REMARK  status: ('A' for Active; 'I' for Inactive)
REMARK    1  A    between atoms: C_2  and  C_10 
REMARK    2  A    between atoms: C_7  and  C_14 
REMARK    3  A    between atoms: C_10  and  N_11 
REMARK    4  A    between atoms: C_14  and  C_15 
REMARK    5  A    between atoms: C_15  and  C_16 
REMARK    6  A    between atoms: C_16  and  O_17 
ROOT
HETATM    1  C   UNK N   1      31.393  16.810   5.945  0.00  0.00     0.098 A 
HETATM    2  C   UNK N   1      31.699  16.757   7.302  0.00  0.00    -0.002 A 
HETATM    3  N   UNK N   1      30.149  17.313   5.777  0.00  0.00    -0.364 N 
HETATM    4  C   UNK N   1      30.352  17.456   9.324  0.00  0.00     0.014 A 
HETATM    5  C   UNK N   1      29.113  18.024   9.685  0.00  0.00     0.002 A 
HETATM    6  C   UNK N   1      28.167  18.376   8.693  0.00  0.00     0.009 A 
HETATM    7  C   UNK N   1      28.451  18.152   7.326  0.00  0.00    -0.030 A 
HETATM    8  C   UNK N   1      30.600  17.250   7.966  0.00  0.00     0.001 A 
HETATM    9  C   UNK N   1      29.681  17.583   7.011  0.00  0.00     0.049 A 
HETATM   10  H   UNK N   1      29.679  17.452   4.923  0.00  0.00     0.165 HD
ENDROOT
BRANCH   7  11
HETATM   11  C   UNK N   1      27.509  18.522   6.216  0.00  0.00     0.043 C 
BRANCH  11  12
HETATM   12  C   UNK N   1      27.512  19.986   5.819  0.00  0.00     0.031 C 
BRANCH  12  13
HETATM   13  C   UNK N   1      27.789  20.061   4.330  0.00  0.00     0.164 C 
BRANCH  13  14
HETATM   14  O   UNK N   1      28.200  18.816   3.861  0.00  0.00    -0.401 OA
HETATM   15  H   UNK N   1      28.485  18.131   4.485  0.00  0.00     0.209 HD
ENDBRANCH  13  14
ENDBRANCH  12  13
ENDBRANCH  11  12
ENDBRANCH   7  11
BRANCH   2  16
HETATM   16  C   UNK N   1      33.002  16.313   7.894  0.00  0.00     0.312 C 
BRANCH  16  17
HETATM   17  N   UNK N   1      33.583  17.347   8.745  0.00  0.00     0.084 N 
HETATM   18  C   UNK N   1      34.324  18.243   7.878  0.00  0.00     0.309 C 
HETATM   19  C   UNK N   1      34.572  16.714   9.606  0.00  0.00     0.309 C 
ENDBRANCH  16  17
ENDBRANCH   2  16
TORSDOF 6
ENDMDL
MODEL 7
REMARK VINA RESULT:      -5.2      9.345     12.664
REMARK  6 active torsions:
REMARK  status: ('A' for Active; 'I' for Inactive)
REMARK    1  A    between atoms: C_2  and  C_10 
REMARK    2  A    between atoms: C_7  and  C_14 
REMARK    3  A    between atoms: C_10  and  N_11 
REMARK    4  A    between atoms: C_14  and  C_15 
REMARK    5  A    between atoms: C_15  and  C_16 
REMARK    6  A    between atoms: C_16  and  O_17 
ROOT
HETATM    1  C   UNK N   1      35.232  10.122  15.839  0.00  0.00     0.098 A 
HETATM    2  C   UNK N   1      35.209  11.494  15.609  0.00  0.00    -0.002 A 
HETATM    3  N   UNK N   1      35.275   9.883  17.169  0.00  0.00    -0.364 N 
HETATM    4  C   UNK N   1      35.201  13.437  17.227  0.00  0.00     0.014 A 
HETATM    5  C   UNK N   1      35.204  13.727  18.606  0.00  0.00     0.002 A 
HETATM    6  C   UNK N   1      35.230  12.683  19.561  0.00  0.00     0.009 A 
HETATM    7  C   UNK N   1      35.264  11.334  19.140  0.00  0.00    -0.030 A 
HETATM    8  C   UNK N   1      35.234  12.095  16.846  0.00  0.00     0.001 A 
HETATM    9  C   UNK N   1      35.268  11.088  17.769  0.00  0.00     0.049 A 
HETATM   10  H   UNK N   1      35.306   9.003  17.611  0.00  0.00     0.165 HD
ENDROOT
BRANCH   7  11
HETATM   11  C   UNK N   1      35.267  10.172  20.091  0.00  0.00     0.043 C 
BRANCH  11  12
HETATM   12  C   UNK N   1      33.901   9.708  20.560  0.00  0.00     0.031 C 
BRANCH  12  13
HETATM   13  C   UNK N   1      33.782  10.034  22.035  0.00  0.00     0.164 C 
BRANCH  13  14
HETATM   14  O   UNK N   1      33.133  11.256  22.200  0.00  0.00    -0.401 OA
HETATM   15  H   UNK N   1      32.609  11.630  21.475  0.00  0.00     0.209 HD
ENDBRANCH  13  14
ENDBRANCH  12  13
ENDBRANCH  11  12
ENDBRANCH   7  11
BRANCH   2  16
HETATM   16  C   UNK N   1      35.105  12.161  14.271  0.00  0.00     0.312 C 
BRANCH  16  17
HETATM   17  N   UNK N   1      36.366  12.787  13.885  0.00  0.00     0.084 N 
HETATM   18  C   UNK N   1      36.068  14.167  13.550  0.00  0.00     0.309 C 
HETATM   19  C   UNK N   1      36.816  12.162  12.650  0.00  0.00     0.309 C 
ENDBRANCH  16  17
ENDBRANCH   2  16
TORSDOF 6
ENDMDL
MODEL 8
REMARK VINA RESULT:      -5.1      3.416      6.379
REMARK  6 active torsions:
REMARK  status: ('A' for Active; 'I' for Inactive)
REMARK    1  A    between atoms: C_2  and  C_10 
REMARK    2  A    between atoms: C_7  and  C_14 
REMARK    3  A    between atoms: C_10  and  N_11 
REMARK    4  A    between atoms: C_14  and  C_15 
REMARK    5  A    between atoms: C_15  and  C_16 
REMARK    6  A    between atoms: C_16  and  O_17 
ROOT
HETATM    1  C   UNK N   1      29.187  18.293   8.890  0.00  0.00     0.098 A 
HETATM    2  C   UNK N   1      30.019  17.458   8.151  0.00  0.00    -0.002 A 
HETATM    3  N   UNK N   1      28.304  18.903   8.066  0.00  0.00    -0.364 N 
HETATM    4  C   UNK N   1      30.066  16.948   5.675  0.00  0.00     0.014 A 
HETATM    5  C   UNK N   1      29.404  17.258   4.469  0.00  0.00     0.002 A 
HETATM    6  C   UNK N   1      28.316  18.162   4.459  0.00  0.00     0.009 A 
HETATM    7  C   UNK N   1      27.887  18.775   5.658  0.00  0.00    -0.030 A 
HETATM    8  C   UNK N   1      29.616  17.570   6.841  0.00  0.00     0.001 A 
HETATM    9  C   UNK N   1      28.571  18.450   6.826  0.00  0.00     0.049 A 
HETATM   10  H   UNK N   1      27.608  19.551   8.321  0.00  0.00     0.165 HD
ENDROOT
BRANCH   7  11
HETATM   11  C   UNK N   1      26.726  19.725   5.730  0.00  0.00     0.043 C 
BRANCH  11  12
HETATM   12  C   UNK N   1      27.089  21.186   5.920  0.00  0.00     0.031 C 
BRANCH  12  13
HETATM   13  C   UNK N   1      26.195  21.748   7.007  0.00  0.00     0.164 C 
BRANCH  13  14
HETATM   14  O   UNK N   1      26.066  20.823   8.041  0.00  0.00    -0.401 OA
HETATM   15  H   UNK N   1      25.894  21.126   8.945  0.00  0.00     0.209 HD
ENDBRANCH  13  14
ENDBRANCH  12  13
ENDBRANCH  11  12
ENDBRANCH   7  11
BRANCH   2  16
HETATM   16  C   UNK N   1      31.090  16.567   8.705  0.00  0.00     0.312 C 
BRANCH  16  17
HETATM   17  N   UNK N   1      32.332  16.688   7.948  0.00  0.00     0.084 N 
HETATM   18  C   UNK N   1      33.207  15.623   8.398  0.00  0.00     0.309 C 
HETATM   19  C   UNK N   1      32.977  17.932   8.343  0.00  0.00     0.309 C 
ENDBRANCH  16  17
ENDBRANCH   2  16
TORSDOF 6
ENDMDL
MODEL 9
REMARK VINA RESULT:      -5.1      4.440      7.887
REMARK  6 active torsions:
REMARK  status: ('A' for Active; 'I' for Inactive)
REMARK    1  A    between atoms: C_2  and  C_10 
REMARK    2  A    between atoms: C_7  and  C_14 
REMARK    3  A    between atoms: C_10  and  N_11 
REMARK    4  A    between atoms: C_14  and  C_15 
REMARK    5  A    between atoms: C_15  and  C_16 
REMARK    6  A    between atoms: C_16  and  O_17 
ROOT
HETATM    1  C   UNK N   1      29.361  17.131   4.340  0.00  0.00     0.098 A 
HETATM    2  C   UNK N   1      29.493  17.241   5.721  0.00  0.00    -0.002 A 
HETATM    3  N   UNK N   1      28.488  18.061   3.890  0.00  0.00    -0.364 N 
HETATM    4  C   UNK N   1      28.428  18.847   7.357  0.00  0.00     0.014 A 
HETATM    5  C   UNK N   1      27.543  19.943   7.414  0.00  0.00     0.002 A 
HETATM    6  C   UNK N   1      26.940  20.441   6.234  0.00  0.00     0.009 A 
HETATM    7  C   UNK N   1      27.212  19.838   4.985  0.00  0.00    -0.030 A 
HETATM    8  C   UNK N   1      28.674  18.275   6.108  0.00  0.00     0.001 A 
HETATM    9  C   UNK N   1      28.084  18.754   4.972  0.00  0.00     0.049 A 
HETATM   10  H   UNK N   1      28.204  18.202   2.958  0.00  0.00     0.165 HD
ENDROOT
BRANCH   7  11
HETATM   11  C   UNK N   1      26.631  20.326   3.689  0.00  0.00     0.043 C 
BRANCH  11  12
HETATM   12  C   UNK N   1      25.319  19.683   3.279  0.00  0.00     0.031 C 
BRANCH  12  13
HETATM   13  C   UNK N   1      24.581  20.664   2.390  0.00  0.00     0.164 C 
BRANCH  13  14
HETATM   14  O   UNK N   1      23.411  21.086   3.018  0.00  0.00    -0.401 OA
HETATM   15  H   UNK N   1      23.003  21.929   2.770  0.00  0.00     0.209 HD
ENDBRANCH  13  14
ENDBRANCH  12  13
ENDBRANCH  11  12
ENDBRANCH   7  11
BRANCH   2  16
HETATM   16  C   UNK N   1      30.409  16.427   6.586  0.00  0.00     0.312 C 
BRANCH  16  17
HETATM   17  N   UNK N   1      31.634  17.154   6.900  0.00  0.00     0.084 N 
HETATM   18  C   UNK N   1      32.743  16.301   6.516  0.00  0.00     0.309 C 
HETATM   19  C   UNK N   1      31.715  17.288   8.348  0.00  0.00     0.309 C 
ENDBRANCH  16  17
ENDBRANCH   2  16
TORSDOF 6
ENDMDL
