REMARK  6 active torsions:
REMARK  status: ('A' for Active; 'I' for Inactive)
REMARK    1  A    between atoms: C_2  and  C_10 
REMARK    2  A    between atoms: C_7  and  C_14 
REMARK    3  A    between atoms: C_10  and  N_11 
REMARK    4  A    between atoms: C_14  and  C_15 
REMARK    5  A    between atoms: C_15  and  C_16 
REMARK    6  A    between atoms: C_16  and  O_17 
ROOT
HETATM    1  C   UNK N   1      -1.711   0.085   0.229  0.00  0.00     0.098 A 
HETATM    2  C   UNK N   1      -0.985   1.272   0.252  0.00  0.00    -0.002 A 
HETATM    3  N   UNK N   1      -0.868  -0.963   0.084  0.00  0.00    -0.364 N 
HETATM    4  C   UNK N   1       1.505   1.685   0.107  0.00  0.00     0.014 A 
HETATM    5  C   UNK N   1       2.734   1.004  -0.009  0.00  0.00     0.002 A 
HETATM    6  C   UNK N   1       2.768  -0.408  -0.097  0.00  0.00     0.009 A 
HETATM    7  C   UNK N   1       1.566  -1.152  -0.080  0.00  0.00    -0.030 A 
HETATM    8  C   UNK N   1       0.338   0.920   0.121  0.00  0.00     0.001 A 
HETATM    9  C   UNK N   1       0.373  -0.443   0.027  0.00  0.00     0.049 A 
HETATM   10  H   UNK N   1      -1.113  -1.915   0.029  0.00  0.00     0.165 HD
ENDROOT
BRANCH   7  11
HETATM   11  C   UNK N   1       1.523  -2.652  -0.144  0.00  0.00     0.043 C 
BRANCH  11  12
HETATM   12  C   UNK N   1       2.873  -3.345  -0.121  0.00  0.00     0.031 C 
BRANCH  12  13
HETATM   13  C   UNK N   1       2.625  -4.839  -0.054  0.00  0.00     0.164 C 
BRANCH  13  14
HETATM   14  O   UNK N   1       3.839  -5.519   0.010  0.00  0.00    -0.401 OA
HETATM   15  H   UNK N   1       3.852  -6.487   0.055  0.00  0.00     0.209 HD
ENDBRANCH  13  14
ENDBRANCH  12  13
ENDBRANCH  11  12
ENDBRANCH   7  11
BRANCH   2  16
HETATM   16  C   UNK N   1      -1.550   2.646   0.453  0.00  0.00     0.312 C 
BRANCH  16  17
HETATM   17  N   UNK N   1      -2.730   2.866  -0.377  0.00  0.00     0.084 N 
HETATM   18  C   UNK N   1      -2.957   4.298  -0.419  0.00  0.00     0.309 C 
HETATM   19  C   UNK N   1      -3.877   2.298   0.317  0.00  0.00     0.309 C 
ENDBRANCH  16  17
ENDBRANCH   2  16
TORSDOF 6
