MODEL 1
REMARK VINA RESULT:      -8.8      0.000      0.000
REMARK  4 active torsions:
REMARK  status: ('A' for Active; 'I' for Inactive)
REMARK       I    between atoms: C_7  and  N_8 
REMARK    1  A    between atoms: C_11  and  N_12 
REMARK    2  A    between atoms: C_16  and  C_17 
REMARK    3  A    between atoms: C_17  and  N_18 
REMARK    4  A    between atoms: C_32  and  O_33 
ROOT
HETATM    1  C   UNK N   1      36.021  14.227  13.257  0.00  0.00     0.116 A 
HETATM    2  N   UNK N   1      36.199  15.358  12.515  0.00  0.00    -0.348 N 
ATOM      3  HN  UNK N   1      36.905  16.038  12.796  1.00  0.00     0.167 HD
HETATM    4  C   UNK N   1      35.447  15.589  11.406  0.00  0.00     0.151 A 
HETATM    5  N   UNK N   1      35.571  16.751  10.709  0.00  0.00    -0.174 N 
ATOM      6  HN  UNK N   1      36.252  17.449  11.009  1.00  0.00     0.186 HD
HETATM    7  C   UNK N   1      34.794  16.989   9.616  0.00  0.00     0.679 A 
HETATM    8  N   UNK N   1      34.904  18.214   8.929  0.00  0.00    -0.234 N 
HETATM    9  N   UNK N   1      33.897  16.056   9.194  0.00  0.00    -0.175 N 
ATOM     10  HN  UNK N   1      33.331  16.243   8.366  1.00  0.00     0.186 HD
HETATM   11  C   UNK N   1      33.744  14.881   9.858  0.00  0.00     0.145 A 
HETATM   12  C   UNK N   1      34.513  14.630  10.997  0.00  0.00     0.122 A 
HETATM   13  N   UNK N   1      34.345  13.503  11.734  0.00  0.00    -0.351 N 
ATOM     14  HN  UNK N   1      33.659  12.810  11.436  1.00  0.00     0.166 HD
HETATM   15  C   UNK N   1      35.071  13.275  12.862  0.00  0.00     0.043 A 
HETATM   16  H   UNK N   1      34.373  18.388   8.118  0.00  0.00     0.174 HD
HETATM   17  H   UNK N   1      35.521  18.906   9.263  0.00  0.00     0.174 HD
ENDROOT
BRANCH  15  18
HETATM   18  C   UNK N   1      34.673  12.176  13.827  0.00  0.00     0.182 C 
BRANCH  18  19
HETATM   19  N   UNK N   1      35.722  11.525  14.626  0.00  0.00    -0.362 N 
HETATM   20  C   UNK N   1      36.727  10.708  13.910  0.00  0.00     0.140 C 
HETATM   21  C   UNK N   1      36.152  10.141  12.611  0.00  0.00    -0.001 C 
HETATM   22  C   UNK N   1      37.451   9.528  14.564  0.00  0.00    -0.035 C 
HETATM   23  C   UNK N   1      36.935   9.390  11.819  0.00  0.00    -0.025 C 
HETATM   24  C   UNK N   1      38.329   9.072  12.293  0.00  0.00     0.054 C 
HETATM   25  C   UNK N   1      38.234   8.767  13.767  0.00  0.00    -0.014 C 
HETATM   26  C   UNK N   1      37.341   9.063  15.929  0.00  0.00     0.010 C 
HETATM   27  C   UNK N   1      36.820   9.673  16.968  0.00  0.00     0.014 C 
HETATM   28  C   UNK N   1      36.187  10.977  17.092  0.00  0.00    -0.007 A 
HETATM   29  C   UNK N   1      35.990  11.350  18.429  0.00  0.00     0.050 A 
HETATM   30  C   UNK N   1      35.693  11.819  16.046  0.00  0.00     0.042 A 
HETATM   31  C   UNK N   1      35.342  12.525  18.775  0.00  0.00     0.066 A 
HETATM   32  C   UNK N   1      34.861  13.360  17.781  0.00  0.00     0.039 A 
HETATM   33  C   UNK N   1      35.026  13.006  16.443  0.00  0.00     0.033 A 
BRANCH  31  34
HETATM   34  O   UNK N   1      35.169  12.842  20.070  0.00  0.00    -0.361 OA
HETATM   35  H   UNK N   1      34.369  13.225  20.370  0.00  0.00     0.217 HD
ENDBRANCH  31  34
ENDBRANCH  18  19
ENDBRANCH  15  18
BRANCH  11  36
HETATM   36  N   UNK N   1      32.797  13.939   9.406  0.00  0.00    -0.383 N 
HETATM   37  H   UNK N   1      32.216  14.152   8.641  0.00  0.00     0.157 HD
HETATM   38  H   UNK N   1      32.718  13.067   9.855  0.00  0.00     0.157 HD
ENDBRANCH  11  36
TORSDOF 4
ENDMDL
MODEL 2
REMARK VINA RESULT:      -8.5      5.138      9.939
REMARK  4 active torsions:
REMARK  status: ('A' for Active; 'I' for Inactive)
REMARK       I    between atoms: C_7  and  N_8 
REMARK    1  A    between atoms: C_11  and  N_12 
REMARK    2  A    between atoms: C_16  and  C_17 
REMARK    3  A    between atoms: C_17  and  N_18 
REMARK    4  A    between atoms: C_32  and  O_33 
ROOT
HETATM    1  C   UNK N   1      34.588  17.956   8.909  0.00  0.00     0.116 A 
HETATM    2  N   UNK N   1      35.355  17.491   9.938  0.00  0.00    -0.348 N 
ATOM      3  HN  UNK N   1      35.977  18.130  10.431  1.00  0.00     0.167 HD
HETATM    4  C   UNK N   1      35.299  16.185  10.313  0.00  0.00     0.151 A 
HETATM    5  N   UNK N   1      36.117  15.704  11.288  0.00  0.00    -0.174 N 
ATOM      6  HN  UNK N   1      36.766  16.335  11.758  1.00  0.00     0.186 HD
HETATM    7  C   UNK N   1      36.078  14.389  11.640  0.00  0.00     0.679 A 
HETATM    8  N   UNK N   1      36.960  13.897  12.621  0.00  0.00    -0.234 N 
HETATM    9  N   UNK N   1      35.201  13.542  11.034  0.00  0.00    -0.175 N 
ATOM     10  HN  UNK N   1      35.173  12.563  11.316  1.00  0.00     0.186 HD
HETATM   11  C   UNK N   1      34.363  13.982  10.059  0.00  0.00     0.145 A 
HETATM   12  C   UNK N   1      34.408  15.321   9.666  0.00  0.00     0.122 A 
HETATM   13  N   UNK N   1      33.642  15.790   8.649  0.00  0.00    -0.351 N 
ATOM     14  HN  UNK N   1      32.999  15.156   8.175  1.00  0.00     0.166 HD
HETATM   15  C   UNK N   1      33.711  17.087   8.244  0.00  0.00     0.043 A 
HETATM   16  H   UNK N   1      36.921  12.956  12.910  0.00  0.00     0.174 HD
HETATM   17  H   UNK N   1      37.625  14.501  13.025  0.00  0.00     0.174 HD
ENDROOT
BRANCH  15  18
HETATM   18  C   UNK N   1      33.084  17.522   6.935  0.00  0.00     0.182 C 
BRANCH  18  19
HETATM   19  N   UNK N   1      31.885  16.816   6.458  0.00  0.00    -0.362 N 
HETATM   20  C   UNK N   1      32.058  15.812   5.384  0.00  0.00     0.140 C 
HETATM   21  C   UNK N   1      33.273  16.140   4.515  0.00  0.00    -0.001 C 
HETATM   22  C   UNK N   1      30.949  15.466   4.389  0.00  0.00    -0.035 C 
HETATM   23  C   UNK N   1      33.596  15.319   3.500  0.00  0.00    -0.025 C 
HETATM   24  C   UNK N   1      32.689  14.151   3.215  0.00  0.00     0.054 C 
HETATM   25  C   UNK N   1      31.273  14.646   3.363  0.00  0.00    -0.014 C 
HETATM   26  C   UNK N   1      29.595  15.975   4.353  0.00  0.00     0.010 C 
HETATM   27  C   UNK N   1      28.935  16.627   5.283  0.00  0.00     0.014 C 
HETATM   28  C   UNK N   1      29.333  17.054   6.615  0.00  0.00    -0.007 A 
HETATM   29  C   UNK N   1      28.246  17.504   7.378  0.00  0.00     0.050 A 
HETATM   30  C   UNK N   1      30.655  17.138   7.155  0.00  0.00     0.042 A 
HETATM   31  C   UNK N   1      28.409  18.020   8.654  0.00  0.00     0.066 A 
HETATM   32  C   UNK N   1      29.678  18.106   9.200  0.00  0.00     0.039 A 
HETATM   33  C   UNK N   1      30.779  17.682   8.459  0.00  0.00     0.033 A 
BRANCH  31  34
HETATM   34  O   UNK N   1      27.340  18.447   9.348  0.00  0.00    -0.361 OA
HETATM   35  H   UNK N   1      26.543  18.677   8.914  0.00  0.00     0.217 HD
ENDBRANCH  31  34
ENDBRANCH  18  19
ENDBRANCH  15  18
BRANCH  11  36
HETATM   36  N   UNK N   1      33.475  13.079   9.439  0.00  0.00    -0.383 N 
HETATM   37  H   UNK N   1      33.756  12.581   8.638  0.00  0.00     0.157 HD
HETATM   38  H   UNK N   1      32.572  12.945   9.808  0.00  0.00     0.157 HD
ENDBRANCH  11  36
TORSDOF 4
ENDMDL
MODEL 3
REMARK VINA RESULT:      -8.1     10.335     14.856
REMARK  4 active torsions:
REMARK  status: ('A' for Active; 'I' for Inactive)
REMARK       I    between atoms: C_7  and  N_8 
REMARK    1  A    between atoms: C_11  and  N_12 
REMARK    2  A    between atoms: C_16  and  C_17 
REMARK    3  A    between atoms: C_17  and  N_18 
REMARK    4  A    between atoms: C_32  and  O_33 
ROOT
HETATM    1  C   UNK N   1      28.945  16.799   4.032  0.00  0.00     0.116 A 
HETATM    2  N   UNK N   1      30.039  16.761   4.847  0.00  0.00    -0.348 N 
ATOM      3  HN  UNK N   1      30.905  16.343   4.509  1.00  0.00     0.167 HD
HETATM    4  C   UNK N   1      29.987  17.275   6.105  0.00  0.00     0.151 A 
HETATM    5  N   UNK N   1      31.052  17.171   6.945  0.00  0.00    -0.174 N 
ATOM      6  HN  UNK N   1      31.908  16.721   6.621  1.00  0.00     0.186 HD
HETATM    7  C   UNK N   1      30.985  17.662   8.214  0.00  0.00     0.679 A 
HETATM    8  N   UNK N   1      32.081  17.509   9.085  0.00  0.00    -0.234 N 
HETATM    9  N   UNK N   1      29.855  18.282   8.651  0.00  0.00    -0.175 N 
ATOM     10  HN  UNK N   1      29.823  18.657   9.599  1.00  0.00     0.186 HD
HETATM   11  C   UNK N   1      28.770  18.412   7.843  0.00  0.00     0.145 A 
HETATM   12  C   UNK N   1      28.811  17.892   6.548  0.00  0.00     0.122 A 
HETATM   13  N   UNK N   1      27.728  17.933   5.731  0.00  0.00    -0.351 N 
ATOM     14  HN  UNK N   1      26.872  18.377   6.060  1.00  0.00     0.166 HD
HETATM   15  C   UNK N   1      27.759  17.396   4.481  0.00  0.00     0.043 A 
HETATM   16  H   UNK N   1      32.060  17.887   9.994  0.00  0.00     0.174 HD
HETATM   17  H   UNK N   1      32.880  17.019   8.782  0.00  0.00     0.174 HD
ENDROOT
BRANCH  15  18
HETATM   18  C   UNK N   1      26.477  17.183   3.701  0.00  0.00     0.182 C 
BRANCH  18  19
HETATM   19  N   UNK N   1      25.195  17.233   4.422  0.00  0.00    -0.362 N 
HETATM   20  C   UNK N   1      24.968  16.238   5.493  0.00  0.00     0.140 C 
HETATM   21  C   UNK N   1      25.767  14.959   5.236  0.00  0.00    -0.001 C 
HETATM   22  C   UNK N   1      23.571  15.753   5.888  0.00  0.00    -0.035 C 
HETATM   23  C   UNK N   1      25.697  13.951   6.123  0.00  0.00    -0.025 C 
HETATM   24  C   UNK N   1      24.764  14.100   7.295  0.00  0.00     0.054 C 
HETATM   25  C   UNK N   1      23.499  14.734   6.775  0.00  0.00    -0.014 C 
HETATM   26  C   UNK N   1      22.296  16.193   5.366  0.00  0.00     0.010 C 
HETATM   27  C   UNK N   1      22.023  17.258   4.648  0.00  0.00     0.014 C 
HETATM   28  C   UNK N   1      22.884  18.316   4.143  0.00  0.00    -0.007 A 
HETATM   29  C   UNK N   1      22.155  19.399   3.632  0.00  0.00     0.050 A 
HETATM   30  C   UNK N   1      24.311  18.317   4.041  0.00  0.00     0.042 A 
HETATM   31  C   UNK N   1      22.776  20.487   3.039  0.00  0.00     0.066 A 
HETATM   32  C   UNK N   1      24.156  20.514   2.934  0.00  0.00     0.039 A 
HETATM   33  C   UNK N   1      24.906  19.443   3.417  0.00  0.00     0.033 A 
BRANCH  31  34
HETATM   34  O   UNK N   1      22.039  21.502   2.556  0.00  0.00    -0.361 OA
HETATM   35  H   UNK N   1      22.295  21.958   1.780  0.00  0.00     0.217 HD
ENDBRANCH  31  34
ENDBRANCH  18  19
ENDBRANCH  15  18
BRANCH  11  36
HETATM   36  N   UNK N   1      27.609  19.048   8.328  0.00  0.00    -0.383 N 
HETATM   37  H   UNK N   1      26.781  18.531   8.457  0.00  0.00     0.157 HD
HETATM   38  H   UNK N   1      27.625  20.009   8.538  0.00  0.00     0.157 HD
ENDBRANCH  11  36
TORSDOF 4
ENDMDL
MODEL 4
REMARK VINA RESULT:      -8.0      3.061      4.792
REMARK  4 active torsions:
REMARK  status: ('A' for Active; 'I' for Inactive)
REMARK       I    between atoms: C_7  and  N_8 
REMARK    1  A    between atoms: C_11  and  N_12 
REMARK    2  A    between atoms: C_16  and  C_17 
REMARK    3  A    between atoms: C_17  and  N_18 
REMARK    4  A    between atoms: C_32  and  O_33 
ROOT
HETATM    1  C   UNK N   1      35.650  15.769  11.848  0.00  0.00     0.116 A 
HETATM    2  N   UNK N   1      35.024  16.657  11.021  0.00  0.00    -0.348 N 
ATOM      3  HN  UNK N   1      34.616  17.506  11.410  1.00  0.00     0.167 HD
HETATM    4  C   UNK N   1      34.940  16.421   9.684  0.00  0.00     0.151 A 
HETATM    5  N   UNK N   1      34.251  17.266   8.870  0.00  0.00    -0.174 N 
ATOM      6  HN  UNK N   1      33.812  18.099   9.263  1.00  0.00     0.186 HD
HETATM    7  C   UNK N   1      34.145  17.010   7.536  0.00  0.00     0.679 A 
HETATM    8  N   UNK N   1      33.394  17.872   6.713  0.00  0.00    -0.234 N 
HETATM    9  N   UNK N   1      34.745  15.913   6.998  0.00  0.00    -0.175 N 
ATOM     10  HN  UNK N   1      34.668  15.741   5.995  1.00  0.00     0.186 HD
HETATM   11  C   UNK N   1      35.446  15.046   7.774  0.00  0.00     0.145 A 
HETATM   12  C   UNK N   1      35.543  15.278   9.148  0.00  0.00     0.122 A 
HETATM   13  N   UNK N   1      36.170  14.402   9.974  0.00  0.00    -0.351 N 
ATOM     14  HN  UNK N   1      36.603  13.567   9.580  1.00  0.00     0.166 HD
HETATM   15  C   UNK N   1      36.236  14.612  11.316  0.00  0.00     0.043 A 
HETATM   16  H   UNK N   1      33.336  17.718   5.742  0.00  0.00     0.174 HD
HETATM   17  H   UNK N   1      32.922  18.638   7.113  0.00  0.00     0.174 HD
ENDROOT
BRANCH  15  18
HETATM   18  C   UNK N   1      36.668  13.500  12.251  0.00  0.00     0.182 C 
BRANCH  18  19
HETATM   19  N   UNK N   1      35.652  12.848  13.091  0.00  0.00    -0.362 N 
HETATM   20  C   UNK N   1      35.497  13.326  14.482  0.00  0.00     0.140 C 
HETATM   21  C   UNK N   1      36.805  13.917  15.011  0.00  0.00    -0.001 C 
HETATM   22  C   UNK N   1      34.991  12.428  15.614  0.00  0.00    -0.035 C 
HETATM   23  C   UNK N   1      36.844  14.422  16.256  0.00  0.00    -0.025 C 
HETATM   24  C   UNK N   1      35.607  14.305  17.107  0.00  0.00     0.054 C 
HETATM   25  C   UNK N   1      35.035  12.931  16.868  0.00  0.00    -0.014 C 
HETATM   26  C   UNK N   1      34.540  11.056  15.526  0.00  0.00     0.010 C 
HETATM   27  C   UNK N   1      34.217  10.362  14.459  0.00  0.00     0.014 C 
HETATM   28  C   UNK N   1      34.213  10.721  13.050  0.00  0.00    -0.007 A 
HETATM   29  C   UNK N   1      33.562   9.766  12.257  0.00  0.00     0.050 A 
HETATM   30  C   UNK N   1      34.852  11.839  12.425  0.00  0.00     0.042 A 
HETATM   31  C   UNK N   1      33.501   9.876  10.877  0.00  0.00     0.066 A 
HETATM   32  C   UNK N   1      34.105  10.952  10.249  0.00  0.00     0.039 A 
HETATM   33  C   UNK N   1      34.776  11.908  11.011  0.00  0.00     0.033 A 
BRANCH  31  34
HETATM   34  O   UNK N   1      32.871   8.935  10.154  0.00  0.00    -0.361 OA
HETATM   35  H   UNK N   1      32.963   8.026  10.361  0.00  0.00     0.217 HD
ENDBRANCH  31  34
ENDBRANCH  18  19
ENDBRANCH  15  18
BRANCH  11  36
HETATM   36  N   UNK N   1      36.045  13.911   7.191  0.00  0.00    -0.383 N 
HETATM   37  H   UNK N   1      35.496  13.128   6.956  0.00  0.00     0.157 HD
HETATM   38  H   UNK N   1      37.014  13.901   7.017  0.00  0.00     0.157 HD
ENDBRANCH  11  36
TORSDOF 4
ENDMDL
MODEL 5
REMARK VINA RESULT:      -8.0     14.167     17.311
REMARK  4 active torsions:
REMARK  status: ('A' for Active; 'I' for Inactive)
REMARK       I    between atoms: C_7  and  N_8 
REMARK    1  A    between atoms: C_11  and  N_12 
REMARK    2  A    between atoms: C_16  and  C_17 
REMARK    3  A    between atoms: C_17  and  N_18 
REMARK    4  A    between atoms: C_32  and  O_33 
ROOT
HETATM    1  C   UNK N   1      23.987  14.580   5.799  0.00  0.00     0.116 A 
HETATM    2  N   UNK N   1      23.599  13.879   6.904  0.00  0.00    -0.348 N 
ATOM      3  HN  UNK N   1      24.110  13.039   7.172  1.00  0.00     0.167 HD
HETATM    4  C   UNK N   1      22.539  14.288   7.651  0.00  0.00     0.151 A 
HETATM    5  N   UNK N   1      22.105  13.549   8.708  0.00  0.00    -0.174 N 
ATOM      6  HN  UNK N   1      22.593  12.689   8.957  1.00  0.00     0.186 HD
HETATM    7  C   UNK N   1      21.025  13.949   9.435  0.00  0.00     0.679 A 
HETATM    8  N   UNK N   1      20.562  13.152  10.501  0.00  0.00    -0.234 N 
HETATM    9  N   UNK N   1      20.378  15.106   9.126  0.00  0.00    -0.175 N 
ATOM     10  HN  UNK N   1      19.579  15.399   9.688  1.00  0.00     0.186 HD
HETATM   11  C   UNK N   1      20.782  15.876   8.082  0.00  0.00     0.145 A 
HETATM   12  C   UNK N   1      21.870  15.469   7.308  0.00  0.00     0.122 A 
HETATM   13  N   UNK N   1      22.265  16.167   6.213  0.00  0.00    -0.351 N 
ATOM     14  HN  UNK N   1      21.770  17.023   5.962  1.00  0.00     0.166 HD
HETATM   15  C   UNK N   1      23.304  15.751   5.440  0.00  0.00     0.043 A 
HETATM   16  H   UNK N   1      19.803  13.444  11.056  0.00  0.00     0.174 HD
HETATM   17  H   UNK N   1      21.003  12.292  10.693  0.00  0.00     0.174 HD
ENDROOT
BRANCH  15  18
HETATM   18  C   UNK N   1      23.543  16.362   4.074  0.00  0.00     0.182 C 
BRANCH  18  19
HETATM   19  N   UNK N   1      23.658  17.824   3.964  0.00  0.00    -0.362 N 
HETATM   20  C   UNK N   1      22.411  18.602   3.789  0.00  0.00     0.140 C 
HETATM   21  C   UNK N   1      21.331  17.765   3.100  0.00  0.00    -0.001 C 
HETATM   22  C   UNK N   1      22.374  19.953   3.070  0.00  0.00    -0.035 C 
HETATM   23  C   UNK N   1      20.122  18.306   2.878  0.00  0.00    -0.025 C 
HETATM   24  C   UNK N   1      19.911  19.751   3.248  0.00  0.00     0.054 C 
HETATM   25  C   UNK N   1      21.157  20.496   2.840  0.00  0.00    -0.014 C 
HETATM   26  C   UNK N   1      23.485  20.700   2.522  0.00  0.00     0.010 C 
HETATM   27  C   UNK N   1      24.771  20.537   2.732  0.00  0.00     0.014 C 
HETATM   28  C   UNK N   1      25.490  19.575   3.552  0.00  0.00    -0.007 A 
HETATM   29  C   UNK N   1      26.846  19.903   3.694  0.00  0.00     0.050 A 
HETATM   30  C   UNK N   1      24.999  18.355   4.114  0.00  0.00     0.042 A 
HETATM   31  C   UNK N   1      27.731  19.086   4.380  0.00  0.00     0.066 A 
HETATM   32  C   UNK N   1      27.278  17.903   4.938  0.00  0.00     0.039 A 
HETATM   33  C   UNK N   1      25.939  17.542   4.797  0.00  0.00     0.033 A 
BRANCH  31  34
HETATM   34  O   UNK N   1      29.024  19.436   4.487  0.00  0.00    -0.361 OA
HETATM   35  H   UNK N   1      29.705  18.801   4.387  0.00  0.00     0.217 HD
ENDBRANCH  31  34
ENDBRANCH  18  19
ENDBRANCH  15  18
BRANCH  11  36
HETATM   36  N   UNK N   1      20.084  17.062   7.776  0.00  0.00    -0.383 N 
HETATM   37  H   UNK N   1      20.249  17.526   6.924  0.00  0.00     0.157 HD
HETATM   38  H   UNK N   1      19.431  17.428   8.415  0.00  0.00     0.157 HD
ENDBRANCH  11  36
TORSDOF 4
ENDMDL
MODEL 6
REMARK VINA RESULT:      -7.8      4.902      9.669
REMARK  4 active torsions:
REMARK  status: ('A' for Active; 'I' for Inactive)
REMARK       I    between atoms: C_7  and  N_8 
REMARK    1  A    between atoms: C_11  and  N_12 
REMARK    2  A    between atoms: C_16  and  C_17 
REMARK    3  A    between atoms: C_17  and  N_18 
REMARK    4  A    between atoms: C_32  and  O_33 
ROOT
HETATM    1  C   UNK N   1      33.145  15.344  10.021  0.00  0.00     0.116 A 
HETATM    2  N   UNK N   1      33.595  14.661  11.114  0.00  0.00    -0.348 N 
ATOM      3  HN  UNK N   1      32.942  14.418  11.859  1.00  0.00     0.167 HD
HETATM    4  C   UNK N   1      34.901  14.303  11.221  0.00  0.00     0.151 A 
HETATM    5  N   UNK N   1      35.366  13.690  12.344  0.00  0.00    -0.174 N 
ATOM      6  HN  UNK N   1      34.722  13.477  13.106  1.00  0.00     0.186 HD
HETATM    7  C   UNK N   1      36.682  13.359  12.458  0.00  0.00     0.679 A 
HETATM    8  N   UNK N   1      37.157  12.762  13.643  0.00  0.00    -0.234 N 
HETATM    9  N   UNK N   1      37.547  13.620  11.440  0.00  0.00    -0.175 N 
ATOM     10  HN  UNK N   1      38.528  13.354  11.534  1.00  0.00     0.186 HD
HETATM   11  C   UNK N   1      37.124  14.226  10.300  0.00  0.00     0.145 A 
HETATM   12  C   UNK N   1      35.784  14.596  10.175  0.00  0.00     0.122 A 
HETATM   13  N   UNK N   1      35.330  15.269   9.087  0.00  0.00    -0.351 N 
ATOM     14  HN  UNK N   1      35.978  15.487   8.329  1.00  0.00     0.166 HD
HETATM   15  C   UNK N   1      34.031  15.659   8.981  0.00  0.00     0.043 A 
HETATM   16  H   UNK N   1      38.098  12.488  13.728  0.00  0.00     0.174 HD
HETATM   17  H   UNK N   1      36.539  12.618  14.396  0.00  0.00     0.174 HD
ENDROOT
BRANCH  15  18
HETATM   18  C   UNK N   1      33.608  16.653   7.919  0.00  0.00     0.182 C 
BRANCH  18  19
HETATM   19  N   UNK N   1      32.488  16.304   7.031  0.00  0.00    -0.362 N 
HETATM   20  C   UNK N   1      32.744  15.326   5.951  0.00  0.00     0.140 C 
HETATM   21  C   UNK N   1      34.212  15.349   5.523  0.00  0.00    -0.001 C 
HETATM   22  C   UNK N   1      31.955  15.317   4.639  0.00  0.00    -0.035 C 
HETATM   23  C   UNK N   1      34.631  14.506   4.563  0.00  0.00    -0.025 C 
HETATM   24  C   UNK N   1      33.607  13.628   3.893  0.00  0.00     0.054 C 
HETATM   25  C   UNK N   1      32.379  14.475   3.670  0.00  0.00    -0.014 C 
HETATM   26  C   UNK N   1      30.847  16.167   4.262  0.00  0.00     0.010 C 
HETATM   27  C   UNK N   1      30.105  16.939   5.023  0.00  0.00     0.014 C 
HETATM   28  C   UNK N   1      30.153  17.202   6.452  0.00  0.00    -0.007 A 
HETATM   29  C   UNK N   1      29.024  17.898   6.905  0.00  0.00     0.050 A 
HETATM   30  C   UNK N   1      31.217  16.917   7.365  0.00  0.00     0.042 A 
HETATM   31  C   UNK N   1      28.895  18.312   8.222  0.00  0.00     0.066 A 
HETATM   32  C   UNK N   1      29.908  18.042   9.125  0.00  0.00     0.039 A 
HETATM   33  C   UNK N   1      31.051  17.367   8.699  0.00  0.00     0.033 A 
BRANCH  31  34
HETATM   34  O   UNK N   1      27.798  18.982   8.612  0.00  0.00    -0.361 OA
HETATM   35  H   UNK N   1      27.210  18.619   9.244  0.00  0.00     0.217 HD
ENDBRANCH  31  34
ENDBRANCH  18  19
ENDBRANCH  15  18
BRANCH  11  36
HETATM   36  N   UNK N   1      38.045  14.495   9.267  0.00  0.00    -0.383 N 
HETATM   37  H   UNK N   1      37.887  14.145   8.360  0.00  0.00     0.157 HD
HETATM   38  H   UNK N   1      38.848  15.034   9.451  0.00  0.00     0.157 HD
ENDBRANCH  11  36
TORSDOF 4
ENDMDL
MODEL 7
REMARK VINA RESULT:      -7.8      2.222      2.771
REMARK  4 active torsions:
REMARK  status: ('A' for Active; 'I' for Inactive)
REMARK       I    between atoms: C_7  and  N_8 
REMARK    1  A    between atoms: C_11  and  N_12 
REMARK    2  A    between atoms: C_16  and  C_17 
REMARK    3  A    between atoms: C_17  and  N_18 
REMARK    4  A    between atoms: C_32  and  O_33 
ROOT
HETATM    1  C   UNK N   1      35.769  15.188  12.049  0.00  0.00     0.116 A 
HETATM    2  N   UNK N   1      34.934  16.077  11.437  0.00  0.00    -0.348 N 
ATOM      3  HN  UNK N   1      34.452  16.781  11.995  1.00  0.00     0.167 HD
HETATM    4  C   UNK N   1      34.735  16.034  10.093  0.00  0.00     0.151 A 
HETATM    5  N   UNK N   1      33.846  16.870   9.492  0.00  0.00    -0.174 N 
ATOM      6  HN  UNK N   1      33.337  17.553  10.054  1.00  0.00     0.186 HD
HETATM    7  C   UNK N   1      33.630  16.804   8.149  0.00  0.00     0.679 A 
HETATM    8  N   UNK N   1      32.675  17.647   7.548  0.00  0.00    -0.234 N 
HETATM    9  N   UNK N   1      34.319  15.911   7.386  0.00  0.00    -0.175 N 
ATOM     10  HN  UNK N   1      34.157  15.881   6.379  1.00  0.00     0.186 HD
HETATM   11  C   UNK N   1      35.220  15.061   7.945  0.00  0.00     0.145 A 
HETATM   12  C   UNK N   1      35.435  15.097   9.324  0.00  0.00     0.122 A 
HETATM   13  N   UNK N   1      36.270  14.219   9.936  0.00  0.00    -0.351 N 
ATOM     14  HN  UNK N   1      36.773  13.533   9.373  1.00  0.00     0.166 HD
HETATM   15  C   UNK N   1      36.454  14.233  11.284  0.00  0.00     0.043 A 
HETATM   16  H   UNK N   1      32.532  17.634   6.574  0.00  0.00     0.174 HD
HETATM   17  H   UNK N   1      32.145  18.260   8.109  0.00  0.00     0.174 HD
ENDROOT
BRANCH  15  18
HETATM   18  C   UNK N   1      37.144  13.078  11.981  0.00  0.00     0.182 C 
BRANCH  18  19
HETATM   19  N   UNK N   1      36.329  12.138  12.766  0.00  0.00    -0.362 N 
HETATM   20  C   UNK N   1      35.949  10.857  12.130  0.00  0.00     0.140 C 
HETATM   21  C   UNK N   1      35.884  10.995  10.608  0.00  0.00    -0.001 C 
HETATM   22  C   UNK N   1      34.678  10.092  12.507  0.00  0.00    -0.035 C 
HETATM   23  C   UNK N   1      35.573   9.921   9.863  0.00  0.00    -0.025 C 
HETATM   24  C   UNK N   1      35.222   8.641  10.574  0.00  0.00     0.054 C 
HETATM   25  C   UNK N   1      34.360   9.015  11.754  0.00  0.00    -0.014 C 
HETATM   26  C   UNK N   1      33.710  10.424  13.529  0.00  0.00     0.010 C 
HETATM   27  C   UNK N   1      33.818  11.280  14.520  0.00  0.00     0.014 C 
HETATM   28  C   UNK N   1      34.909  12.162  14.905  0.00  0.00    -0.007 A 
HETATM   29  C   UNK N   1      34.713  12.730  16.172  0.00  0.00     0.050 A 
HETATM   30  C   UNK N   1      36.044  12.551  14.126  0.00  0.00     0.042 A 
HETATM   31  C   UNK N   1      35.597  13.654  16.706  0.00  0.00     0.066 A 
HETATM   32  C   UNK N   1      36.706  14.042  15.974  0.00  0.00     0.039 A 
HETATM   33  C   UNK N   1      36.917  13.506  14.705  0.00  0.00     0.033 A 
BRANCH  31  34
HETATM   34  O   UNK N   1      35.368  14.179  17.921  0.00  0.00    -0.361 OA
HETATM   35  H   UNK N   1      35.967  14.790  18.304  0.00  0.00     0.217 HD
ENDBRANCH  31  34
ENDBRANCH  18  19
ENDBRANCH  15  18
BRANCH  11  36
HETATM   36  N   UNK N   1      35.909  14.138   7.131  0.00  0.00    -0.383 N 
HETATM   37  H   UNK N   1      36.769  13.763   7.430  0.00  0.00     0.157 HD
HETATM   38  H   UNK N   1      35.530  13.867   6.264  0.00  0.00     0.157 HD
ENDBRANCH  11  36
TORSDOF 4
ENDMDL
MODEL 8
REMARK VINA RESULT:      -7.8     13.525     17.693
REMARK  4 active torsions:
REMARK  status: ('A' for Active; 'I' for Inactive)
REMARK       I    between atoms: C_7  and  N_8 
REMARK    1  A    between atoms: C_11  and  N_12 
REMARK    2  A    between atoms: C_16  and  C_17 
REMARK    3  A    between atoms: C_17  and  N_18 
REMARK    4  A    between atoms: C_32  and  O_33 
ROOT
HETATM    1  C   UNK N   1      24.329  17.000   3.780  0.00  0.00     0.116 A 
HETATM    2  N   UNK N   1      25.655  16.841   3.499  0.00  0.00    -0.348 N 
ATOM      3  HN  UNK N   1      25.941  16.177   2.780  1.00  0.00     0.167 HD
HETATM    4  C   UNK N   1      26.598  17.558   4.165  0.00  0.00     0.151 A 
HETATM    5  N   UNK N   1      27.923  17.345   3.940  0.00  0.00    -0.174 N 
ATOM      6  HN  UNK N   1      28.213  16.656   3.247  1.00  0.00     0.186 HD
HETATM    7  C   UNK N   1      28.864  18.046   4.632  0.00  0.00     0.679 A 
HETATM    8  N   UNK N   1      30.232  17.786   4.417  0.00  0.00    -0.234 N 
HETATM    9  N   UNK N   1      28.490  18.983   5.544  0.00  0.00    -0.175 N 
ATOM     10  HN  UNK N   1      29.206  19.510   6.046  1.00  0.00     0.186 HD
HETATM   11  C   UNK N   1      27.178  19.230   5.797  0.00  0.00     0.145 A 
HETATM   12  C   UNK N   1      26.199  18.504   5.117  0.00  0.00     0.122 A 
HETATM   13  N   UNK N   1      24.878  18.664   5.387  0.00  0.00    -0.351 N 
ATOM     14  HN  UNK N   1      24.592  19.349   6.086  1.00  0.00     0.166 HD
HETATM   15  C   UNK N   1      23.927  17.931   4.748  0.00  0.00     0.043 A 
HETATM   16  H   UNK N   1      30.925  18.306   4.886  0.00  0.00     0.174 HD
HETATM   17  H   UNK N   1      30.500  17.074   3.791  0.00  0.00     0.174 HD
ENDROOT
BRANCH  15  18
HETATM   18  C   UNK N   1      22.501  17.902   5.261  0.00  0.00     0.182 C 
BRANCH  18  19
HETATM   19  N   UNK N   1      21.445  17.373   4.383  0.00  0.00    -0.362 N 
HETATM   20  C   UNK N   1      20.792  16.106   4.778  0.00  0.00     0.140 C 
HETATM   21  C   UNK N   1      21.732  15.240   5.619  0.00  0.00    -0.001 C 
HETATM   22  C   UNK N   1      20.179  15.140   3.761  0.00  0.00    -0.035 C 
HETATM   23  C   UNK N   1      21.296  14.057   6.085  0.00  0.00    -0.025 C 
HETATM   24  C   UNK N   1      19.918  13.600   5.683  0.00  0.00     0.054 C 
HETATM   25  C   UNK N   1      19.746  13.947   4.226  0.00  0.00    -0.014 C 
HETATM   26  C   UNK N   1      20.075  15.306   2.327  0.00  0.00     0.010 C 
HETATM   27  C   UNK N   1      20.234  16.395   1.610  0.00  0.00     0.014 C 
HETATM   28  C   UNK N   1      20.567  17.755   2.000  0.00  0.00    -0.007 A 
HETATM   29  C   UNK N   1      20.394  18.669   0.952  0.00  0.00     0.050 A 
HETATM   30  C   UNK N   1      21.109  18.207   3.246  0.00  0.00     0.042 A 
HETATM   31  C   UNK N   1      20.719  20.010   1.085  0.00  0.00     0.066 A 
HETATM   32  C   UNK N   1      21.238  20.472   2.282  0.00  0.00     0.039 A 
HETATM   33  C   UNK N   1      21.438  19.583   3.337  0.00  0.00     0.033 A 
BRANCH  31  34
HETATM   34  O   UNK N   1      20.543  20.851   0.052  0.00  0.00    -0.361 OA
HETATM   35  H   UNK N   1      21.276  21.212  -0.406  0.00  0.00     0.217 HD
ENDBRANCH  31  34
ENDBRANCH  18  19
ENDBRANCH  15  18
BRANCH  11  36
HETATM   36  N   UNK N   1      26.820  20.198   6.758  0.00  0.00    -0.383 N 
HETATM   37  H   UNK N   1      26.251  20.960   6.502  0.00  0.00     0.157 HD
HETATM   38  H   UNK N   1      27.137  20.112   7.685  0.00  0.00     0.157 HD
ENDBRANCH  11  36
TORSDOF 4
ENDMDL
MODEL 9
REMARK VINA RESULT:      -7.7     14.710     18.769
REMARK  4 active torsions:
REMARK  status: ('A' for Active; 'I' for Inactive)
REMARK       I    between atoms: C_7  and  N_8 
REMARK    1  A    between atoms: C_11  and  N_12 
REMARK    2  A    between atoms: C_16  and  C_17 
REMARK    3  A    between atoms: C_17  and  N_18 
REMARK    4  A    between atoms: C_32  and  O_33 
ROOT
HETATM    1  C   UNK N   1      20.624  15.073   6.314  0.00  0.00     0.116 A 
HETATM    2  N   UNK N   1      20.389  14.636   7.585  0.00  0.00    -0.348 N 
ATOM      3  HN  UNK N   1      19.625  15.042   8.125  1.00  0.00     0.167 HD
HETATM    4  C   UNK N   1      21.162  13.666   8.141  0.00  0.00     0.151 A 
HETATM    5  N   UNK N   1      20.978  13.283   9.434  0.00  0.00    -0.174 N 
ATOM      6  HN  UNK N   1      20.237  13.713   9.987  1.00  0.00     0.186 HD
HETATM    7  C   UNK N   1      21.775  12.331   9.995  0.00  0.00     0.679 A 
HETATM    8  N   UNK N   1      21.599  11.974  11.346  0.00  0.00    -0.234 N 
HETATM    9  N   UNK N   1      22.754  11.735   9.260  0.00  0.00    -0.175 N 
ATOM     10  HN  UNK N   1      23.334  11.014   9.689  1.00  0.00     0.186 HD
HETATM   11  C   UNK N   1      22.969  12.084   7.965  0.00  0.00     0.145 A 
HETATM   12  C   UNK N   1      22.180  13.077   7.381  0.00  0.00     0.122 A 
HETATM   13  N   UNK N   1      22.404  13.510   6.114  0.00  0.00    -0.351 N 
ATOM     14  HN  UNK N   1      23.150  13.083   5.566  1.00  0.00     0.166 HD
HETATM   15  C   UNK N   1      21.656  14.501   5.558  0.00  0.00     0.043 A 
HETATM   16  H   UNK N   1      22.145  11.265  11.756  0.00  0.00     0.174 HD
HETATM   17  H   UNK N   1      20.921  12.440  11.888  0.00  0.00     0.174 HD
ENDROOT
BRANCH  15  18
HETATM   18  C   UNK N   1      22.099  15.173   4.274  0.00  0.00     0.182 C 
BRANCH  18  19
HETATM   19  N   UNK N   1      21.072  15.611   3.316  0.00  0.00    -0.362 N 
HETATM   20  C   UNK N   1      20.295  14.566   2.613  0.00  0.00     0.140 C 
HETATM   21  C   UNK N   1      21.101  13.273   2.485  0.00  0.00    -0.001 C 
HETATM   22  C   UNK N   1      19.685  14.783   1.226  0.00  0.00    -0.035 C 
HETATM   23  C   UNK N   1      20.542  12.205   1.890  0.00  0.00    -0.025 C 
HETATM   24  C   UNK N   1      19.166  12.362   1.299  0.00  0.00     0.054 C 
HETATM   25  C   UNK N   1      19.128  13.709   0.622  0.00  0.00    -0.014 C 
HETATM   26  C   UNK N   1      19.699  15.989   0.426  0.00  0.00     0.010 C 
HETATM   27  C   UNK N   1      19.993  17.215   0.790  0.00  0.00     0.014 C 
HETATM   28  C   UNK N   1      20.402  17.758   2.076  0.00  0.00    -0.007 A 
HETATM   29  C   UNK N   1      20.378  19.160   2.096  0.00  0.00     0.050 A 
HETATM   30  C   UNK N   1      20.885  17.046   3.219  0.00  0.00     0.042 A 
HETATM   31  C   UNK N   1      20.795  19.886   3.201  0.00  0.00     0.066 A 
HETATM   32  C   UNK N   1      21.260  19.219   4.321  0.00  0.00     0.039 A 
HETATM   33  C   UNK N   1      21.313  17.826   4.323  0.00  0.00     0.033 A 
BRANCH  31  34
HETATM   34  O   UNK N   1      20.761  21.228   3.175  0.00  0.00    -0.361 OA
HETATM   35  H   UNK N   1      21.526  21.734   3.365  0.00  0.00     0.217 HD
ENDBRANCH  31  34
ENDBRANCH  18  19
ENDBRANCH  15  18
BRANCH  11  36
HETATM   36  N   UNK N   1      23.999  11.459   7.233  0.00  0.00    -0.383 N 
HETATM   37  H   UNK N   1      23.910  10.517   6.961  0.00  0.00     0.157 HD
HETATM   38  H   UNK N   1      24.808  11.964   6.992  0.00  0.00     0.157 HD
ENDBRANCH  11  36
TORSDOF 4
ENDMDL
