MODEL 1
REMARK VINA RESULT:      -8.2      0.000      0.000
REMARK  5 active torsions:
REMARK  status: ('A' for Active; 'I' for Inactive)
REMARK    1  A    between atoms: C_13  and  C_14 
REMARK    2  A    between atoms: C_14  and  C_15 
REMARK    3  A    between atoms: N_19  and  C_20 
REMARK    4  A    between atoms: C_20  and  C_21 
REMARK    5  A    between atoms: C_21  and  O_22 
ROOT
HETATM    1  C   UNK N   1      36.319  14.313   9.771  0.00  0.00    -0.022 A 
HETATM    2  C   UNK N   1      36.158  14.143   8.390  0.00  0.00     0.016 A 
HETATM    3  C   UNK N   1      36.647  13.224   7.465  0.00  0.00     0.017 A 
HETATM    4  C   UNK N   1      35.562  15.435  10.105  0.00  0.00     0.101 A 
HETATM    5  N   UNK N   1      34.963  15.929   8.992  0.00  0.00    -0.332 N 
HETATM    6  C   UNK N   1      35.329  15.144   7.970  0.00  0.00     0.118 A 
HETATM    7  N   UNK N   1      34.950  15.290   6.674  0.00  0.00    -0.351 N 
ATOM      8  HN  UNK N   1      34.329  16.052   6.402  1.00  0.00     0.166 HD
HETATM    9  C   UNK N   1      35.409  14.406   5.741  0.00  0.00     0.090 A 
HETATM   10  C   UNK N   1      36.267  13.355   6.121  0.00  0.00     0.018 A 
ENDROOT
BRANCH   1  11
HETATM   11  C   UNK N   1      37.099  13.557  10.833  0.00  0.00     0.105 C 
BRANCH  11  12
HETATM   12  C   UNK N   1      36.509  13.317  12.190  0.00  0.00     0.056 A 
HETATM   13  N   UNK N   1      36.915  13.918  13.333  0.00  0.00    -0.350 N 
HETATM   14  C   UNK N   1      36.196  13.506  14.424  0.00  0.00     0.095 A 
ATOM     15  HN  UNK N   1      37.674  14.599  13.379  1.00  0.00     0.166 HD
HETATM   16  C   UNK N   1      36.413  13.972  15.716  0.00  0.00     0.182 A 
HETATM   17  C   UNK N   1      35.204  12.568  14.163  0.00  0.00     0.075 A 
HETATM   18  C   UNK N   1      35.608  13.476  16.756  0.00  0.00     0.160 A 
HETATM   19  F   UNK N   1      37.383  14.889  15.964  0.00  0.00    -0.200 F 
HETATM   20  F   UNK N   1      35.798  13.915  18.023  0.00  0.00    -0.203 F 
HETATM   21  C   UNK N   1      34.601  12.521  16.484  0.00  0.00     0.089 A 
HETATM   22  C   UNK N   1      34.393  12.059  15.172  0.00  0.00     0.139 A 
HETATM   23  F   UNK N   1      33.429  11.145  14.905  0.00  0.00    -0.204 F 
HETATM   24  S   UNK N   1      35.256  12.274  12.535  0.00  0.00    -0.071 SA
ENDBRANCH  11  12
ENDBRANCH   1  11
BRANCH   5  25
HETATM   25  C   UNK N   1      34.077  17.093   8.863  0.00  0.00     0.240 C 
BRANCH  25  26
HETATM   26  C   UNK N   1      34.564  18.212   7.976  0.00  0.00     0.158 C 
HETATM   27  O   UNK N   1      34.355  18.217   6.773  0.00  0.00    -0.649 OA
BRANCH  26  28
HETATM   28  O   UNK N   1      35.247  19.230   8.529  0.00  0.00    -0.775 OA
HETATM   29  H   UNK N   1      34.900  20.099   8.499  0.00  0.00     0.167 HD
ENDBRANCH  26  28
ENDBRANCH  25  26
ENDBRANCH   5  25
TORSDOF 5
ENDMDL
MODEL 2
REMARK VINA RESULT:      -8.0     11.048     13.526
REMARK  5 active torsions:
REMARK  status: ('A' for Active; 'I' for Inactive)
REMARK    1  A    between atoms: C_13  and  C_14 
REMARK    2  A    between atoms: C_14  and  C_15 
REMARK    3  A    between atoms: N_19  and  C_20 
REMARK    4  A    between atoms: C_20  and  C_21 
REMARK    5  A    between atoms: C_21  and  O_22 
ROOT
HETATM    1  C   UNK N   1      24.834  19.858   3.479  0.00  0.00    -0.022 A 
HETATM    2  C   UNK N   1      24.041  18.833   4.009  0.00  0.00     0.016 A 
HETATM    3  C   UNK N   1      24.311  17.687   4.753  0.00  0.00     0.017 A 
HETATM    4  C   UNK N   1      23.952  20.719   2.827  0.00  0.00     0.101 A 
HETATM    5  N   UNK N   1      22.684  20.253   2.949  0.00  0.00    -0.332 N 
HETATM    6  C   UNK N   1      22.752  19.120   3.661  0.00  0.00     0.118 A 
HETATM    7  N   UNK N   1      21.702  18.332   4.012  0.00  0.00    -0.351 N 
ATOM      8  HN  UNK N   1      20.754  18.582   3.732  1.00  0.00     0.166 HD
HETATM    9  C   UNK N   1      21.931  17.202   4.743  0.00  0.00     0.090 A 
HETATM   10  C   UNK N   1      23.243  16.859   5.127  0.00  0.00     0.018 A 
ENDROOT
BRANCH   1  11
HETATM   11  C   UNK N   1      26.325  20.143   3.501  0.00  0.00     0.105 C 
BRANCH  11  12
HETATM   12  C   UNK N   1      27.213  19.502   4.526  0.00  0.00     0.056 A 
HETATM   13  N   UNK N   1      28.210  18.628   4.256  0.00  0.00    -0.350 N 
HETATM   14  C   UNK N   1      28.854  18.204   5.388  0.00  0.00     0.095 A 
ATOM     15  HN  UNK N   1      28.454  18.318   3.315  1.00  0.00     0.166 HD
HETATM   16  C   UNK N   1      29.916  17.306   5.385  0.00  0.00     0.182 A 
HETATM   17  C   UNK N   1      28.376  18.737   6.579  0.00  0.00     0.075 A 
HETATM   18  C   UNK N   1      30.499  16.948   6.613  0.00  0.00     0.160 A 
HETATM   19  F   UNK N   1      30.379  16.791   4.218  0.00  0.00    -0.200 F 
HETATM   20  F   UNK N   1      31.535  16.076   6.637  0.00  0.00    -0.203 F 
HETATM   21  C   UNK N   1      30.007  17.492   7.821  0.00  0.00     0.089 A 
HETATM   22  C   UNK N   1      28.932  18.399   7.809  0.00  0.00     0.139 A 
HETATM   23  F   UNK N   1      28.457  18.925   8.964  0.00  0.00    -0.204 F 
HETATM   24  S   UNK N   1      27.130  19.748   6.173  0.00  0.00    -0.071 SA
ENDBRANCH  11  12
ENDBRANCH   1  11
BRANCH   5  25
HETATM   25  C   UNK N   1      21.437  20.826   2.427  0.00  0.00     0.240 C 
BRANCH  25  26
HETATM   26  C   UNK N   1      20.921  20.245   1.133  0.00  0.00     0.158 C 
HETATM   27  O   UNK N   1      21.083  20.811   0.064  0.00  0.00    -0.649 OA
BRANCH  26  28
HETATM   28  O   UNK N   1      20.264  19.072   1.165  0.00  0.00    -0.775 OA
HETATM   29  H   UNK N   1      20.480  18.431   1.813  0.00  0.00     0.167 HD
ENDBRANCH  26  28
ENDBRANCH  25  26
ENDBRANCH   5  25
TORSDOF 5
ENDMDL
MODEL 3
REMARK VINA RESULT:      -7.9      8.908     12.063
REMARK  5 active torsions:
REMARK  status: ('A' for Active; 'I' for Inactive)
REMARK    1  A    between atoms: C_13  and  C_14 
REMARK    2  A    between atoms: C_14  and  C_15 
REMARK    3  A    between atoms: N_19  and  C_20 
REMARK    4  A    between atoms: C_20  and  C_21 
REMARK    5  A    between atoms: C_21  and  O_22 
ROOT
HETATM    1  C   UNK N   1      30.141  17.186   5.899  0.00  0.00    -0.022 A 
HETATM    2  C   UNK N   1      29.739  17.648   7.158  0.00  0.00     0.016 A 
HETATM    3  C   UNK N   1      28.563  18.205   7.654  0.00  0.00     0.017 A 
HETATM    4  C   UNK N   1      31.454  16.746   6.059  0.00  0.00     0.101 A 
HETATM    5  N   UNK N   1      31.842  16.923   7.347  0.00  0.00    -0.332 N 
HETATM    6  C   UNK N   1      30.802  17.465   7.996  0.00  0.00     0.118 A 
HETATM    7  N   UNK N   1      30.770  17.803   9.311  0.00  0.00    -0.351 N 
ATOM      8  HN  UNK N   1      31.586  17.651   9.903  1.00  0.00     0.166 HD
HETATM    9  C   UNK N   1      29.631  18.350   9.831  0.00  0.00     0.090 A 
HETATM   10  C   UNK N   1      28.506  18.561   9.010  0.00  0.00     0.018 A 
ENDROOT
BRANCH   1  11
HETATM   11  C   UNK N   1      29.452  17.101   4.548  0.00  0.00     0.105 C 
BRANCH  11  12
HETATM   12  C   UNK N   1      28.039  17.575   4.378  0.00  0.00     0.056 A 
HETATM   13  N   UNK N   1      27.674  18.756   3.826  0.00  0.00    -0.350 N 
HETATM   14  C   UNK N   1      26.316  18.923   3.801  0.00  0.00     0.095 A 
ATOM     15  HN  UNK N   1      28.337  19.445   3.470  1.00  0.00     0.166 HD
HETATM   16  C   UNK N   1      25.682  20.049   3.285  0.00  0.00     0.182 A 
HETATM   17  C   UNK N   1      25.577  17.874   4.335  0.00  0.00     0.075 A 
HETATM   18  C   UNK N   1      24.278  20.105   3.313  0.00  0.00     0.160 A 
HETATM   19  F   UNK N   1      26.409  21.069   2.764  0.00  0.00    -0.200 F 
HETATM   20  F   UNK N   1      23.638  21.190   2.815  0.00  0.00    -0.203 F 
HETATM   21  C   UNK N   1      23.533  19.035   3.859  0.00  0.00     0.089 A 
HETATM   22  C   UNK N   1      24.186  17.903   4.378  0.00  0.00     0.139 A 
HETATM   23  F   UNK N   1      23.478  16.874   4.902  0.00  0.00    -0.204 F 
HETATM   24  S   UNK N   1      26.672  16.739   4.836  0.00  0.00    -0.071 SA
ENDBRANCH  11  12
ENDBRANCH   1  11
BRANCH   5  25
HETATM   25  C   UNK N   1      33.132  16.607   7.973  0.00  0.00     0.240 C 
BRANCH  25  26
HETATM   26  C   UNK N   1      34.203  17.665   7.873  0.00  0.00     0.158 C 
HETATM   27  O   UNK N   1      34.545  18.136   6.799  0.00  0.00    -0.649 OA
BRANCH  26  28
HETATM   28  O   UNK N   1      34.797  18.097   9.000  0.00  0.00    -0.775 OA
HETATM   29  H   UNK N   1      34.559  17.726   9.826  0.00  0.00     0.167 HD
ENDBRANCH  26  28
ENDBRANCH  25  26
ENDBRANCH   5  25
TORSDOF 5
ENDMDL
MODEL 4
REMARK VINA RESULT:      -7.9     13.775     15.391
REMARK  5 active torsions:
REMARK  status: ('A' for Active; 'I' for Inactive)
REMARK    1  A    between atoms: C_13  and  C_14 
REMARK    2  A    between atoms: C_14  and  C_15 
REMARK    3  A    between atoms: N_19  and  C_20 
REMARK    4  A    between atoms: C_20  and  C_21 
REMARK    5  A    between atoms: C_21  and  O_22 
ROOT
HETATM    1  C   UNK N   1      22.212  16.875   4.207  0.00  0.00    -0.022 A 
HETATM    2  C   UNK N   1      21.625  16.279   3.084  0.00  0.00     0.016 A 
HETATM    3  C   UNK N   1      21.661  14.998   2.538  0.00  0.00     0.017 A 
HETATM    4  C   UNK N   1      21.781  18.201   4.199  0.00  0.00     0.101 A 
HETATM    5  N   UNK N   1      20.971  18.412   3.132  0.00  0.00    -0.332 N 
HETATM    6  C   UNK N   1      20.885  17.250   2.471  0.00  0.00     0.118 A 
HETATM    7  N   UNK N   1      20.170  17.025   1.338  0.00  0.00    -0.351 N 
ATOM      8  HN  UNK N   1      19.630  17.778   0.911  1.00  0.00     0.166 HD
HETATM    9  C   UNK N   1      20.181  15.780   0.778  0.00  0.00     0.090 A 
HETATM   10  C   UNK N   1      20.929  14.743   1.370  0.00  0.00     0.018 A 
ENDROOT
BRANCH   1  11
HETATM   11  C   UNK N   1      23.134  16.364   5.299  0.00  0.00     0.105 C 
BRANCH  11  12
HETATM   12  C   UNK N   1      22.587  15.602   6.470  0.00  0.00     0.056 A 
HETATM   13  N   UNK N   1      23.160  14.510   7.025  0.00  0.00    -0.350 N 
HETATM   14  C   UNK N   1      22.439  14.021   8.082  0.00  0.00     0.095 A 
ATOM     15  HN  UNK N   1      24.032  14.095   6.694  1.00  0.00     0.166 HD
HETATM   16  C   UNK N   1      22.812  12.907   8.827  0.00  0.00     0.182 A 
HETATM   17  C   UNK N   1      21.275  14.721   8.383  0.00  0.00     0.075 A 
HETATM   18  C   UNK N   1      21.989  12.502   9.892  0.00  0.00     0.160 A 
HETATM   19  F   UNK N   1      23.949  12.230   8.529  0.00  0.00    -0.200 F 
HETATM   20  F   UNK N   1      22.331  11.422  10.633  0.00  0.00    -0.203 F 
HETATM   21  C   UNK N   1      20.807  13.218  10.191  0.00  0.00     0.089 A 
HETATM   22  C   UNK N   1      20.441  14.342   9.430  0.00  0.00     0.139 A 
HETATM   23  F   UNK N   1      19.310  15.032   9.712  0.00  0.00    -0.204 F 
HETATM   24  S   UNK N   1      21.181  15.961   7.291  0.00  0.00    -0.071 SA
ENDBRANCH  11  12
ENDBRANCH   1  11
BRANCH   5  25
HETATM   25  C   UNK N   1      20.290  19.647   2.721  0.00  0.00     0.240 C 
BRANCH  25  26
HETATM   26  C   UNK N   1      21.121  20.652   1.963  0.00  0.00     0.158 C 
HETATM   27  O   UNK N   1      21.307  20.556   0.760  0.00  0.00    -0.649 OA
BRANCH  26  28
HETATM   28  O   UNK N   1      21.671  21.679   2.634  0.00  0.00    -0.775 OA
HETATM   29  H   UNK N   1      21.282  21.980   3.431  0.00  0.00     0.167 HD
ENDBRANCH  26  28
ENDBRANCH  25  26
ENDBRANCH   5  25
TORSDOF 5
ENDMDL
MODEL 5
REMARK VINA RESULT:      -7.6     13.642     15.306
REMARK  5 active torsions:
REMARK  status: ('A' for Active; 'I' for Inactive)
REMARK    1  A    between atoms: C_13  and  C_14 
REMARK    2  A    between atoms: C_14  and  C_15 
REMARK    3  A    between atoms: N_19  and  C_20 
REMARK    4  A    between atoms: C_20  and  C_21 
REMARK    5  A    between atoms: C_21  and  O_22 
ROOT
HETATM    1  C   UNK N   1      22.488  16.970   4.165  0.00  0.00    -0.022 A 
HETATM    2  C   UNK N   1      21.874  16.310   3.093  0.00  0.00     0.016 A 
HETATM    3  C   UNK N   1      21.951  15.018   2.579  0.00  0.00     0.017 A 
HETATM    4  C   UNK N   1      21.984  18.269   4.149  0.00  0.00     0.101 A 
HETATM    5  N   UNK N   1      21.106  18.406   3.124  0.00  0.00    -0.332 N 
HETATM    6  C   UNK N   1      21.048  17.222   2.499  0.00  0.00     0.118 A 
HETATM    7  N   UNK N   1      20.285  16.927   1.415  0.00  0.00    -0.351 N 
ATOM      8  HN  UNK N   1      19.681  17.637   1.001  1.00  0.00     0.166 HD
HETATM    9  C   UNK N   1      20.335  15.669   0.887  0.00  0.00     0.090 A 
HETATM   10  C   UNK N   1      21.171  14.691   1.461  0.00  0.00     0.018 A 
ENDROOT
BRANCH   1  11
HETATM   11  C   UNK N   1      23.497  16.540   5.216  0.00  0.00     0.105 C 
BRANCH  11  12
HETATM   12  C   UNK N   1      23.106  15.592   6.310  0.00  0.00     0.056 A 
HETATM   13  N   UNK N   1      22.006  15.712   7.089  0.00  0.00    -0.350 N 
HETATM   14  C   UNK N   1      21.903  14.701   8.007  0.00  0.00     0.095 A 
ATOM     15  HN  UNK N   1      21.329  16.471   7.003  1.00  0.00     0.166 HD
HETATM   16  C   UNK N   1      20.863  14.589   8.925  0.00  0.00     0.182 A 
HETATM   17  C   UNK N   1      22.925  13.759   7.972  0.00  0.00     0.075 A 
HETATM   18  C   UNK N   1      20.866  13.504   9.817  0.00  0.00     0.160 A 
HETATM   19  F   UNK N   1      19.869  15.511   8.953  0.00  0.00    -0.200 F 
HETATM   20  F   UNK N   1      19.864  13.372  10.720  0.00  0.00    -0.203 F 
HETATM   21  C   UNK N   1      21.909  12.550   9.777  0.00  0.00     0.089 A 
HETATM   22  C   UNK N   1      22.954  12.675   8.844  0.00  0.00     0.139 A 
HETATM   23  F   UNK N   1      23.955  11.764   8.801  0.00  0.00    -0.204 F 
HETATM   24  S   UNK N   1      23.953  14.229   6.764  0.00  0.00    -0.071 SA
ENDBRANCH  11  12
ENDBRANCH   1  11
BRANCH   5  25
HETATM   25  C   UNK N   1      20.335  19.590   2.723  0.00  0.00     0.240 C 
BRANCH  25  26
HETATM   26  C   UNK N   1      21.079  20.638   1.933  0.00  0.00     0.158 C 
HETATM   27  O   UNK N   1      21.285  20.517   0.736  0.00  0.00    -0.649 OA
BRANCH  26  28
HETATM   28  O   UNK N   1      21.525  21.736   2.570  0.00  0.00    -0.775 OA
HETATM   29  H   UNK N   1      20.992  22.151   3.218  0.00  0.00     0.167 HD
ENDBRANCH  26  28
ENDBRANCH  25  26
ENDBRANCH   5  25
TORSDOF 5
ENDMDL
MODEL 6
REMARK VINA RESULT:      -7.6      3.928      5.358
REMARK  5 active torsions:
REMARK  status: ('A' for Active; 'I' for Inactive)
REMARK    1  A    between atoms: C_13  and  C_14 
REMARK    2  A    between atoms: C_14  and  C_15 
REMARK    3  A    between atoms: N_19  and  C_20 
REMARK    4  A    between atoms: C_20  and  C_21 
REMARK    5  A    between atoms: C_21  and  O_22 
ROOT
HETATM    1  C   UNK N   1      32.608  17.518   7.878  0.00  0.00    -0.022 A 
HETATM    2  C   UNK N   1      32.440  17.422   6.491  0.00  0.00     0.016 A 
HETATM    3  C   UNK N   1      33.315  17.434   5.408  0.00  0.00     0.017 A 
HETATM    4  C   UNK N   1      31.325  17.443   8.420  0.00  0.00     0.101 A 
HETATM    5  N   UNK N   1      30.415  17.307   7.423  0.00  0.00    -0.332 N 
HETATM    6  C   UNK N   1      31.098  17.295   6.271  0.00  0.00     0.118 A 
HETATM    7  N   UNK N   1      30.565  17.176   5.027  0.00  0.00    -0.351 N 
ATOM      8  HN  UNK N   1      29.557  17.083   4.905  1.00  0.00     0.166 HD
HETATM    9  C   UNK N   1      31.394  17.181   3.942  0.00  0.00     0.090 A 
HETATM   10  C   UNK N   1      32.787  17.311   4.114  0.00  0.00     0.018 A 
ENDROOT
BRANCH   1  11
HETATM   11  C   UNK N   1      33.823  17.673   8.776  0.00  0.00     0.105 C 
BRANCH  11  12
HETATM   12  C   UNK N   1      34.542  16.468   9.306  0.00  0.00     0.056 A 
HETATM   13  N   UNK N   1      34.938  16.300  10.589  0.00  0.00    -0.350 N 
HETATM   14  C   UNK N   1      35.573  15.103  10.787  0.00  0.00     0.095 A 
ATOM     15  HN  UNK N   1      34.781  16.987  11.327  1.00  0.00     0.166 HD
HETATM   16  C   UNK N   1      36.074  14.685  12.015  0.00  0.00     0.182 A 
HETATM   17  C   UNK N   1      35.693  14.299   9.659  0.00  0.00     0.075 A 
HETATM   18  C   UNK N   1      36.706  13.432  12.094  0.00  0.00     0.160 A 
HETATM   19  F   UNK N   1      35.953  15.473  13.113  0.00  0.00    -0.200 F 
HETATM   20  F   UNK N   1      37.202  13.001  13.279  0.00  0.00    -0.203 F 
HETATM   21  C   UNK N   1      36.826  12.620  10.943  0.00  0.00     0.089 A 
HETATM   22  C   UNK N   1      36.314  13.055   9.707  0.00  0.00     0.139 A 
HETATM   23  F   UNK N   1      36.426  12.282   8.601  0.00  0.00    -0.204 F 
HETATM   24  S   UNK N   1      34.983  15.130   8.416  0.00  0.00    -0.071 SA
ENDBRANCH  11  12
ENDBRANCH   1  11
BRANCH   5  25
HETATM   25  C   UNK N   1      28.955  17.190   7.519  0.00  0.00     0.240 C 
BRANCH  25  26
HETATM   26  C   UNK N   1      28.225  18.369   8.114  0.00  0.00     0.158 C 
HETATM   27  O   UNK N   1      28.198  19.456   7.560  0.00  0.00    -0.649 OA
BRANCH  26  28
HETATM   28  O   UNK N   1      27.587  18.212   9.288  0.00  0.00    -0.775 OA
HETATM   29  H   UNK N   1      28.062  18.278  10.092  0.00  0.00     0.167 HD
ENDBRANCH  26  28
ENDBRANCH  25  26
ENDBRANCH   5  25
TORSDOF 5
ENDMDL
MODEL 7
REMARK VINA RESULT:      -7.5      9.287     12.540
REMARK  5 active torsions:
REMARK  status: ('A' for Active; 'I' for Inactive)
REMARK    1  A    between atoms: C_13  and  C_14 
REMARK    2  A    between atoms: C_14  and  C_15 
REMARK    3  A    between atoms: N_19  and  C_20 
REMARK    4  A    between atoms: C_20  and  C_21 
REMARK    5  A    between atoms: C_21  and  O_22 
ROOT
HETATM    1  C   UNK N   1      29.117  16.477   6.182  0.00  0.00    -0.022 A 
HETATM    2  C   UNK N   1      29.175  17.220   7.368  0.00  0.00     0.016 A 
HETATM    3  C   UNK N   1      28.224  17.874   8.147  0.00  0.00     0.017 A 
HETATM    4  C   UNK N   1      30.430  16.090   5.914  0.00  0.00     0.101 A 
HETATM    5  N   UNK N   1      31.253  16.566   6.881  0.00  0.00    -0.332 N 
HETATM    6  C   UNK N   1      30.487  17.242   7.748  0.00  0.00     0.118 A 
HETATM    7  N   UNK N   1      30.918  17.879   8.868  0.00  0.00    -0.351 N 
ATOM      8  HN  UNK N   1      31.907  17.872   9.117  1.00  0.00     0.166 HD
HETATM    9  C   UNK N   1      30.012  18.529   9.656  0.00  0.00     0.090 A 
HETATM   10  C   UNK N   1      28.646  18.538   9.308  0.00  0.00     0.018 A 
ENDROOT
BRANCH   1  11
HETATM   11  C   UNK N   1      27.984  16.076   5.254  0.00  0.00     0.105 C 
BRANCH  11  12
HETATM   12  C   UNK N   1      27.030  17.104   4.721  0.00  0.00     0.056 A 
HETATM   13  N   UNK N   1      25.681  17.031   4.803  0.00  0.00    -0.350 N 
HETATM   14  C   UNK N   1      25.065  18.111   4.230  0.00  0.00     0.095 A 
ATOM     15  HN  UNK N   1      25.179  16.258   5.240  1.00  0.00     0.166 HD
HETATM   16  C   UNK N   1      23.685  18.281   4.182  0.00  0.00     0.182 A 
HETATM   17  C   UNK N   1      25.917  19.063   3.682  0.00  0.00     0.075 A 
HETATM   18  C   UNK N   1      23.169  19.435   3.568  0.00  0.00     0.160 A 
HETATM   19  F   UNK N   1      22.858  17.350   4.720  0.00  0.00    -0.200 F 
HETATM   20  F   UNK N   1      21.829  19.624   3.510  0.00  0.00    -0.203 F 
HETATM   21  C   UNK N   1      24.042  20.398   3.011  0.00  0.00     0.089 A 
HETATM   22  C   UNK N   1      25.435  20.213   3.067  0.00  0.00     0.139 A 
HETATM   23  F   UNK N   1      26.276  21.132   2.536  0.00  0.00    -0.204 F 
HETATM   24  S   UNK N   1      27.457  18.511   3.936  0.00  0.00    -0.071 SA
ENDBRANCH  11  12
ENDBRANCH   1  11
BRANCH   5  25
HETATM   25  C   UNK N   1      32.707  16.409   7.013  0.00  0.00     0.240 C 
BRANCH  25  26
HETATM   26  C   UNK N   1      33.560  17.393   6.252  0.00  0.00     0.158 C 
HETATM   27  O   UNK N   1      34.510  17.958   6.771  0.00  0.00    -0.649 OA
BRANCH  26  28
HETATM   28  O   UNK N   1      33.262  17.653   4.966  0.00  0.00    -0.775 OA
HETATM   29  H   UNK N   1      32.614  17.142   4.523  0.00  0.00     0.167 HD
ENDBRANCH  26  28
ENDBRANCH  25  26
ENDBRANCH   5  25
TORSDOF 5
ENDMDL
MODEL 8
REMARK VINA RESULT:      -7.5     11.198     13.558
REMARK  5 active torsions:
REMARK  status: ('A' for Active; 'I' for Inactive)
REMARK    1  A    between atoms: C_13  and  C_14 
REMARK    2  A    between atoms: C_14  and  C_15 
REMARK    3  A    between atoms: N_19  and  C_20 
REMARK    4  A    between atoms: C_20  and  C_21 
REMARK    5  A    between atoms: C_21  and  O_22 
ROOT
HETATM    1  C   UNK N   1      24.466  19.534   3.574  0.00  0.00    -0.022 A 
HETATM    2  C   UNK N   1      23.713  18.538   4.209  0.00  0.00     0.016 A 
HETATM    3  C   UNK N   1      24.036  17.423   4.977  0.00  0.00     0.017 A 
HETATM    4  C   UNK N   1      23.539  20.373   2.958  0.00  0.00     0.101 A 
HETATM    5  N   UNK N   1      22.282  19.923   3.199  0.00  0.00    -0.332 N 
HETATM    6  C   UNK N   1      22.402  18.820   3.952  0.00  0.00     0.118 A 
HETATM    7  N   UNK N   1      21.379  18.056   4.417  0.00  0.00    -0.351 N 
ATOM      8  HN  UNK N   1      20.413  18.301   4.203  1.00  0.00     0.166 HD
HETATM    9  C   UNK N   1      21.661  16.956   5.176  0.00  0.00     0.090 A 
HETATM   10  C   UNK N   1      22.997  16.620   5.470  0.00  0.00     0.018 A 
ENDROOT
BRANCH   1  11
HETATM   11  C   UNK N   1      25.955  19.808   3.466  0.00  0.00     0.105 C 
BRANCH  11  12
HETATM   12  C   UNK N   1      26.931  19.104   4.362  0.00  0.00     0.056 A 
HETATM   13  N   UNK N   1      27.107  19.364   5.679  0.00  0.00    -0.350 N 
HETATM   14  C   UNK N   1      28.066  18.567   6.244  0.00  0.00     0.095 A 
ATOM     15  HN  UNK N   1      26.585  20.075   6.192  1.00  0.00     0.166 HD
HETATM   16  C   UNK N   1      28.437  18.632   7.583  0.00  0.00     0.182 A 
HETATM   17  C   UNK N   1      28.670  17.659   5.382  0.00  0.00     0.075 A 
HETATM   18  C   UNK N   1      29.435  17.759   8.049  0.00  0.00     0.160 A 
HETATM   19  F   UNK N   1      27.843  19.519   8.420  0.00  0.00    -0.200 F 
HETATM   20  F   UNK N   1      29.813  17.801   9.349  0.00  0.00    -0.203 F 
HETATM   21  C   UNK N   1      30.046  16.838   7.166  0.00  0.00     0.089 A 
HETATM   22  C   UNK N   1      29.662  16.784   5.815  0.00  0.00     0.139 A 
HETATM   23  F   UNK N   1      30.242  15.904   4.965  0.00  0.00    -0.204 F 
HETATM   24  S   UNK N   1      27.969  17.884   3.900  0.00  0.00    -0.071 SA
ENDBRANCH  11  12
ENDBRANCH   1  11
BRANCH   5  25
HETATM   25  C   UNK N   1      21.001  20.483   2.753  0.00  0.00     0.240 C 
BRANCH  25  26
HETATM   26  C   UNK N   1      20.805  20.608   1.262  0.00  0.00     0.158 C 
HETATM   27  O   UNK N   1      20.833  21.689   0.698  0.00  0.00    -0.649 OA
BRANCH  26  28
HETATM   28  O   UNK N   1      20.593  19.493   0.540  0.00  0.00    -0.775 OA
HETATM   29  H   UNK N   1      21.174  19.270  -0.159  0.00  0.00     0.167 HD
ENDBRANCH  26  28
ENDBRANCH  25  26
ENDBRANCH   5  25
TORSDOF 5
ENDMDL
MODEL 9
REMARK VINA RESULT:      -7.3     12.876     15.290
REMARK  5 active torsions:
REMARK  status: ('A' for Active; 'I' for Inactive)
REMARK    1  A    between atoms: C_13  and  C_14 
REMARK    2  A    between atoms: C_14  and  C_15 
REMARK    3  A    between atoms: N_19  and  C_20 
REMARK    4  A    between atoms: C_20  and  C_21 
REMARK    5  A    between atoms: C_21  and  O_22 
ROOT
HETATM    1  C   UNK N   1      22.126  15.326   6.677  0.00  0.00    -0.022 A 
HETATM    2  C   UNK N   1      21.943  14.510   7.800  0.00  0.00     0.016 A 
HETATM    3  C   UNK N   1      22.583  13.371   8.283  0.00  0.00     0.017 A 
HETATM    4  C   UNK N   1      21.147  16.315   6.765  0.00  0.00     0.101 A 
HETATM    5  N   UNK N   1      20.401  16.122   7.881  0.00  0.00    -0.332 N 
HETATM    6  C   UNK N   1      20.891  15.035   8.494  0.00  0.00     0.118 A 
HETATM    7  N   UNK N   1      20.429  14.495   9.652  0.00  0.00    -0.351 N 
ATOM      8  HN  UNK N   1      19.640  14.918  10.139  1.00  0.00     0.166 HD
HETATM    9  C   UNK N   1      21.035  13.379  10.155  0.00  0.00     0.090 A 
HETATM   10  C   UNK N   1      22.124  12.796   9.477  0.00  0.00     0.018 A 
ENDROOT
BRANCH   1  11
HETATM   11  C   UNK N   1      23.106  15.304   5.517  0.00  0.00     0.105 C 
BRANCH  11  12
HETATM   12  C   UNK N   1      23.836  16.548   5.107  0.00  0.00     0.056 A 
HETATM   13  N   UNK N   1      25.066  16.910   5.542  0.00  0.00    -0.350 N 
HETATM   14  C   UNK N   1      25.483  18.096   5.000  0.00  0.00     0.095 A 
ATOM     15  HN  UNK N   1      25.619  16.361   6.200  1.00  0.00     0.166 HD
HETATM   16  C   UNK N   1      26.711  18.687   5.281  0.00  0.00     0.182 A 
HETATM   17  C   UNK N   1      24.588  18.698   4.123  0.00  0.00     0.075 A 
HETATM   18  C   UNK N   1      27.029  19.907   4.661  0.00  0.00     0.160 A 
HETATM   19  F   UNK N   1      27.581  18.094   6.137  0.00  0.00    -0.200 F 
HETATM   20  F   UNK N   1      28.218  20.503   4.917  0.00  0.00    -0.203 F 
HETATM   21  C   UNK N   1      26.113  20.515   3.771  0.00  0.00     0.089 A 
HETATM   22  C   UNK N   1      24.876  19.906   3.496  0.00  0.00     0.139 A 
HETATM   23  F   UNK N   1      23.995  20.483   2.644  0.00  0.00    -0.204 F 
HETATM   24  S   UNK N   1      23.267  17.704   4.049  0.00  0.00    -0.071 SA
ENDBRANCH  11  12
ENDBRANCH   1  11
BRANCH   5  25
HETATM   25  C   UNK N   1      19.267  16.910   8.380  0.00  0.00     0.240 C 
BRANCH  25  26
HETATM   26  C   UNK N   1      19.582  18.297   8.883  0.00  0.00     0.158 C 
HETATM   27  O   UNK N   1      20.390  19.018   8.320  0.00  0.00    -0.649 OA
BRANCH  26  28
HETATM   28  O   UNK N   1      18.954  18.746   9.984  0.00  0.00    -0.775 OA
HETATM   29  H   UNK N   1      18.859  19.667  10.127  0.00  0.00     0.167 HD
ENDBRANCH  26  28
ENDBRANCH  25  26
ENDBRANCH   5  25
TORSDOF 5
ENDMDL
