MODEL 1
REMARK VINA RESULT:      -8.3      0.000      0.000
REMARK  3 active torsions:
REMARK  status: ('A' for Active; 'I' for Inactive)
REMARK    1  A    between atoms: C_6  and  C_9 
REMARK    2  A    between atoms: C_12  and  N_13 
REMARK    3  A    between atoms: N_13  and  C_14 
ROOT
HETATM    1  C   UNK N   1      34.888  13.297  11.972  0.00  0.00     0.134 A 
HETATM    2  N   UNK N   1      35.544  13.317  13.168  0.00  0.00    -0.326 N 
ATOM      3  HN  UNK N   1      35.842  14.213  13.553  1.00  0.00     0.169 HD
HETATM    4  C   UNK N   1      35.814  12.177  13.863  0.00  0.00     0.119 A 
HETATM    5  C   UNK N   1      35.434  10.929  13.292  0.00  0.00     0.035 A 
HETATM    6  C   UNK N   1      35.756   9.688  13.859  0.00  0.00     0.017 A 
HETATM    7  C   UNK N   1      35.349   8.495  13.263  0.00  0.00     0.001 A 
HETATM    8  C   UNK N   1      34.621   8.524  12.074  0.00  0.00     0.002 A 
HETATM    9  C   UNK N   1      34.319   9.747  11.473  0.00  0.00     0.030 A 
HETATM   10  C   UNK N   1      34.726  10.944  12.070  0.00  0.00     0.047 A 
HETATM   11  N   UNK N   1      34.472  12.117  11.450  0.00  0.00    -0.340 N 
ATOM     12  HN  UNK N   1      33.956  12.115  10.569  1.00  0.00     0.167 HD
ENDROOT
BRANCH   4  13
HETATM   13  N   UNK N   1      36.544  12.299  15.091  0.00  0.00    -0.342 N 
HETATM   14  H   UNK N   1      37.525  12.244  15.021  0.00  0.00     0.167 HD
BRANCH  13  15
HETATM   15  C   UNK N   1      36.019  12.489  16.401  0.00  0.00     0.034 A 
HETATM   16  C   UNK N   1      35.714  13.805  16.831  0.00  0.00     0.032 A 
HETATM   17  C   UNK N   1      35.274  14.048  18.146  0.00  0.00     0.034 A 
HETATM   18  C   UNK N   1      35.151  12.953  18.993  0.00  0.00     0.059 A 
HETATM   19  N   UNK N   1      34.794  12.940  20.285  0.00  0.00    -0.300 N 
HETATM   20  C   UNK N   1      35.402  11.685  18.578  0.00  0.00     0.011 A 
HETATM   21  N   UNK N   1      34.818  11.675  20.697  0.00  0.00    -0.311 N 
HETATM   22  H   UNK N   1      34.557  13.725  20.831  0.00  0.00     0.187 HD
HETATM   23  C   UNK N   1      35.189  10.873  19.667  0.00  0.00     0.120 A 
ATOM     24  HN  UNK N   1      34.594  11.358  21.641  1.00  0.00     0.186 HD
HETATM   25  C   UNK N   1      35.820  11.402  17.285  0.00  0.00     0.044 A 
ENDBRANCH  13  15
ENDBRANCH   4  13
BRANCH   1  26
HETATM   26  C   UNK N   1      34.700  14.530  11.192  0.00  0.00     0.077 A 
HETATM   27  C   UNK N   1      35.551  15.629  11.364  0.00  0.00     0.033 A 
HETATM   28  C   UNK N   1      35.383  16.758  10.560  0.00  0.00     0.004 A 
HETATM   29  C   UNK N   1      34.376  16.779   9.594  0.00  0.00     0.024 A 
HETATM   30  C   UNK N   1      33.545  15.668   9.450  0.00  0.00     0.005 A 
HETATM   31  C   UNK N   1      32.471  15.668   8.422  0.00  0.00     0.068 C 
HETATM   32  N   UNK N   1      33.723  14.578  10.242  0.00  0.00    -0.357 N 
ATOM     33  HN  UNK N   1      33.109  13.772  10.121  1.00  0.00     0.166 HD
ENDBRANCH   1  26
TORSDOF 3
ENDMDL
MODEL 2
REMARK VINA RESULT:      -8.2      9.486     15.614
REMARK  3 active torsions:
REMARK  status: ('A' for Active; 'I' for Inactive)
REMARK    1  A    between atoms: C_6  and  C_9 
REMARK    2  A    between atoms: C_12  and  N_13 
REMARK    3  A    between atoms: N_13  and  C_14 
ROOT
HETATM    1  C   UNK N   1      27.935  17.424   5.957  0.00  0.00     0.134 A 
HETATM    2  N   UNK N   1      26.613  17.760   5.995  0.00  0.00    -0.326 N 
ATOM      3  HN  UNK N   1      26.265  18.313   6.779  1.00  0.00     0.169 HD
HETATM    4  C   UNK N   1      25.743  17.382   5.018  0.00  0.00     0.119 A 
HETATM    5  C   UNK N   1      26.231  16.573   3.953  0.00  0.00     0.035 A 
HETATM    6  C   UNK N   1      25.411  16.031   2.953  0.00  0.00     0.017 A 
HETATM    7  C   UNK N   1      25.943  15.253   1.926  0.00  0.00     0.001 A 
HETATM    8  C   UNK N   1      27.312  14.990   1.890  0.00  0.00     0.002 A 
HETATM    9  C   UNK N   1      28.143  15.490   2.894  0.00  0.00     0.030 A 
HETATM   10  C   UNK N   1      27.610  16.270   3.924  0.00  0.00     0.047 A 
HETATM   11  N   UNK N   1      28.419  16.703   4.917  0.00  0.00    -0.340 N 
ATOM     12  HN  UNK N   1      29.414  16.481   4.883  1.00  0.00     0.167 HD
ENDROOT
BRANCH   4  13
HETATM   13  N   UNK N   1      24.365  17.750   5.168  0.00  0.00    -0.342 N 
HETATM   14  H   UNK N   1      23.921  17.442   5.991  0.00  0.00     0.167 HD
BRANCH  13  15
HETATM   15  C   UNK N   1      23.564  18.509   4.268  0.00  0.00     0.034 A 
HETATM   16  C   UNK N   1      24.089  19.711   3.733  0.00  0.00     0.032 A 
HETATM   17  C   UNK N   1      23.300  20.537   2.908  0.00  0.00     0.034 A 
HETATM   18  C   UNK N   1      22.000  20.122   2.643  0.00  0.00     0.059 A 
HETATM   19  N   UNK N   1      21.059  20.752   1.927  0.00  0.00    -0.300 N 
HETATM   20  C   UNK N   1      21.503  18.951   3.118  0.00  0.00     0.011 A 
HETATM   21  N   UNK N   1      19.965  19.995   1.944  0.00  0.00    -0.311 N 
HETATM   22  H   UNK N   1      21.159  21.619   1.470  0.00  0.00     0.187 HD
HETATM   23  C   UNK N   1      20.205  18.874   2.671  0.00  0.00     0.120 A 
ATOM     24  HN  UNK N   1      19.083  20.221   1.484  1.00  0.00     0.186 HD
HETATM   25  C   UNK N   1      22.254  18.103   3.920  0.00  0.00     0.044 A 
ENDBRANCH  13  15
ENDBRANCH   4  13
BRANCH   1  26
HETATM   26  C   UNK N   1      28.831  17.757   7.075  0.00  0.00     0.077 A 
HETATM   27  C   UNK N   1      28.343  18.377   8.232  0.00  0.00     0.033 A 
HETATM   28  C   UNK N   1      29.211  18.617   9.299  0.00  0.00     0.004 A 
HETATM   29  C   UNK N   1      30.550  18.237   9.205  0.00  0.00     0.024 A 
HETATM   30  C   UNK N   1      31.004  17.622   8.037  0.00  0.00     0.005 A 
HETATM   31  C   UNK N   1      32.425  17.202   7.919  0.00  0.00     0.068 C 
HETATM   32  N   UNK N   1      30.145  17.396   7.008  0.00  0.00    -0.357 N 
ATOM     33  HN  UNK N   1      30.492  16.942   6.164  1.00  0.00     0.166 HD
ENDBRANCH   1  26
TORSDOF 3
ENDMDL
MODEL 3
REMARK VINA RESULT:      -8.1      9.906     14.318
REMARK  3 active torsions:
REMARK  status: ('A' for Active; 'I' for Inactive)
REMARK    1  A    between atoms: C_6  and  C_9 
REMARK    2  A    between atoms: C_12  and  N_13 
REMARK    3  A    between atoms: N_13  and  C_14 
ROOT
HETATM    1  C   UNK N   1      23.585  16.683   5.675  0.00  0.00     0.134 A 
HETATM    2  N   UNK N   1      24.906  16.339   5.667  0.00  0.00    -0.326 N 
ATOM      3  HN  UNK N   1      25.205  15.514   6.188  1.00  0.00     0.169 HD
HETATM    4  C   UNK N   1      25.837  17.062   4.986  0.00  0.00     0.119 A 
HETATM    5  C   UNK N   1      25.414  18.237   4.301  0.00  0.00     0.035 A 
HETATM    6  C   UNK N   1      26.295  19.119   3.660  0.00  0.00     0.017 A 
HETATM    7  C   UNK N   1      25.825  20.251   2.995  0.00  0.00     0.001 A 
HETATM    8  C   UNK N   1      24.459  20.528   2.971  0.00  0.00     0.002 A 
HETATM    9  C   UNK N   1      23.567  19.683   3.632  0.00  0.00     0.030 A 
HETATM   10  C   UNK N   1      24.036  18.547   4.300  0.00  0.00     0.047 A 
HETATM   11  N   UNK N   1      23.166  17.767   4.978  0.00  0.00    -0.340 N 
ATOM     12  HN  UNK N   1      22.173  18.000   4.967  1.00  0.00     0.167 HD
ENDROOT
BRANCH   4  13
HETATM   13  N   UNK N   1      27.205  16.642   5.072  0.00  0.00    -0.342 N 
HETATM   14  H   UNK N   1      27.508  16.005   4.384  0.00  0.00     0.167 HD
BRANCH  13  15
HETATM   15  C   UNK N   1      28.178  17.036   6.034  0.00  0.00     0.034 A 
HETATM   16  C   UNK N   1      29.550  16.833   5.741  0.00  0.00     0.032 A 
HETATM   17  C   UNK N   1      30.541  17.128   6.697  0.00  0.00     0.034 A 
HETATM   18  C   UNK N   1      30.119  17.623   7.925  0.00  0.00     0.059 A 
HETATM   19  N   UNK N   1      30.864  17.935   8.994  0.00  0.00    -0.300 N 
HETATM   20  C   UNK N   1      28.810  17.860   8.199  0.00  0.00     0.011 A 
HETATM   21  N   UNK N   1      30.042  18.364   9.948  0.00  0.00    -0.311 N 
HETATM   22  H   UNK N   1      31.844  17.860   9.061  0.00  0.00     0.187 HD
HETATM   23  C   UNK N   1      28.765  18.331   9.489  0.00  0.00     0.120 A 
ATOM     24  HN  UNK N   1      30.327  18.670  10.879  1.00  0.00     0.186 HD
HETATM   25  C   UNK N   1      27.806  17.598   7.277  0.00  0.00     0.044 A 
ENDBRANCH  13  15
ENDBRANCH   4  13
BRANCH   1  26
HETATM   26  C   UNK N   1      22.617  15.946   6.502  0.00  0.00     0.077 A 
HETATM   27  C   UNK N   1      22.790  14.583   6.774  0.00  0.00     0.033 A 
HETATM   28  C   UNK N   1      21.886  13.933   7.616  0.00  0.00     0.004 A 
HETATM   29  C   UNK N   1      20.827  14.644   8.181  0.00  0.00     0.024 A 
HETATM   30  C   UNK N   1      20.684  16.001   7.889  0.00  0.00     0.005 A 
HETATM   31  C   UNK N   1      19.567  16.779   8.487  0.00  0.00     0.068 C 
HETATM   32  N   UNK N   1      21.573  16.618   7.067  0.00  0.00    -0.357 N 
ATOM     33  HN  UNK N   1      21.456  17.611   6.867  1.00  0.00     0.166 HD
ENDBRANCH   1  26
TORSDOF 3
ENDMDL
MODEL 4
REMARK VINA RESULT:      -8.0      6.216     10.294
REMARK  3 active torsions:
REMARK  status: ('A' for Active; 'I' for Inactive)
REMARK    1  A    between atoms: C_6  and  C_9 
REMARK    2  A    between atoms: C_12  and  N_13 
REMARK    3  A    between atoms: N_13  and  C_14 
ROOT
HETATM    1  C   UNK N   1      28.749  17.324   5.453  0.00  0.00     0.134 A 
HETATM    2  N   UNK N   1      30.096  17.333   5.675  0.00  0.00    -0.326 N 
ATOM      3  HN  UNK N   1      30.550  18.212   5.924  1.00  0.00     0.169 HD
HETATM    4  C   UNK N   1      30.852  16.204   5.575  0.00  0.00     0.119 A 
HETATM    5  C   UNK N   1      30.214  14.994   5.182  0.00  0.00     0.035 A 
HETATM    6  C   UNK N   1      30.904  13.798   4.939  0.00  0.00     0.017 A 
HETATM    7  C   UNK N   1      30.228  12.638   4.565  0.00  0.00     0.001 A 
HETATM    8  C   UNK N   1      28.842  12.657   4.415  0.00  0.00     0.002 A 
HETATM    9  C   UNK N   1      28.137  13.845   4.618  0.00  0.00     0.030 A 
HETATM   10  C   UNK N   1      28.815  15.010   4.992  0.00  0.00     0.047 A 
HETATM   11  N   UNK N   1      28.125  16.163   5.135  0.00  0.00    -0.340 N 
ATOM     12  HN  UNK N   1      27.114  16.161   4.999  1.00  0.00     0.167 HD
ENDROOT
BRANCH   4  13
HETATM   13  N   UNK N   1      32.265  16.324   5.789  0.00  0.00    -0.342 N 
HETATM   14  H   UNK N   1      32.836  16.202   4.996  0.00  0.00     0.167 HD
BRANCH  13  15
HETATM   15  C   UNK N   1      32.940  16.598   7.012  0.00  0.00     0.034 A 
HETATM   16  C   UNK N   1      33.657  17.814   7.140  0.00  0.00     0.032 A 
HETATM   17  C   UNK N   1      34.410  18.087   8.299  0.00  0.00     0.034 A 
HETATM   18  C   UNK N   1      34.416  17.123   9.300  0.00  0.00     0.059 A 
HETATM   19  N   UNK N   1      35.083  17.139  10.462  0.00  0.00    -0.300 N 
HETATM   20  C   UNK N   1      33.699  15.974   9.203  0.00  0.00     0.011 A 
HETATM   21  N   UNK N   1      34.801  16.009  11.105  0.00  0.00    -0.311 N 
HETATM   22  H   UNK N   1      35.675  17.858  10.783  0.00  0.00     0.187 HD
HETATM   23  C   UNK N   1      33.948  15.266  10.355  0.00  0.00     0.120 A 
ATOM     24  HN  UNK N   1      35.169  15.742  12.018  1.00  0.00     0.186 HD
HETATM   25  C   UNK N   1      32.932  15.676   8.085  0.00  0.00     0.044 A 
ENDBRANCH  13  15
ENDBRANCH   4  13
BRANCH   1  26
HETATM   26  C   UNK N   1      27.973  18.573   5.466  0.00  0.00     0.077 A 
HETATM   27  C   UNK N   1      27.886  19.357   6.623  0.00  0.00     0.033 A 
HETATM   28  C   UNK N   1      27.195  20.569   6.579  0.00  0.00     0.004 A 
HETATM   29  C   UNK N   1      26.604  20.989   5.387  0.00  0.00     0.024 A 
HETATM   30  C   UNK N   1      26.709  20.184   4.253  0.00  0.00     0.005 A 
HETATM   31  C   UNK N   1      26.093  20.616   2.970  0.00  0.00     0.068 C 
HETATM   32  N   UNK N   1      27.385  19.006   4.314  0.00  0.00    -0.357 N 
ATOM     33  HN  UNK N   1      27.456  18.431   3.474  1.00  0.00     0.166 HD
ENDBRANCH   1  26
TORSDOF 3
ENDMDL
MODEL 5
REMARK VINA RESULT:      -8.0      8.958     14.183
REMARK  3 active torsions:
REMARK  status: ('A' for Active; 'I' for Inactive)
REMARK    1  A    between atoms: C_6  and  C_9 
REMARK    2  A    between atoms: C_12  and  N_13 
REMARK    3  A    between atoms: N_13  and  C_14 
ROOT
HETATM    1  C   UNK N   1      23.842  16.641   5.608  0.00  0.00     0.134 A 
HETATM    2  N   UNK N   1      25.198  16.490   5.622  0.00  0.00    -0.326 N 
ATOM      3  HN  UNK N   1      25.604  15.720   6.155  1.00  0.00     0.169 HD
HETATM    4  C   UNK N   1      26.026  17.333   4.947  0.00  0.00     0.119 A 
HETATM    5  C   UNK N   1      25.451  18.430   4.244  0.00  0.00     0.035 A 
HETATM    6  C   UNK N   1      26.206  19.424   3.607  0.00  0.00     0.017 A 
HETATM    7  C   UNK N   1      25.590  20.472   2.924  0.00  0.00     0.001 A 
HETATM    8  C   UNK N   1      24.199  20.550   2.878  0.00  0.00     0.002 A 
HETATM    9  C   UNK N   1      23.426  19.591   3.535  0.00  0.00     0.030 A 
HETATM   10  C   UNK N   1      24.043  18.540   4.221  0.00  0.00     0.047 A 
HETATM   11  N   UNK N   1      23.283  17.649   4.894  0.00  0.00    -0.340 N 
ATOM     12  HN  UNK N   1      22.267  17.736   4.866  1.00  0.00     0.167 HD
ENDROOT
BRANCH   4  13
HETATM   13  N   UNK N   1      27.440  17.114   5.056  0.00  0.00    -0.342 N 
HETATM   14  H   UNK N   1      27.886  16.752   4.256  0.00  0.00     0.167 HD
BRANCH  13  15
HETATM   15  C   UNK N   1      28.274  17.357   6.184  0.00  0.00     0.034 A 
HETATM   16  C   UNK N   1      27.940  18.415   7.066  0.00  0.00     0.032 A 
HETATM   17  C   UNK N   1      28.783  18.745   8.145  0.00  0.00     0.034 A 
HETATM   18  C   UNK N   1      29.940  17.993   8.306  0.00  0.00     0.059 A 
HETATM   19  N   UNK N   1      30.905  18.144   9.224  0.00  0.00    -0.300 N 
HETATM   20  C   UNK N   1      30.247  16.951   7.491  0.00  0.00     0.011 A 
HETATM   21  N   UNK N   1      31.826  17.209   8.999  0.00  0.00    -0.311 N 
HETATM   22  H   UNK N   1      30.929  18.823   9.937  0.00  0.00     0.187 HD
HETATM   23  C   UNK N   1      31.449  16.454   7.936  0.00  0.00     0.120 A 
ATOM     24  HN  UNK N   1      32.681  17.080   9.540  1.00  0.00     0.186 HD
HETATM   25  C   UNK N   1      29.434  16.584   6.428  0.00  0.00     0.044 A 
ENDBRANCH  13  15
ENDBRANCH   4  13
BRANCH   1  26
HETATM   26  C   UNK N   1      22.977  15.780   6.429  0.00  0.00     0.077 A 
HETATM   27  C   UNK N   1      23.321  14.447   6.688  0.00  0.00     0.033 A 
HETATM   28  C   UNK N   1      22.509  13.680   7.525  0.00  0.00     0.004 A 
HETATM   29  C   UNK N   1      21.369  14.246   8.096  0.00  0.00     0.024 A 
HETATM   30  C   UNK N   1      21.054  15.576   7.817  0.00  0.00     0.005 A 
HETATM   31  C   UNK N   1      19.848  16.201   8.422  0.00  0.00     0.068 C 
HETATM   32  N   UNK N   1      21.856  16.309   6.999  0.00  0.00    -0.357 N 
ATOM     33  HN  UNK N   1      21.614  17.281   6.809  1.00  0.00     0.166 HD
ENDBRANCH   1  26
TORSDOF 3
ENDMDL
MODEL 6
REMARK VINA RESULT:      -7.9     11.886     14.536
REMARK  3 active torsions:
REMARK  status: ('A' for Active; 'I' for Inactive)
REMARK    1  A    between atoms: C_6  and  C_9 
REMARK    2  A    between atoms: C_12  and  N_13 
REMARK    3  A    between atoms: N_13  and  C_14 
ROOT
HETATM    1  C   UNK N   1      24.233  17.481   5.160  0.00  0.00     0.134 A 
HETATM    2  N   UNK N   1      24.371  16.230   5.687  0.00  0.00    -0.326 N 
ATOM      3  HN  UNK N   1      25.285  15.939   6.035  1.00  0.00     0.169 HD
HETATM    4  C   UNK N   1      23.328  15.359   5.765  0.00  0.00     0.119 A 
HETATM    5  C   UNK N   1      22.069  15.761   5.234  0.00  0.00     0.035 A 
HETATM    6  C   UNK N   1      20.955  14.913   5.157  0.00  0.00     0.017 A 
HETATM    7  C   UNK N   1      19.742  15.362   4.637  0.00  0.00     0.001 A 
HETATM    8  C   UNK N   1      19.626  16.671   4.170  0.00  0.00     0.002 A 
HETATM    9  C   UNK N   1      20.731  17.522   4.205  0.00  0.00     0.030 A 
HETATM   10  C   UNK N   1      21.949  17.073   4.726  0.00  0.00     0.047 A 
HETATM   11  N   UNK N   1      23.024  17.892   4.705  0.00  0.00    -0.340 N 
ATOM     12  HN  UNK N   1      22.923  18.838   4.339  1.00  0.00     0.167 HD
ENDROOT
BRANCH   4  13
HETATM   13  N   UNK N   1      23.584  14.053   6.300  0.00  0.00    -0.342 N 
HETATM   14  H   UNK N   1      23.773  13.345   5.643  0.00  0.00     0.167 HD
BRANCH  13  15
HETATM   15  C   UNK N   1      23.595  13.660   7.668  0.00  0.00     0.034 A 
HETATM   16  C   UNK N   1      24.835  13.596   8.351  0.00  0.00     0.032 A 
HETATM   17  C   UNK N   1      24.903  13.130   9.678  0.00  0.00     0.034 A 
HETATM   18  C   UNK N   1      23.713  12.743  10.282  0.00  0.00     0.059 A 
HETATM   19  N   UNK N   1      23.533  12.235  11.509  0.00  0.00    -0.300 N 
HETATM   20  C   UNK N   1      22.515  12.840   9.650  0.00  0.00     0.011 A 
HETATM   21  N   UNK N   1      22.232  12.003  11.663  0.00  0.00    -0.311 N 
HETATM   22  H   UNK N   1      24.237  12.063  12.176  0.00  0.00     0.187 HD
HETATM   23  C   UNK N   1      21.574  12.367  10.533  0.00  0.00     0.120 A 
ATOM     24  HN  UNK N   1      21.797  11.613  12.499  1.00  0.00     0.186 HD
HETATM   25  C   UNK N   1      22.405  13.310   8.349  0.00  0.00     0.044 A 
ENDBRANCH  13  15
ENDBRANCH   4  13
BRANCH   1  26
HETATM   26  C   UNK N   1      25.397  18.364   4.993  0.00  0.00     0.077 A 
HETATM   27  C   UNK N   1      26.363  18.108   4.012  0.00  0.00     0.033 A 
HETATM   28  C   UNK N   1      27.419  19.004   3.841  0.00  0.00     0.004 A 
HETATM   29  C   UNK N   1      27.501  20.144   4.641  0.00  0.00     0.024 A 
HETATM   30  C   UNK N   1      26.523  20.369   5.610  0.00  0.00     0.005 A 
HETATM   31  C   UNK N   1      26.587  21.581   6.468  0.00  0.00     0.068 C 
HETATM   32  N   UNK N   1      25.501  19.485   5.763  0.00  0.00    -0.357 N 
ATOM     33  HN  UNK N   1      24.792  19.667   6.473  1.00  0.00     0.166 HD
ENDBRANCH   1  26
TORSDOF 3
ENDMDL
MODEL 7
REMARK VINA RESULT:      -7.8     12.482     16.617
REMARK  3 active torsions:
REMARK  status: ('A' for Active; 'I' for Inactive)
REMARK    1  A    between atoms: C_6  and  C_9 
REMARK    2  A    between atoms: C_12  and  N_13 
REMARK    3  A    between atoms: N_13  and  C_14 
ROOT
HETATM    1  C   UNK N   1      24.461  14.523   6.709  0.00  0.00     0.134 A 
HETATM    2  N   UNK N   1      24.139  15.823   6.449  0.00  0.00    -0.326 N 
ATOM      3  HN  UNK N   1      23.612  16.350   7.146  1.00  0.00     0.169 HD
HETATM    4  C   UNK N   1      24.499  16.439   5.289  0.00  0.00     0.119 A 
HETATM    5  C   UNK N   1      25.195  15.679   4.307  0.00  0.00     0.035 A 
HETATM    6  C   UNK N   1      25.519  16.171   3.035  0.00  0.00     0.017 A 
HETATM    7  C   UNK N   1      26.211  15.386   2.113  0.00  0.00     0.001 A 
HETATM    8  C   UNK N   1      26.580  14.083   2.445  0.00  0.00     0.002 A 
HETATM    9  C   UNK N   1      26.237  13.561   3.693  0.00  0.00     0.030 A 
HETATM   10  C   UNK N   1      25.543  14.347   4.619  0.00  0.00     0.047 A 
HETATM   11  N   UNK N   1      25.173  13.810   5.802  0.00  0.00    -0.340 N 
ATOM     12  HN  UNK N   1      25.434  12.848   6.018  1.00  0.00     0.167 HD
ENDROOT
BRANCH   4  13
HETATM   13  N   UNK N   1      24.079  17.796   5.093  0.00  0.00    -0.342 N 
HETATM   14  H   UNK N   1      24.585  18.482   5.587  0.00  0.00     0.167 HD
BRANCH  13  15
HETATM   15  C   UNK N   1      23.017  18.269   4.271  0.00  0.00     0.034 A 
HETATM   16  C   UNK N   1      23.159  19.521   3.624  0.00  0.00     0.032 A 
HETATM   17  C   UNK N   1      22.101  20.067   2.871  0.00  0.00     0.034 A 
HETATM   18  C   UNK N   1      20.927  19.329   2.790  0.00  0.00     0.059 A 
HETATM   19  N   UNK N   1      19.783  19.656   2.173  0.00  0.00    -0.300 N 
HETATM   20  C   UNK N   1      20.796  18.109   3.373  0.00  0.00     0.011 A 
HETATM   21  N   UNK N   1      18.923  18.658   2.361  0.00  0.00    -0.311 N 
HETATM   22  H   UNK N   1      19.610  20.486   1.672  0.00  0.00     0.187 HD
HETATM   23  C   UNK N   1      19.518  17.685   3.097  0.00  0.00     0.120 A 
ATOM     24  HN  UNK N   1      17.967  18.628   2.007  1.00  0.00     0.186 HD
HETATM   25  C   UNK N   1      21.821  17.531   4.108  0.00  0.00     0.044 A 
ENDBRANCH  13  15
ENDBRANCH   4  13
BRANCH   1  26
HETATM   26  C   UNK N   1      23.971  13.851   7.922  0.00  0.00     0.077 A 
HETATM   27  C   UNK N   1      24.825  13.070   8.710  0.00  0.00     0.033 A 
HETATM   28  C   UNK N   1      24.341  12.502   9.890  0.00  0.00     0.004 A 
HETATM   29  C   UNK N   1      23.017  12.719  10.273  0.00  0.00     0.024 A 
HETATM   30  C   UNK N   1      22.192  13.502   9.465  0.00  0.00     0.005 A 
HETATM   31  C   UNK N   1      20.781  13.752   9.859  0.00  0.00     0.068 C 
HETATM   32  N   UNK N   1      22.680  14.047   8.319  0.00  0.00    -0.357 N 
ATOM     33  HN  UNK N   1      22.065  14.620   7.742  1.00  0.00     0.166 HD
ENDBRANCH   1  26
TORSDOF 3
ENDMDL
MODEL 8
REMARK VINA RESULT:      -7.8     13.863     16.211
REMARK  3 active torsions:
REMARK  status: ('A' for Active; 'I' for Inactive)
REMARK    1  A    between atoms: C_6  and  C_9 
REMARK    2  A    between atoms: C_12  and  N_13 
REMARK    3  A    between atoms: N_13  and  C_14 
ROOT
HETATM    1  C   UNK N   1      24.059  18.491   4.450  0.00  0.00     0.134 A 
HETATM    2  N   UNK N   1      23.528  17.291   4.822  0.00  0.00    -0.326 N 
ATOM      3  HN  UNK N   1      24.120  16.618   5.310  1.00  0.00     0.169 HD
HETATM    4  C   UNK N   1      22.232  16.963   4.564  0.00  0.00     0.119 A 
HETATM    5  C   UNK N   1      21.429  17.891   3.843  0.00  0.00     0.035 A 
HETATM    6  C   UNK N   1      20.119  17.620   3.424  0.00  0.00     0.017 A 
HETATM    7  C   UNK N   1      19.372  18.571   2.728  0.00  0.00     0.001 A 
HETATM    8  C   UNK N   1      19.932  19.811   2.427  0.00  0.00     0.002 A 
HETATM    9  C   UNK N   1      21.247  20.091   2.804  0.00  0.00     0.030 A 
HETATM   10  C   UNK N   1      21.997  19.138   3.501  0.00  0.00     0.047 A 
HETATM   11  N   UNK N   1      23.284  19.404   3.813  0.00  0.00    -0.340 N 
ATOM     12  HN  UNK N   1      23.682  20.309   3.565  1.00  0.00     0.167 HD
ENDROOT
BRANCH   4  13
HETATM   13  N   UNK N   1      21.778  15.661   4.961  0.00  0.00    -0.342 N 
HETATM   14  H   UNK N   1      21.678  14.998   4.240  0.00  0.00     0.167 HD
BRANCH  13  15
HETATM   15  C   UNK N   1      21.455  15.215   6.274  0.00  0.00     0.034 A 
HETATM   16  C   UNK N   1      20.886  16.135   7.188  0.00  0.00     0.032 A 
HETATM   17  C   UNK N   1      20.630  15.761   8.522  0.00  0.00     0.034 A 
HETATM   18  C   UNK N   1      20.954  14.462   8.895  0.00  0.00     0.059 A 
HETATM   19  N   UNK N   1      20.842  13.894  10.103  0.00  0.00    -0.300 N 
HETATM   20  C   UNK N   1      21.461  13.561   8.015  0.00  0.00     0.011 A 
HETATM   21  N   UNK N   1      21.276  12.641  10.003  0.00  0.00    -0.311 N 
HETATM   22  H   UNK N   1      20.499  14.327  10.920  0.00  0.00     0.187 HD
HETATM   23  C   UNK N   1      21.665  12.401   8.724  0.00  0.00     0.120 A 
ATOM     24  HN  UNK N   1      21.311  11.965  10.766  1.00  0.00     0.186 HD
HETATM   25  C   UNK N   1      21.711  13.886   6.689  0.00  0.00     0.044 A 
ENDBRANCH  13  15
ENDBRANCH   4  13
BRANCH   1  26
HETATM   26  C   UNK N   1      25.488  18.780   4.648  0.00  0.00     0.077 A 
HETATM   27  C   UNK N   1      26.474  18.010   4.018  0.00  0.00     0.033 A 
HETATM   28  C   UNK N   1      27.817  18.354   4.178  0.00  0.00     0.004 A 
HETATM   29  C   UNK N   1      28.164  19.459   4.956  0.00  0.00     0.024 A 
HETATM   30  C   UNK N   1      27.157  20.204   5.570  0.00  0.00     0.005 A 
HETATM   31  C   UNK N   1      27.504  21.390   6.398  0.00  0.00     0.068 C 
HETATM   32  N   UNK N   1      25.853  19.854   5.404  0.00  0.00    -0.357 N 
ATOM     33  HN  UNK N   1      25.129  20.412   5.857  1.00  0.00     0.166 HD
ENDBRANCH   1  26
TORSDOF 3
ENDMDL
MODEL 9
REMARK VINA RESULT:      -7.8      2.101      7.858
REMARK  3 active torsions:
REMARK  status: ('A' for Active; 'I' for Inactive)
REMARK    1  A    between atoms: C_6  and  C_9 
REMARK    2  A    between atoms: C_12  and  N_13 
REMARK    3  A    between atoms: N_13  and  C_14 
ROOT
HETATM    1  C   UNK N   1      36.008  13.314  13.916  0.00  0.00     0.134 A 
HETATM    2  N   UNK N   1      36.453  13.850  12.743  0.00  0.00    -0.326 N 
ATOM      3  HN  UNK N   1      37.044  14.681  12.772  1.00  0.00     0.169 HD
HETATM    4  C   UNK N   1      36.132  13.310  11.535  0.00  0.00     0.119 A 
HETATM    5  C   UNK N   1      35.270  12.178  11.507  0.00  0.00     0.035 A 
HETATM    6  C   UNK N   1      34.783  11.604  10.323  0.00  0.00     0.017 A 
HETATM    7  C   UNK N   1      33.947  10.488  10.353  0.00  0.00     0.001 A 
HETATM    8  C   UNK N   1      33.572   9.932  11.575  0.00  0.00     0.002 A 
HETATM    9  C   UNK N   1      34.017  10.506  12.767  0.00  0.00     0.030 A 
HETATM   10  C   UNK N   1      34.854  11.626  12.738  0.00  0.00     0.047 A 
HETATM   11  N   UNK N   1      35.234  12.202  13.900  0.00  0.00    -0.340 N 
ATOM     12  HN  UNK N   1      34.930  11.792  14.784  1.00  0.00     0.167 HD
ENDROOT
BRANCH   4  13
HETATM   13  N   UNK N   1      36.616  13.969  10.357  0.00  0.00    -0.342 N 
HETATM   14  H   UNK N   1      37.533  13.744  10.079  0.00  0.00     0.167 HD
BRANCH  13  15
HETATM   15  C   UNK N   1      35.927  14.913   9.542  0.00  0.00     0.034 A 
HETATM   16  C   UNK N   1      35.418  16.091  10.142  0.00  0.00     0.032 A 
HETATM   17  C   UNK N   1      34.657  17.009   9.393  0.00  0.00     0.034 A 
HETATM   18  C   UNK N   1      34.433  16.712   8.054  0.00  0.00     0.059 A 
HETATM   19  N   UNK N   1      33.713  17.405   7.161  0.00  0.00    -0.300 N 
HETATM   20  C   UNK N   1      34.952  15.607   7.461  0.00  0.00     0.011 A 
HETATM   21  N   UNK N   1      33.765  16.749   6.004  0.00  0.00    -0.311 N 
HETATM   22  H   UNK N   1      33.232  18.248   7.329  0.00  0.00     0.187 HD
HETATM   23  C   UNK N   1      34.524  15.633   6.154  0.00  0.00     0.120 A 
ATOM     24  HN  UNK N   1      33.307  17.038   5.140  1.00  0.00     0.186 HD
HETATM   25  C   UNK N   1      35.720  14.687   8.160  0.00  0.00     0.044 A 
ENDBRANCH  13  15
ENDBRANCH   4  13
BRANCH   1  26
HETATM   26  C   UNK N   1      36.283  13.976  15.201  0.00  0.00     0.077 A 
HETATM   27  C   UNK N   1      37.122  15.095  15.272  0.00  0.00     0.033 A 
HETATM   28  C   UNK N   1      37.307  15.736  16.498  0.00  0.00     0.004 A 
HETATM   29  C   UNK N   1      36.654  15.261  17.636  0.00  0.00     0.024 A 
HETATM   30  C   UNK N   1      35.825  14.144  17.531  0.00  0.00     0.005 A 
HETATM   31  C   UNK N   1      35.113  13.627  18.729  0.00  0.00     0.068 C 
HETATM   32  N   UNK N   1      35.657  13.532  16.329  0.00  0.00    -0.357 N 
ATOM     33  HN  UNK N   1      35.044  12.719  16.268  1.00  0.00     0.166 HD
ENDBRANCH   1  26
TORSDOF 3
ENDMDL
