REMARK  3 active torsions:
REMARK  status: ('A' for Active; 'I' for Inactive)
REMARK    1  A    between atoms: C_6  and  C_9 
REMARK    2  A    between atoms: C_12  and  N_13 
REMARK    3  A    between atoms: N_13  and  C_14 
ROOT
HETATM    1  C   UNK N   1      -1.572  -1.407   0.117  0.00  0.00     0.134 A 
HETATM    2  N   UNK N   1      -1.481  -0.051  -0.006  0.00  0.00    -0.326 N 
ATOM      3  HN  UNK N   1      -2.328   0.511   0.079  1.00  0.00     0.169 HD
HETATM    4  C   UNK N   1      -0.294   0.575  -0.238  0.00  0.00     0.119 A 
HETATM    5  C   UNK N   1       0.873  -0.224  -0.400  0.00  0.00     0.035 A 
HETATM    6  C   UNK N   1       2.126   0.298  -0.751  0.00  0.00     0.017 A 
HETATM    7  C   UNK N   1       3.240  -0.530  -0.887  0.00  0.00     0.001 A 
HETATM    8  C   UNK N   1       3.115  -1.904  -0.686  0.00  0.00     0.002 A 
HETATM    9  C   UNK N   1       1.870  -2.450  -0.370  0.00  0.00     0.030 A 
HETATM   10  C   UNK N   1       0.752  -1.621  -0.234  0.00  0.00     0.047 A 
HETATM   11  N   UNK N   1      -0.456  -2.170   0.021  0.00  0.00    -0.340 N 
ATOM     12  HN  UNK N   1      -0.530  -3.180   0.143  1.00  0.00     0.167 HD
ENDROOT
BRANCH   4  13
HETATM   13  N   UNK N   1      -0.308   2.001  -0.391  0.00  0.00    -0.342 N 
HETATM   14  H   UNK N   1      -1.174   2.403  -0.632  0.00  0.00     0.167 HD
BRANCH  13  15
HETATM   15  C   UNK N   1       0.782   2.904  -0.237  0.00  0.00     0.034 A 
HETATM   16  C   UNK N   1       0.810   4.082  -1.024  0.00  0.00     0.032 A 
HETATM   17  C   UNK N   1       1.910   4.960  -0.967  0.00  0.00     0.034 A 
HETATM   18  C   UNK N   1       2.953   4.624  -0.112  0.00  0.00     0.059 A 
HETATM   19  N   UNK N   1       4.109   5.274   0.080  0.00  0.00    -0.300 N 
HETATM   20  C   UNK N   1       2.916   3.519   0.676  0.00  0.00     0.011 A 
HETATM   21  N   UNK N   1       4.811   4.591   0.981  0.00  0.00    -0.311 N 
HETATM   22  H   UNK N   1       4.389   6.107  -0.365  0.00  0.00     0.187 HD
HETATM   23  C   UNK N   1       4.102   3.501   1.371  0.00  0.00     0.120 A 
ATOM     24  HN  UNK N   1       5.737   4.846   1.325  1.00  0.00     0.186 HD
HETATM   25  C   UNK N   1       1.843   2.639   0.661  0.00  0.00     0.044 A 
ENDBRANCH  13  15
ENDBRANCH   4  13
BRANCH   1  26
HETATM   26  C   UNK N   1      -2.879  -2.066   0.264  0.00  0.00     0.077 A 
HETATM   27  C   UNK N   1      -4.065  -1.322   0.282  0.00  0.00     0.033 A 
HETATM   28  C   UNK N   1      -5.290  -1.987   0.357  0.00  0.00     0.004 A 
HETATM   29  C   UNK N   1      -5.322  -3.381   0.409  0.00  0.00     0.024 A 
HETATM   30  C   UNK N   1      -4.122  -4.092   0.390  0.00  0.00     0.005 A 
HETATM   31  C   UNK N   1      -4.134  -5.578   0.437  0.00  0.00     0.068 C 
HETATM   32  N   UNK N   1      -2.938  -3.428   0.317  0.00  0.00    -0.357 N 
ATOM     33  HN  UNK N   1      -2.070  -3.963   0.300  1.00  0.00     0.166 HD
ENDBRANCH   1  26
TORSDOF 3
