REMARK  2 active torsions:
REMARK  status: ('A' for Active; 'I' for Inactive)
REMARK    1  A    between atoms: S_2  and  N_5 
REMARK    2  A    between atoms: N_5  and  C_6 
ROOT
HETATM    1  C   UNK N   1      -0.739   0.036  -0.129  0.00  0.00     0.069 A 
HETATM    2  C   UNK N   1      -1.804  -0.862  -0.316  0.00  0.00     0.032 A 
HETATM    3  C   UNK N   1       0.563  -0.468   0.026  0.00  0.00     0.070 A 
HETATM    4  N   UNK N   1       1.618   0.381   0.191  0.00  0.00    -0.363 N 
ATOM      5  HN  UNK N   1       1.451   1.387   0.209  1.00  0.00     0.165 HD
HETATM    6  C   UNK N   1       2.889  -0.085   0.332  0.00  0.00     0.088 A 
HETATM    7  C   UNK N   1       3.144  -1.459   0.315  0.00  0.00     0.018 A 
HETATM    8  C   UNK N   1       2.084  -2.351   0.151  0.00  0.00     0.015 A 
HETATM    9  C   UNK N   1       0.787  -1.862   0.002  0.00  0.00    -0.007 A 
HETATM   10  C   UNK N   1      -0.284  -2.742  -0.171  0.00  0.00     0.014 A 
HETATM   11  C   UNK N   1      -1.577  -2.241  -0.332  0.00  0.00     0.003 A 
ENDROOT
BRANCH   1  12
HETATM   12  N   UNK N   1      -0.968   1.440  -0.082  0.00  0.00    -0.283 N 
HETATM   13  H   UNK N   1      -0.223   2.022   0.193  0.00  0.00     0.178 HD
BRANCH  12  14
HETATM   14  S   UNK N   1      -2.507   2.203  -0.488  0.00  0.00     0.227 S 
HETATM   15  O   UNK N   1      -2.681   3.442   0.402  0.00  0.00    -0.206 OA
HETATM   16  O   UNK N   1      -2.940   1.518   0.818  0.00  0.00    -0.206 OA
HETATM   17  C   UNK N   1      -1.055   3.278  -0.303  0.00  0.00     0.186 C 
ENDBRANCH  12  14
ENDBRANCH   1  12
TORSDOF 2
