MODEL 1
REMARK VINA RESULT:      -5.7      0.000      0.000
REMARK  2 active torsions:
REMARK  status: ('A' for Active; 'I' for Inactive)
REMARK    1  A    between atoms: S_2  and  N_5 
REMARK    2  A    between atoms: N_5  and  C_6 
ROOT
HETATM    1  C   UNK N   1      31.960  16.307   8.151  0.00  0.00     0.069 A 
HETATM    2  C   UNK N   1      32.024  15.473   7.022  0.00  0.00     0.032 A 
HETATM    3  C   UNK N   1      30.806  17.079   8.368  0.00  0.00     0.070 A 
HETATM    4  N   UNK N   1      30.709  17.883   9.466  0.00  0.00    -0.363 N 
ATOM      5  HN  UNK N   1      31.487  17.925  10.125  1.00  0.00     0.165 HD
HETATM    6  C   UNK N   1      29.597  18.632   9.702  0.00  0.00     0.088 A 
HETATM    7  C   UNK N   1      28.520  18.596   8.812  0.00  0.00     0.018 A 
HETATM    8  C   UNK N   1      28.592  17.785   7.680  0.00  0.00     0.015 A 
HETATM    9  C   UNK N   1      29.734  17.018   7.451  0.00  0.00    -0.007 A 
HETATM   10  C   UNK N   1      29.819  16.195   6.326  0.00  0.00     0.014 A 
HETATM   11  C   UNK N   1      30.962  15.422   6.114  0.00  0.00     0.003 A 
ENDROOT
BRANCH   1  12
HETATM   12  N   UNK N   1      33.050  16.385   9.063  0.00  0.00    -0.283 N 
HETATM   13  H   UNK N   1      32.904  16.077   9.987  0.00  0.00     0.178 HD
BRANCH  12  14
HETATM   14  S   UNK N   1      34.649  17.000   8.639  0.00  0.00     0.227 S 
HETATM   15  O   UNK N   1      35.294  17.580   9.906  0.00  0.00    -0.206 OA
HETATM   16  O   UNK N   1      33.908  18.345   8.709  0.00  0.00    -0.206 OA
HETATM   17  C   UNK N   1      34.501  16.006  10.152  0.00  0.00     0.186 C 
ENDBRANCH  12  14
ENDBRANCH   1  12
TORSDOF 2
ENDMDL
MODEL 2
REMARK VINA RESULT:      -5.6     14.570     15.465
REMARK  2 active torsions:
REMARK  status: ('A' for Active; 'I' for Inactive)
REMARK    1  A    between atoms: S_2  and  N_5 
REMARK    2  A    between atoms: N_5  and  C_6 
ROOT
HETATM    1  C   UNK N   1      27.678  24.397  -4.318  0.00  0.00     0.069 A 
HETATM    2  C   UNK N   1      27.775  23.512  -5.405  0.00  0.00     0.032 A 
HETATM    3  C   UNK N   1      26.852  25.528  -4.427  0.00  0.00     0.070 A 
HETATM    4  N   UNK N   1      26.724  26.395  -3.382  0.00  0.00    -0.363 N 
ATOM      5  HN  UNK N   1      27.242  26.219  -2.521  1.00  0.00     0.165 HD
HETATM    6  C   UNK N   1      25.921  27.491  -3.462  0.00  0.00     0.088 A 
HETATM    7  C   UNK N   1      25.204  27.758  -4.631  0.00  0.00     0.018 A 
HETATM    8  C   UNK N   1      25.317  26.890  -5.718  0.00  0.00     0.015 A 
HETATM    9  C   UNK N   1      26.139  25.768  -5.623  0.00  0.00    -0.007 A 
HETATM   10  C   UNK N   1      26.256  24.885  -6.699  0.00  0.00     0.014 A 
HETATM   11  C   UNK N   1      27.072  23.758  -6.588  0.00  0.00     0.003 A 
ENDROOT
BRANCH   1  12
HETATM   12  N   UNK N   1      28.414  24.168  -3.122  0.00  0.00    -0.283 N 
HETATM   13  H   UNK N   1      28.070  24.555  -2.285  0.00  0.00     0.178 HD
BRANCH  12  14
HETATM   14  S   UNK N   1      29.907  23.229  -3.047  0.00  0.00     0.227 S 
HETATM   15  O   UNK N   1      30.407  23.233  -1.595  0.00  0.00    -0.206 OA
HETATM   16  O   UNK N   1      30.529  24.634  -2.996  0.00  0.00    -0.206 OA
HETATM   17  C   UNK N   1      28.660  22.935  -1.760  0.00  0.00     0.186 C 
ENDBRANCH  12  14
ENDBRANCH   1  12
TORSDOF 2
ENDMDL
MODEL 3
REMARK VINA RESULT:      -5.5      8.124      9.199
REMARK  2 active torsions:
REMARK  status: ('A' for Active; 'I' for Inactive)
REMARK    1  A    between atoms: S_2  and  N_5 
REMARK    2  A    between atoms: N_5  and  C_6 
ROOT
HETATM    1  C   UNK N   1      36.218  12.958  14.257  0.00  0.00     0.069 A 
HETATM    2  C   UNK N   1      35.381  11.837  14.396  0.00  0.00     0.032 A 
HETATM    3  C   UNK N   1      36.386  13.827  15.349  0.00  0.00     0.070 A 
HETATM    4  N   UNK N   1      37.206  14.912  15.249  0.00  0.00    -0.363 N 
ATOM      5  HN  UNK N   1      37.691  15.092  14.369  1.00  0.00     0.165 HD
HETATM    6  C   UNK N   1      37.392  15.760  16.297  0.00  0.00     0.088 A 
HETATM    7  C   UNK N   1      36.737  15.538  17.511  0.00  0.00     0.018 A 
HETATM    8  C   UNK N   1      35.890  14.437  17.641  0.00  0.00     0.015 A 
HETATM    9  C   UNK N   1      35.711  13.572  16.563  0.00  0.00    -0.007 A 
HETATM   10  C   UNK N   1      34.872  12.462  16.680  0.00  0.00     0.014 A 
HETATM   11  C   UNK N   1      34.710  11.595  15.597  0.00  0.00     0.003 A 
ENDROOT
BRANCH   1  12
HETATM   12  N   UNK N   1      36.881  13.227  13.027  0.00  0.00    -0.283 N 
HETATM   13  H   UNK N   1      37.860  13.128  12.996  0.00  0.00     0.178 HD
BRANCH  12  14
HETATM   14  S   UNK N   1      36.054  13.726  11.549  0.00  0.00     0.227 S 
HETATM   15  O   UNK N   1      37.079  14.402  10.627  0.00  0.00    -0.206 OA
HETATM   16  O   UNK N   1      36.137  15.102  12.229  0.00  0.00    -0.206 OA
HETATM   17  C   UNK N   1      37.661  12.897  11.378  0.00  0.00     0.186 C 
ENDBRANCH  12  14
ENDBRANCH   1  12
TORSDOF 2
ENDMDL
MODEL 4
REMARK VINA RESULT:      -5.4      3.425      4.772
REMARK  2 active torsions:
REMARK  status: ('A' for Active; 'I' for Inactive)
REMARK    1  A    between atoms: S_2  and  N_5 
REMARK    2  A    between atoms: N_5  and  C_6 
ROOT
HETATM    1  C   UNK N   1      31.362  17.311   7.735  0.00  0.00     0.069 A 
HETATM    2  C   UNK N   1      32.518  17.628   8.469  0.00  0.00     0.032 A 
HETATM    3  C   UNK N   1      31.451  17.182   6.339  0.00  0.00     0.070 A 
HETATM    4  N   UNK N   1      30.349  16.857   5.604  0.00  0.00    -0.363 N 
ATOM      5  HN  UNK N   1      29.456  16.716   6.077  1.00  0.00     0.165 HD
HETATM    6  C   UNK N   1      30.414  16.716   4.251  0.00  0.00     0.088 A 
HETATM    7  C   UNK N   1      31.624  16.908   3.579  0.00  0.00     0.018 A 
HETATM    8  C   UNK N   1      32.766  17.244   4.305  0.00  0.00     0.015 A 
HETATM    9  C   UNK N   1      32.689  17.380   5.690  0.00  0.00    -0.007 A 
HETATM   10  C   UNK N   1      33.826  17.709   6.432  0.00  0.00     0.014 A 
HETATM   11  C   UNK N   1      33.739  17.830   7.820  0.00  0.00     0.003 A 
ENDROOT
BRANCH   1  12
HETATM   12  N   UNK N   1      30.109  17.134   8.388  0.00  0.00    -0.283 N 
HETATM   13  H   UNK N   1      29.832  16.217   8.617  0.00  0.00     0.178 HD
BRANCH  12  14
HETATM   14  S   UNK N   1      29.022  18.458   8.812  0.00  0.00     0.227 S 
HETATM   15  O   UNK N   1      27.734  17.857   9.393  0.00  0.00    -0.206 OA
HETATM   16  O   UNK N   1      28.336  18.020   7.508  0.00  0.00    -0.206 OA
HETATM   17  C   UNK N   1      29.226  17.114  10.017  0.00  0.00     0.186 C 
ENDBRANCH  12  14
ENDBRANCH   1  12
TORSDOF 2
ENDMDL
MODEL 5
REMARK VINA RESULT:      -5.4      9.744     11.093
REMARK  2 active torsions:
REMARK  status: ('A' for Active; 'I' for Inactive)
REMARK    1  A    between atoms: S_2  and  N_5 
REMARK    2  A    between atoms: N_5  and  C_6 
ROOT
HETATM    1  C   UNK N   1      21.474  14.163   9.220  0.00  0.00     0.069 A 
HETATM    2  C   UNK N   1      20.183  13.915   9.716  0.00  0.00     0.032 A 
HETATM    3  C   UNK N   1      22.563  13.460   9.762  0.00  0.00     0.070 A 
HETATM    4  N   UNK N   1      23.825  13.667   9.288  0.00  0.00    -0.363 N 
ATOM      5  HN  UNK N   1      23.972  14.345   8.540  1.00  0.00     0.165 HD
HETATM    6  C   UNK N   1      24.893  12.989   9.791  0.00  0.00     0.088 A 
HETATM    7  C   UNK N   1      24.718  12.058  10.818  0.00  0.00     0.018 A 
HETATM    8  C   UNK N   1      23.439  11.828  11.325  0.00  0.00     0.015 A 
HETATM    9  C   UNK N   1      22.352  12.524  10.798  0.00  0.00    -0.007 A 
HETATM   10  C   UNK N   1      21.064  12.299  11.290  0.00  0.00     0.014 A 
HETATM   11  C   UNK N   1      19.981  12.993  10.746  0.00  0.00     0.003 A 
ENDROOT
BRANCH   1  12
HETATM   12  N   UNK N   1      21.689  15.123   8.191  0.00  0.00    -0.283 N 
HETATM   13  H   UNK N   1      22.588  15.183   7.794  0.00  0.00     0.178 HD
BRANCH  12  14
HETATM   14  S   UNK N   1      20.442  16.214   7.583  0.00  0.00     0.227 S 
HETATM   15  O   UNK N   1      21.119  17.513   7.123  0.00  0.00    -0.206 OA
HETATM   16  O   UNK N   1      20.668  16.880   8.950  0.00  0.00    -0.206 OA
HETATM   17  C   UNK N   1      21.957  16.033   6.599  0.00  0.00     0.186 C 
ENDBRANCH  12  14
ENDBRANCH   1  12
TORSDOF 2
ENDMDL
MODEL 6
REMARK VINA RESULT:      -5.2      6.185      7.581
REMARK  2 active torsions:
REMARK  status: ('A' for Active; 'I' for Inactive)
REMARK    1  A    between atoms: S_2  and  N_5 
REMARK    2  A    between atoms: N_5  and  C_6 
ROOT
HETATM    1  C   UNK N   1      26.052  19.192   4.823  0.00  0.00     0.069 A 
HETATM    2  C   UNK N   1      26.766  20.008   3.929  0.00  0.00     0.032 A 
HETATM    3  C   UNK N   1      24.668  19.031   4.649  0.00  0.00     0.070 A 
HETATM    4  N   UNK N   1      23.953  18.230   5.491  0.00  0.00    -0.363 N 
ATOM      5  HN  UNK N   1      24.433  17.755   6.256  1.00  0.00     0.165 HD
HETATM    6  C   UNK N   1      22.613  18.051   5.334  0.00  0.00     0.088 A 
HETATM    7  C   UNK N   1      21.931  18.694   4.298  0.00  0.00     0.018 A 
HETATM    8  C   UNK N   1      22.635  19.521   3.423  0.00  0.00     0.015 A 
HETATM    9  C   UNK N   1      24.009  19.693   3.590  0.00  0.00    -0.007 A 
HETATM   10  C   UNK N   1      24.730  20.512   2.717  0.00  0.00     0.014 A 
HETATM   11  C   UNK N   1      26.107  20.666   2.887  0.00  0.00     0.003 A 
ENDROOT
BRANCH   1  12
HETATM   12  N   UNK N   1      26.713  18.543   5.904  0.00  0.00    -0.283 N 
HETATM   13  H   UNK N   1      26.355  17.680   6.215  0.00  0.00     0.178 HD
BRANCH  12  14
HETATM   14  S   UNK N   1      28.137  19.190   6.722  0.00  0.00     0.227 S 
HETATM   15  O   UNK N   1      28.132  18.686   8.172  0.00  0.00    -0.206 OA
HETATM   16  O   UNK N   1      27.090  20.144   7.318  0.00  0.00    -0.206 OA
HETATM   17  C   UNK N   1      27.748  17.433   6.968  0.00  0.00     0.186 C 
ENDBRANCH  12  14
ENDBRANCH   1  12
TORSDOF 2
ENDMDL
MODEL 7
REMARK VINA RESULT:      -5.1      8.432     10.288
REMARK  2 active torsions:
REMARK  status: ('A' for Active; 'I' for Inactive)
REMARK    1  A    between atoms: S_2  and  N_5 
REMARK    2  A    between atoms: N_5  and  C_6 
ROOT
HETATM    1  C   UNK N   1      35.295  12.116  15.338  0.00  0.00     0.069 A 
HETATM    2  C   UNK N   1      35.263  10.905  14.626  0.00  0.00     0.032 A 
HETATM    3  C   UNK N   1      35.250  12.088  16.741  0.00  0.00     0.070 A 
HETATM    4  N   UNK N   1      35.298  13.247  17.459  0.00  0.00    -0.363 N 
ATOM      5  HN  UNK N   1      35.359  14.137  16.965  1.00  0.00     0.165 HD
HETATM    6  C   UNK N   1      35.266  13.242  18.819  0.00  0.00     0.088 A 
HETATM    7  C   UNK N   1      35.179  12.036  19.520  0.00  0.00     0.018 A 
HETATM    8  C   UNK N   1      35.125  10.834  18.812  0.00  0.00     0.015 A 
HETATM    9  C   UNK N   1      35.163  10.852  17.419  0.00  0.00    -0.007 A 
HETATM   10  C   UNK N   1      35.118   9.657  16.696  0.00  0.00     0.014 A 
HETATM   11  C   UNK N   1      35.170   9.685  15.302  0.00  0.00     0.003 A 
ENDROOT
BRANCH   1  12
HETATM   12  N   UNK N   1      35.359  13.363  14.654  0.00  0.00    -0.283 N 
HETATM   13  H   UNK N   1      34.973  14.154  15.095  0.00  0.00     0.178 HD
BRANCH  12  14
HETATM   14  S   UNK N   1      36.090  13.579  13.062  0.00  0.00     0.227 S 
HETATM   15  O   UNK N   1      36.095  15.079  12.733  0.00  0.00    -0.206 OA
HETATM   16  O   UNK N   1      34.619  13.753  12.653  0.00  0.00    -0.206 OA
HETATM   17  C   UNK N   1      36.616  14.699  14.392  0.00  0.00     0.186 C 
ENDBRANCH  12  14
ENDBRANCH   1  12
TORSDOF 2
ENDMDL
MODEL 8
REMARK VINA RESULT:      -5.1      7.287      8.956
REMARK  2 active torsions:
REMARK  status: ('A' for Active; 'I' for Inactive)
REMARK    1  A    between atoms: S_2  and  N_5 
REMARK    2  A    between atoms: N_5  and  C_6 
ROOT
HETATM    1  C   UNK N   1      24.218  18.982   4.638  0.00  0.00     0.069 A 
HETATM    2  C   UNK N   1      23.626  19.730   3.606  0.00  0.00     0.032 A 
HETATM    3  C   UNK N   1      25.615  19.003   4.786  0.00  0.00     0.070 A 
HETATM    4  N   UNK N   1      26.215  18.301   5.790  0.00  0.00    -0.363 N 
ATOM      5  HN  UNK N   1      25.639  17.752   6.428  1.00  0.00     0.165 HD
HETATM    6  C   UNK N   1      27.565  18.316   5.958  0.00  0.00     0.088 A 
HETATM    7  C   UNK N   1      28.377  19.056   5.094  0.00  0.00     0.018 A 
HETATM    8  C   UNK N   1      27.791  19.782   4.057  0.00  0.00     0.015 A 
HETATM    9  C   UNK N   1      26.406  19.763   3.897  0.00  0.00    -0.007 A 
HETATM   10  C   UNK N   1      25.804  20.491   2.868  0.00  0.00     0.014 A 
HETATM   11  C   UNK N   1      24.416  20.475   2.725  0.00  0.00     0.003 A 
ENDROOT
BRANCH   1  12
HETATM   12  N   UNK N   1      23.422  18.197   5.519  0.00  0.00    -0.283 N 
HETATM   13  H   UNK N   1      23.208  18.569   6.405  0.00  0.00     0.178 HD
BRANCH  12  14
HETATM   14  S   UNK N   1      22.792  16.597   5.120  0.00  0.00     0.227 S 
HETATM   15  O   UNK N   1      22.212  15.975   6.398  0.00  0.00    -0.206 OA
HETATM   16  O   UNK N   1      24.097  16.155   5.802  0.00  0.00    -0.206 OA
HETATM   17  C   UNK N   1      21.759  17.678   6.151  0.00  0.00     0.186 C 
ENDBRANCH  12  14
ENDBRANCH   1  12
TORSDOF 2
ENDMDL
MODEL 9
REMARK VINA RESULT:      -5.1      8.356     11.228
REMARK  2 active torsions:
REMARK  status: ('A' for Active; 'I' for Inactive)
REMARK    1  A    between atoms: S_2  and  N_5 
REMARK    2  A    between atoms: N_5  and  C_6 
ROOT
HETATM    1  C   UNK N   1      35.185  12.714  16.497  0.00  0.00     0.069 A 
HETATM    2  C   UNK N   1      35.137  13.707  17.491  0.00  0.00     0.032 A 
HETATM    3  C   UNK N   1      35.265  11.365  16.880  0.00  0.00     0.070 A 
HETATM    4  N   UNK N   1      35.295  10.379  15.938  0.00  0.00    -0.363 N 
ATOM      5  HN  UNK N   1      35.266  10.632  14.950  1.00  0.00     0.165 HD
HETATM    6  C   UNK N   1      35.361   9.065  16.286  0.00  0.00     0.088 A 
HETATM    7  C   UNK N   1      35.406   8.693  17.633  0.00  0.00     0.018 A 
HETATM    8  C   UNK N   1      35.380   9.680  18.618  0.00  0.00     0.015 A 
HETATM    9  C   UNK N   1      35.306  11.022  18.249  0.00  0.00    -0.007 A 
HETATM   10  C   UNK N   1      35.272  12.022  19.225  0.00  0.00     0.014 A 
HETATM   11  C   UNK N   1      35.185  13.362  18.844  0.00  0.00     0.003 A 
ENDROOT
BRANCH   1  12
HETATM   12  N   UNK N   1      35.166  13.061  15.117  0.00  0.00    -0.283 N 
HETATM   13  H   UNK N   1      34.375  12.811  14.587  0.00  0.00     0.178 HD
BRANCH  12  14
HETATM   14  S   UNK N   1      36.476  13.914  14.296  0.00  0.00     0.227 S 
HETATM   15  O   UNK N   1      36.834  13.137  13.022  0.00  0.00    -0.206 OA
HETATM   16  O   UNK N   1      37.308  12.781  14.917  0.00  0.00    -0.206 OA
HETATM   17  C   UNK N   1      35.085  13.330  13.285  0.00  0.00     0.186 C 
ENDBRANCH  12  14
ENDBRANCH   1  12
TORSDOF 2
ENDMDL
