REMARK  10 active torsions:
REMARK  status: ('A' for Active; 'I' for Inactive)
REMARK    1  A    between atoms: C_2  and  C_3 
REMARK    2  A    between atoms: C_3  and  C_4 
REMARK    3  A    between atoms: C_4  and  C_5 
REMARK    4  A    between atoms: C_5  and  C_6 
REMARK    5  A    between atoms: C_6  and  C_7 
REMARK    6  A    between atoms: C_7  and  C_8 
REMARK    7  A    between atoms: C_8  and  C_9 
REMARK    8  A    between atoms: C_9  and  C_10 
REMARK    9  A    between atoms: C_12  and  O_13 
REMARK   10  A    between atoms: N_20  and  O_21 
ROOT
HETATM    1  C   UNK N   1       2.021  -2.436   0.258  0.00  0.00     0.043 A 
HETATM    2  C   UNK N   1       3.293  -1.880   0.099  0.00  0.00     0.065 A 
HETATM    3  C   UNK N   1       4.400  -2.712  -0.052  0.00  0.00     0.080 A 
HETATM    4  C   UNK N   1       4.226  -4.101  -0.045  0.00  0.00     0.026 A 
HETATM    5  C   UNK N   1       5.319  -4.967  -0.188  0.00  0.00     0.016 A 
HETATM    6  C   UNK N   1       5.125  -6.351  -0.175  0.00  0.00     0.001 A 
HETATM    7  C   UNK N   1       3.841  -6.878  -0.021  0.00  0.00     0.002 A 
HETATM    8  C   UNK N   1       2.745  -6.025   0.124  0.00  0.00     0.033 A 
HETATM    9  C   UNK N   1       2.925  -4.633   0.115  0.00  0.00     0.075 A 
HETATM   10  N   UNK N   1       1.855  -3.795   0.265  0.00  0.00    -0.228 N 
ENDROOT
BRANCH   1  11
HETATM   11  C   UNK N   1       0.853  -1.523   0.447  0.00  0.00     0.060 C 
BRANCH  11  12
HETATM   12  C   UNK N   1      -0.170  -1.737  -0.651  0.00  0.00     0.006 C 
BRANCH  12  13
HETATM   13  C   UNK N   1      -1.544  -1.397  -0.121  0.00  0.00     0.000 C 
BRANCH  13  14
HETATM   14  C   UNK N   1      -2.437  -2.621  -0.143  0.00  0.00     0.000 C 
BRANCH  14  15
HETATM   15  C   UNK N   1      -3.864  -2.124  -0.186  0.00  0.00     0.000 C 
BRANCH  15  16
HETATM   16  C   UNK N   1      -4.867  -3.245  -0.036  0.00  0.00     0.000 C 
BRANCH  16  17
HETATM   17  C   UNK N   1      -6.240  -2.608  -0.081  0.00  0.00    -0.000 C 
BRANCH  17  18
HETATM   18  C   UNK N   1      -7.328  -3.639   0.111  0.00  0.00    -0.005 C 
HETATM   19  C   UNK N   1      -8.670  -2.940   0.052  0.00  0.00     0.005 C 
ENDBRANCH  17  18
ENDBRANCH  16  17
ENDBRANCH  15  16
ENDBRANCH  14  15
ENDBRANCH  13  14
ENDBRANCH  12  13
ENDBRANCH  11  12
ENDBRANCH   1  11
BRANCH  10  20
HETATM   20  O   UNK N   1       0.636  -4.310   0.426  0.00  0.00    -0.282 OA
ATOM     21  HO  UNK N   1       0.521  -5.253   0.431  1.00  0.00     0.245 HD
ENDBRANCH  10  20
BRANCH   3  22
HETATM   22  O   UNK N   1       5.623  -2.172  -0.198  0.00  0.00    -0.360 OA
HETATM   23  H   UNK N   1       6.375  -2.722  -0.300  0.00  0.00     0.217 HD
ENDBRANCH   3  22
TORSDOF 10
