MODEL 1
REMARK VINA RESULT:      -6.0      0.000      0.000
REMARK  10 active torsions:
REMARK  status: ('A' for Active; 'I' for Inactive)
REMARK    1  A    between atoms: C_2  and  C_3 
REMARK    2  A    between atoms: C_3  and  C_4 
REMARK    3  A    between atoms: C_4  and  C_5 
REMARK    4  A    between atoms: C_5  and  C_6 
REMARK    5  A    between atoms: C_6  and  C_7 
REMARK    6  A    between atoms: C_7  and  C_8 
REMARK    7  A    between atoms: C_8  and  C_9 
REMARK    8  A    between atoms: C_9  and  C_10 
REMARK    9  A    between atoms: C_12  and  O_13 
REMARK   10  A    between atoms: N_20  and  O_21 
ROOT
HETATM    1  C   UNK N   1      29.173  17.812   7.227  0.00  0.00     0.043 A 
HETATM    2  C   UNK N   1      29.578  17.375   5.963  0.00  0.00     0.065 A 
HETATM    3  C   UNK N   1      29.006  17.931   4.821  0.00  0.00     0.080 A 
HETATM    4  C   UNK N   1      28.031  18.926   4.951  0.00  0.00     0.026 A 
HETATM    5  C   UNK N   1      27.431  19.502   3.823  0.00  0.00     0.016 A 
HETATM    6  C   UNK N   1      26.457  20.493   3.974  0.00  0.00     0.001 A 
HETATM    7  C   UNK N   1      26.077  20.915   5.250  0.00  0.00     0.002 A 
HETATM    8  C   UNK N   1      26.667  20.347   6.381  0.00  0.00     0.033 A 
HETATM    9  C   UNK N   1      27.645  19.350   6.245  0.00  0.00     0.075 A 
HETATM   10  N   UNK N   1      28.219  18.786   7.350  0.00  0.00    -0.228 N 
ENDROOT
BRANCH   1  11
HETATM   11  C   UNK N   1      29.781  17.181   8.438  0.00  0.00     0.060 C 
BRANCH  11  12
HETATM   12  C   UNK N   1      31.222  16.795   8.168  0.00  0.00     0.006 C 
BRANCH  12  13
HETATM   13  C   UNK N   1      32.115  17.977   8.465  0.00  0.00     0.000 C 
BRANCH  13  14
HETATM   14  C   UNK N   1      33.334  17.958   7.564  0.00  0.00     0.000 C 
BRANCH  14  15
HETATM   15  C   UNK N   1      33.420  16.571   6.969  0.00  0.00     0.000 C 
BRANCH  15  16
HETATM   16  C   UNK N   1      33.900  16.590   5.536  0.00  0.00     0.000 C 
BRANCH  16  17
HETATM   17  C   UNK N   1      32.994  17.544   4.787  0.00  0.00    -0.000 C 
BRANCH  17  18
HETATM   18  C   UNK N   1      32.801  17.104   3.354  0.00  0.00    -0.005 C 
HETATM   19  C   UNK N   1      33.288  15.677   3.219  0.00  0.00     0.005 C 
ENDBRANCH  17  18
ENDBRANCH  16  17
ENDBRANCH  15  16
ENDBRANCH  14  15
ENDBRANCH  13  14
ENDBRANCH  12  13
ENDBRANCH  11  12
ENDBRANCH   1  11
BRANCH  10  20
HETATM   20  O   UNK N   1      27.838  19.187   8.563  0.00  0.00    -0.282 OA
ATOM     21  HO  UNK N   1      26.980  18.943   8.891  1.00  0.00     0.245 HD
ENDBRANCH  10  20
BRANCH   3  22
HETATM   22  O   UNK N   1      29.394  17.501   3.607  0.00  0.00    -0.360 OA
HETATM   23  H   UNK N   1      28.759  17.215   2.980  0.00  0.00     0.217 HD
ENDBRANCH   3  22
TORSDOF 10
ENDMDL
MODEL 2
REMARK VINA RESULT:      -5.8     10.042     13.403
REMARK  10 active torsions:
REMARK  status: ('A' for Active; 'I' for Inactive)
REMARK    1  A    between atoms: C_2  and  C_3 
REMARK    2  A    between atoms: C_3  and  C_4 
REMARK    3  A    between atoms: C_4  and  C_5 
REMARK    4  A    between atoms: C_5  and  C_6 
REMARK    5  A    between atoms: C_6  and  C_7 
REMARK    6  A    between atoms: C_7  and  C_8 
REMARK    7  A    between atoms: C_8  and  C_9 
REMARK    8  A    between atoms: C_9  and  C_10 
REMARK    9  A    between atoms: C_12  and  O_13 
REMARK   10  A    between atoms: N_20  and  O_21 
ROOT
HETATM    1  C   UNK N   1      29.731  22.843  -3.810  0.00  0.00     0.043 A 
HETATM    2  C   UNK N   1      29.605  22.396  -5.128  0.00  0.00     0.065 A 
HETATM    3  C   UNK N   1      30.580  21.566  -5.676  0.00  0.00     0.080 A 
HETATM    4  C   UNK N   1      31.679  21.185  -4.897  0.00  0.00     0.026 A 
HETATM    5  C   UNK N   1      32.682  20.356  -5.419  0.00  0.00     0.016 A 
HETATM    6  C   UNK N   1      33.774  19.990  -4.627  0.00  0.00     0.001 A 
HETATM    7  C   UNK N   1      33.870  20.447  -3.310  0.00  0.00     0.002 A 
HETATM    8  C   UNK N   1      32.878  21.274  -2.780  0.00  0.00     0.033 A 
HETATM    9  C   UNK N   1      31.777  21.652  -3.565  0.00  0.00     0.075 A 
HETATM   10  N   UNK N   1      30.808  22.469  -3.052  0.00  0.00    -0.228 N 
ENDROOT
BRANCH   1  11
HETATM   11  C   UNK N   1      28.686  23.756  -3.255  0.00  0.00     0.060 C 
BRANCH  11  12
HETATM   12  C   UNK N   1      27.858  24.356  -4.373  0.00  0.00     0.006 C 
BRANCH  12  13
HETATM   13  C   UNK N   1      26.392  24.233  -4.025  0.00  0.00     0.000 C 
BRANCH  13  14
HETATM   14  C   UNK N   1      25.545  24.266  -5.281  0.00  0.00     0.000 C 
BRANCH  14  15
HETATM   15  C   UNK N   1      26.030  25.436  -6.107  0.00  0.00     0.000 C 
BRANCH  15  16
HETATM   16  C   UNK N   1      25.148  26.654  -5.949  0.00  0.00     0.000 C 
BRANCH  16  17
HETATM   17  C   UNK N   1      26.042  27.776  -5.466  0.00  0.00    -0.000 C 
BRANCH  17  18
HETATM   18  C   UNK N   1      25.622  28.260  -4.097  0.00  0.00    -0.005 C 
HETATM   19  C   UNK N   1      26.593  27.710  -3.074  0.00  0.00     0.005 C 
ENDBRANCH  17  18
ENDBRANCH  16  17
ENDBRANCH  15  16
ENDBRANCH  14  15
ENDBRANCH  13  14
ENDBRANCH  12  13
ENDBRANCH  11  12
ENDBRANCH   1  11
BRANCH  10  20
HETATM   20  O   UNK N   1      30.918  22.911  -1.799  0.00  0.00    -0.282 OA
ATOM     21  HO  UNK N   1      30.473  22.451  -1.097  1.00  0.00     0.245 HD
ENDBRANCH  10  20
BRANCH   3  22
HETATM   22  O   UNK N   1      30.457  21.144  -6.947  0.00  0.00    -0.360 OA
HETATM   23  H   UNK N   1      30.675  20.262  -7.176  0.00  0.00     0.217 HD
ENDBRANCH   3  22
TORSDOF 10
ENDMDL
MODEL 3
REMARK VINA RESULT:      -5.7      7.105      9.530
REMARK  10 active torsions:
REMARK  status: ('A' for Active; 'I' for Inactive)
REMARK    1  A    between atoms: C_2  and  C_3 
REMARK    2  A    between atoms: C_3  and  C_4 
REMARK    3  A    between atoms: C_4  and  C_5 
REMARK    4  A    between atoms: C_5  and  C_6 
REMARK    5  A    between atoms: C_6  and  C_7 
REMARK    6  A    between atoms: C_7  and  C_8 
REMARK    7  A    between atoms: C_8  and  C_9 
REMARK    8  A    between atoms: C_9  and  C_10 
REMARK    9  A    between atoms: C_12  and  O_13 
REMARK   10  A    between atoms: N_20  and  O_21 
ROOT
HETATM    1  C   UNK N   1      35.115  14.445  11.390  0.00  0.00     0.043 A 
HETATM    2  C   UNK N   1      35.648  15.736  11.386  0.00  0.00     0.065 A 
HETATM    3  C   UNK N   1      35.323  16.618  10.358  0.00  0.00     0.080 A 
HETATM    4  C   UNK N   1      34.461  16.201   9.337  0.00  0.00     0.026 A 
HETATM    5  C   UNK N   1      34.119  17.061   8.284  0.00  0.00     0.016 A 
HETATM    6  C   UNK N   1      33.259  16.624   7.272  0.00  0.00     0.001 A 
HETATM    7  C   UNK N   1      32.736  15.330   7.306  0.00  0.00     0.002 A 
HETATM    8  C   UNK N   1      33.072  14.464   8.349  0.00  0.00     0.033 A 
HETATM    9  C   UNK N   1      33.935  14.888   9.371  0.00  0.00     0.075 A 
HETATM   10  N   UNK N   1      34.273  14.040  10.389  0.00  0.00    -0.228 N 
ENDROOT
BRANCH   1  11
HETATM   11  C   UNK N   1      35.501  13.508  12.489  0.00  0.00     0.060 C 
BRANCH  11  12
HETATM   12  C   UNK N   1      36.212  14.257  13.598  0.00  0.00     0.006 C 
BRANCH  12  13
HETATM   13  C   UNK N   1      36.638  13.274  14.665  0.00  0.00     0.000 C 
BRANCH  13  14
HETATM   14  C   UNK N   1      35.981  13.612  15.988  0.00  0.00     0.000 C 
BRANCH  14  15
HETATM   15  C   UNK N   1      34.792  12.690  16.136  0.00  0.00     0.000 C 
BRANCH  15  16
HETATM   16  C   UNK N   1      35.184  11.328  16.660  0.00  0.00     0.000 C 
BRANCH  16  17
HETATM   17  C   UNK N   1      34.615  10.311  15.693  0.00  0.00    -0.000 C 
BRANCH  17  18
HETATM   18  C   UNK N   1      33.671  10.960  14.709  0.00  0.00    -0.005 C 
HETATM   19  C   UNK N   1      33.926  10.373  13.336  0.00  0.00     0.005 C 
ENDBRANCH  17  18
ENDBRANCH  16  17
ENDBRANCH  15  16
ENDBRANCH  14  15
ENDBRANCH  13  14
ENDBRANCH  12  13
ENDBRANCH  11  12
ENDBRANCH   1  11
BRANCH  10  20
HETATM   20  O   UNK N   1      33.779  12.802  10.403  0.00  0.00    -0.282 OA
ATOM     21  HO  UNK N   1      33.747  12.317  11.219  1.00  0.00     0.245 HD
ENDBRANCH  10  20
BRANCH   3  22
HETATM   22  O   UNK N   1      35.844  17.858  10.356  0.00  0.00    -0.360 OA
HETATM   23  H   UNK N   1      36.495  18.100  10.986  0.00  0.00     0.217 HD
ENDBRANCH   3  22
TORSDOF 10
ENDMDL
MODEL 4
REMARK VINA RESULT:      -5.7     10.689     13.845
REMARK  10 active torsions:
REMARK  status: ('A' for Active; 'I' for Inactive)
REMARK    1  A    between atoms: C_2  and  C_3 
REMARK    2  A    between atoms: C_3  and  C_4 
REMARK    3  A    between atoms: C_4  and  C_5 
REMARK    4  A    between atoms: C_5  and  C_6 
REMARK    5  A    between atoms: C_6  and  C_7 
REMARK    6  A    between atoms: C_7  and  C_8 
REMARK    7  A    between atoms: C_8  and  C_9 
REMARK    8  A    between atoms: C_9  and  C_10 
REMARK    9  A    between atoms: C_12  and  O_13 
REMARK   10  A    between atoms: N_20  and  O_21 
ROOT
HETATM    1  C   UNK N   1      26.941  24.320  -5.240  0.00  0.00     0.043 A 
HETATM    2  C   UNK N   1      27.814  24.195  -6.324  0.00  0.00     0.065 A 
HETATM    3  C   UNK N   1      29.129  23.785  -6.113  0.00  0.00     0.080 A 
HETATM    4  C   UNK N   1      29.563  23.501  -4.813  0.00  0.00     0.026 A 
HETATM    5  C   UNK N   1      30.881  23.093  -4.564  0.00  0.00     0.016 A 
HETATM    6  C   UNK N   1      31.296  22.817  -3.258  0.00  0.00     0.001 A 
HETATM    7  C   UNK N   1      30.399  22.946  -2.195  0.00  0.00     0.002 A 
HETATM    8  C   UNK N   1      29.085  23.353  -2.431  0.00  0.00     0.033 A 
HETATM    9  C   UNK N   1      28.654  23.635  -3.737  0.00  0.00     0.075 A 
HETATM   10  N   UNK N   1      27.370  24.042  -3.970  0.00  0.00    -0.228 N 
ENDROOT
BRANCH   1  11
HETATM   11  C   UNK N   1      25.544  24.789  -5.489  0.00  0.00     0.060 C 
BRANCH  11  12
HETATM   12  C   UNK N   1      25.551  26.073  -6.295  0.00  0.00     0.006 C 
BRANCH  12  13
HETATM   13  C   UNK N   1      24.899  27.169  -5.485  0.00  0.00     0.000 C 
BRANCH  13  14
HETATM   14  C   UNK N   1      25.951  28.063  -4.860  0.00  0.00     0.000 C 
BRANCH  14  15
HETATM   15  C   UNK N   1      27.046  28.239  -5.888  0.00  0.00     0.000 C 
BRANCH  15  16
HETATM   16  C   UNK N   1      28.369  28.613  -5.260  0.00  0.00     0.000 C 
BRANCH  16  17
HETATM   17  C   UNK N   1      28.781  27.445  -4.389  0.00  0.00    -0.000 C 
BRANCH  17  18
HETATM   18  C   UNK N   1      30.200  27.016  -4.685  0.00  0.00    -0.005 C 
HETATM   19  C   UNK N   1      30.894  26.712  -3.374  0.00  0.00     0.005 C 
ENDBRANCH  17  18
ENDBRANCH  16  17
ENDBRANCH  15  16
ENDBRANCH  14  15
ENDBRANCH  13  14
ENDBRANCH  12  13
ENDBRANCH  11  12
ENDBRANCH   1  11
BRANCH  10  20
HETATM   20  O   UNK N   1      26.527  24.175  -2.946  0.00  0.00    -0.282 OA
ATOM     21  HO  UNK N   1      26.306  23.417  -2.418  1.00  0.00     0.245 HD
ENDBRANCH  10  20
BRANCH   3  22
HETATM   22  O   UNK N   1      29.966  23.672  -7.159  0.00  0.00    -0.360 OA
HETATM   23  H   UNK N   1      30.808  24.085  -7.139  0.00  0.00     0.217 HD
ENDBRANCH   3  22
TORSDOF 10
ENDMDL
MODEL 5
REMARK VINA RESULT:      -5.7      1.657      3.663
REMARK  10 active torsions:
REMARK  status: ('A' for Active; 'I' for Inactive)
REMARK    1  A    between atoms: C_2  and  C_3 
REMARK    2  A    between atoms: C_3  and  C_4 
REMARK    3  A    between atoms: C_4  and  C_5 
REMARK    4  A    between atoms: C_5  and  C_6 
REMARK    5  A    between atoms: C_6  and  C_7 
REMARK    6  A    between atoms: C_7  and  C_8 
REMARK    7  A    between atoms: C_8  and  C_9 
REMARK    8  A    between atoms: C_9  and  C_10 
REMARK    9  A    between atoms: C_12  and  O_13 
REMARK   10  A    between atoms: N_20  and  O_21 
ROOT
HETATM    1  C   UNK N   1      29.377  17.108   6.123  0.00  0.00     0.043 A 
HETATM    2  C   UNK N   1      29.016  17.403   7.440  0.00  0.00     0.065 A 
HETATM    3  C   UNK N   1      28.205  18.503   7.708  0.00  0.00     0.080 A 
HETATM    4  C   UNK N   1      27.757  19.304   6.651  0.00  0.00     0.026 A 
HETATM    5  C   UNK N   1      26.945  20.423   6.885  0.00  0.00     0.016 A 
HETATM    6  C   UNK N   1      26.510  21.212   5.817  0.00  0.00     0.001 A 
HETATM    7  C   UNK N   1      26.882  20.889   4.510  0.00  0.00     0.002 A 
HETATM    8  C   UNK N   1      27.692  19.778   4.264  0.00  0.00     0.033 A 
HETATM    9  C   UNK N   1      28.137  18.978   5.328  0.00  0.00     0.075 A 
HETATM   10  N   UNK N   1      28.937  17.894   5.092  0.00  0.00    -0.228 N 
ENDROOT
BRANCH   1  11
HETATM   11  C   UNK N   1      30.271  15.939   5.864  0.00  0.00     0.060 C 
BRANCH  11  12
HETATM   12  C   UNK N   1      31.648  16.185   6.449  0.00  0.00     0.006 C 
BRANCH  12  13
HETATM   13  C   UNK N   1      32.574  16.658   5.352  0.00  0.00     0.000 C 
BRANCH  13  14
HETATM   14  C   UNK N   1      33.795  17.332   5.945  0.00  0.00     0.000 C 
BRANCH  14  15
HETATM   15  C   UNK N   1      33.353  17.990   7.233  0.00  0.00     0.000 C 
BRANCH  15  16
HETATM   16  C   UNK N   1      34.441  17.987   8.282  0.00  0.00     0.000 C 
BRANCH  16  17
HETATM   17  C   UNK N   1      34.079  16.909   9.281  0.00  0.00    -0.000 C 
BRANCH  17  18
HETATM   18  C   UNK N   1      35.297  16.119   9.699  0.00  0.00    -0.005 C 
HETATM   19  C   UNK N   1      35.359  16.093  11.212  0.00  0.00     0.005 C 
ENDBRANCH  17  18
ENDBRANCH  16  17
ENDBRANCH  15  16
ENDBRANCH  14  15
ENDBRANCH  13  14
ENDBRANCH  12  13
ENDBRANCH  11  12
ENDBRANCH   1  11
BRANCH  10  20
HETATM   20  O   UNK N   1      29.297  17.605   3.841  0.00  0.00    -0.282 OA
ATOM     21  HO  UNK N   1      30.107  17.135   3.682  1.00  0.00     0.245 HD
ENDBRANCH  10  20
BRANCH   3  22
HETATM   22  O   UNK N   1      27.866  18.786   8.978  0.00  0.00    -0.360 OA
HETATM   23  H   UNK N   1      27.507  19.624   9.198  0.00  0.00     0.217 HD
ENDBRANCH   3  22
TORSDOF 10
ENDMDL
MODEL 6
REMARK VINA RESULT:      -5.7     12.200     14.195
REMARK  10 active torsions:
REMARK  status: ('A' for Active; 'I' for Inactive)
REMARK    1  A    between atoms: C_2  and  C_3 
REMARK    2  A    between atoms: C_3  and  C_4 
REMARK    3  A    between atoms: C_4  and  C_5 
REMARK    4  A    between atoms: C_5  and  C_6 
REMARK    5  A    between atoms: C_6  and  C_7 
REMARK    6  A    between atoms: C_7  and  C_8 
REMARK    7  A    between atoms: C_8  and  C_9 
REMARK    8  A    between atoms: C_9  and  C_10 
REMARK    9  A    between atoms: C_12  and  O_13 
REMARK   10  A    between atoms: N_20  and  O_21 
ROOT
HETATM    1  C   UNK N   1      25.985  24.218  -6.564  0.00  0.00     0.043 A 
HETATM    2  C   UNK N   1      26.146  23.638  -5.304  0.00  0.00     0.065 A 
HETATM    3  C   UNK N   1      26.271  24.449  -4.178  0.00  0.00     0.080 A 
HETATM    4  C   UNK N   1      26.231  25.841  -4.321  0.00  0.00     0.026 A 
HETATM    5  C   UNK N   1      26.359  26.685  -3.210  0.00  0.00     0.016 A 
HETATM    6  C   UNK N   1      26.320  28.073  -3.374  0.00  0.00     0.001 A 
HETATM    7  C   UNK N   1      26.151  28.624  -4.645  0.00  0.00     0.002 A 
HETATM    8  C   UNK N   1      26.023  27.793  -5.760  0.00  0.00     0.033 A 
HETATM    9  C   UNK N   1      26.063  26.397  -5.610  0.00  0.00     0.075 A 
HETATM   10  N   UNK N   1      25.947  25.580  -6.700  0.00  0.00    -0.228 N 
ENDROOT
BRANCH   1  11
HETATM   11  C   UNK N   1      25.882  23.328  -7.761  0.00  0.00     0.060 C 
BRANCH  11  12
HETATM   12  C   UNK N   1      25.302  21.983  -7.372  0.00  0.00     0.006 C 
BRANCH  12  13
HETATM   13  C   UNK N   1      25.965  20.902  -8.195  0.00  0.00     0.000 C 
BRANCH  13  14
HETATM   14  C   UNK N   1      27.415  21.251  -8.458  0.00  0.00     0.000 C 
BRANCH  14  15
HETATM   15  C   UNK N   1      28.240  20.057  -8.035  0.00  0.00     0.000 C 
BRANCH  15  16
HETATM   16  C   UNK N   1      29.481  20.458  -7.271  0.00  0.00     0.000 C 
BRANCH  16  17
HETATM   17  C   UNK N   1      29.175  21.786  -6.611  0.00  0.00    -0.000 C 
BRANCH  17  18
HETATM   18  C   UNK N   1      29.878  21.910  -5.279  0.00  0.00    -0.005 C 
HETATM   19  C   UNK N   1      29.768  23.345  -4.809  0.00  0.00     0.005 C 
ENDBRANCH  17  18
ENDBRANCH  16  17
ENDBRANCH  15  16
ENDBRANCH  14  15
ENDBRANCH  13  14
ENDBRANCH  12  13
ENDBRANCH  11  12
ENDBRANCH   1  11
BRANCH  10  20
HETATM   20  O   UNK N   1      25.800  26.119  -7.911  0.00  0.00    -0.282 OA
ATOM     21  HO  UNK N   1      24.969  26.510  -8.154  1.00  0.00     0.245 HD
ENDBRANCH  10  20
BRANCH   3  22
HETATM   22  O   UNK N   1      26.433  23.885  -2.967  0.00  0.00    -0.360 OA
HETATM   23  H   UNK N   1      27.292  23.704  -2.640  0.00  0.00     0.217 HD
ENDBRANCH   3  22
TORSDOF 10
ENDMDL
MODEL 7
REMARK VINA RESULT:      -5.6      2.311      5.832
REMARK  10 active torsions:
REMARK  status: ('A' for Active; 'I' for Inactive)
REMARK    1  A    between atoms: C_2  and  C_3 
REMARK    2  A    between atoms: C_3  and  C_4 
REMARK    3  A    between atoms: C_4  and  C_5 
REMARK    4  A    between atoms: C_5  and  C_6 
REMARK    5  A    between atoms: C_6  and  C_7 
REMARK    6  A    between atoms: C_7  and  C_8 
REMARK    7  A    between atoms: C_8  and  C_9 
REMARK    8  A    between atoms: C_9  and  C_10 
REMARK    9  A    between atoms: C_12  and  O_13 
REMARK   10  A    between atoms: N_20  and  O_21 
ROOT
HETATM    1  C   UNK N   1      28.163  16.197   5.426  0.00  0.00     0.043 A 
HETATM    2  C   UNK N   1      29.489  16.425   5.050  0.00  0.00     0.065 A 
HETATM    3  C   UNK N   1      30.362  17.057   5.933  0.00  0.00     0.080 A 
HETATM    4  C   UNK N   1      29.900  17.456   7.193  0.00  0.00     0.026 A 
HETATM    5  C   UNK N   1      30.750  18.100   8.103  0.00  0.00     0.016 A 
HETATM    6  C   UNK N   1      30.269  18.493   9.355  0.00  0.00     0.001 A 
HETATM    7  C   UNK N   1      28.940  18.245   9.706  0.00  0.00     0.002 A 
HETATM    8  C   UNK N   1      28.084  17.606   8.806  0.00  0.00     0.033 A 
HETATM    9  C   UNK N   1      28.553  17.207   7.545  0.00  0.00     0.075 A 
HETATM   10  N   UNK N   1      27.715  16.589   6.659  0.00  0.00    -0.228 N 
ENDROOT
BRANCH   1  11
HETATM   11  C   UNK N   1      27.239  15.543   4.450  0.00  0.00     0.060 C 
BRANCH  11  12
HETATM   12  C   UNK N   1      26.868  16.509   3.342  0.00  0.00     0.006 C 
BRANCH  12  13
HETATM   13  C   UNK N   1      25.441  16.967   3.542  0.00  0.00     0.000 C 
BRANCH  13  14
HETATM   14  C   UNK N   1      25.407  18.278   4.300  0.00  0.00     0.000 C 
BRANCH  14  15
HETATM   15  C   UNK N   1      25.784  19.364   3.319  0.00  0.00     0.000 C 
BRANCH  15  16
HETATM   16  C   UNK N   1      26.605  20.459   3.961  0.00  0.00     0.000 C 
BRANCH  16  17
HETATM   17  C   UNK N   1      27.599  19.775   4.877  0.00  0.00    -0.000 C 
BRANCH  17  18
HETATM   18  C   UNK N   1      27.793  20.558   6.155  0.00  0.00    -0.005 C 
HETATM   19  C   UNK N   1      26.514  21.309   6.459  0.00  0.00     0.005 C 
ENDBRANCH  17  18
ENDBRANCH  16  17
ENDBRANCH  15  16
ENDBRANCH  14  15
ENDBRANCH  13  14
ENDBRANCH  12  13
ENDBRANCH  11  12
ENDBRANCH   1  11
BRANCH  10  20
HETATM   20  O   UNK N   1      26.445  16.371   6.999  0.00  0.00    -0.282 OA
ATOM     21  HO  UNK N   1      25.943  15.706   6.542  1.00  0.00     0.245 HD
ENDBRANCH  10  20
BRANCH   3  22
HETATM   22  O   UNK N   1      31.636  17.281   5.564  0.00  0.00    -0.360 OA
HETATM   23  H   UNK N   1      32.307  16.662   5.778  0.00  0.00     0.217 HD
ENDBRANCH   3  22
TORSDOF 10
ENDMDL
MODEL 8
REMARK VINA RESULT:      -5.6      7.421     10.743
REMARK  10 active torsions:
REMARK  status: ('A' for Active; 'I' for Inactive)
REMARK    1  A    between atoms: C_2  and  C_3 
REMARK    2  A    between atoms: C_3  and  C_4 
REMARK    3  A    between atoms: C_4  and  C_5 
REMARK    4  A    between atoms: C_5  and  C_6 
REMARK    5  A    between atoms: C_6  and  C_7 
REMARK    6  A    between atoms: C_7  and  C_8 
REMARK    7  A    between atoms: C_8  and  C_9 
REMARK    8  A    between atoms: C_9  and  C_10 
REMARK    9  A    between atoms: C_12  and  O_13 
REMARK   10  A    between atoms: N_20  and  O_21 
ROOT
HETATM    1  C   UNK N   1      35.599  13.792  12.250  0.00  0.00     0.043 A 
HETATM    2  C   UNK N   1      36.388  14.442  13.202  0.00  0.00     0.065 A 
HETATM    3  C   UNK N   1      36.470  13.935  14.497  0.00  0.00     0.080 A 
HETATM    4  C   UNK N   1      35.761  12.775  14.832  0.00  0.00     0.026 A 
HETATM    5  C   UNK N   1      35.817  12.242  16.127  0.00  0.00     0.016 A 
HETATM    6  C   UNK N   1      35.099  11.085  16.442  0.00  0.00     0.001 A 
HETATM    7  C   UNK N   1      34.325  10.453  15.467  0.00  0.00     0.002 A 
HETATM    8  C   UNK N   1      34.260  10.976  14.174  0.00  0.00     0.033 A 
HETATM    9  C   UNK N   1      34.974  12.139  13.844  0.00  0.00     0.075 A 
HETATM   10  N   UNK N   1      34.907  12.658  12.581  0.00  0.00    -0.228 N 
ENDROOT
BRANCH   1  11
HETATM   11  C   UNK N   1      35.504  14.371  10.875  0.00  0.00     0.060 C 
BRANCH  11  12
HETATM   12  C   UNK N   1      36.218  15.706  10.812  0.00  0.00     0.006 C 
BRANCH  12  13
HETATM   13  C   UNK N   1      35.228  16.780  10.423  0.00  0.00     0.000 C 
BRANCH  13  14
HETATM   14  C   UNK N   1      34.533  16.413   9.127  0.00  0.00     0.000 C 
BRANCH  14  15
HETATM   15  C   UNK N   1      34.416  17.683   8.316  0.00  0.00     0.000 C 
BRANCH  15  16
HETATM   16  C   UNK N   1      32.996  18.199   8.260  0.00  0.00     0.000 C 
BRANCH  16  17
HETATM   17  C   UNK N   1      32.090  16.991   8.374  0.00  0.00    -0.000 C 
BRANCH  17  18
HETATM   18  C   UNK N   1      30.641  17.374   8.182  0.00  0.00    -0.005 C 
HETATM   19  C   UNK N   1      30.333  18.558   9.075  0.00  0.00     0.005 C 
ENDBRANCH  17  18
ENDBRANCH  16  17
ENDBRANCH  15  16
ENDBRANCH  14  15
ENDBRANCH  13  14
ENDBRANCH  12  13
ENDBRANCH  11  12
ENDBRANCH   1  11
BRANCH  10  20
HETATM   20  O   UNK N   1      34.152  12.054  11.663  0.00  0.00    -0.282 OA
ATOM     21  HO  UNK N   1      34.390  11.188  11.354  1.00  0.00     0.245 HD
ENDBRANCH  10  20
BRANCH   3  22
HETATM   22  O   UNK N   1      37.225  14.568  15.413  0.00  0.00    -0.360 OA
HETATM   23  H   UNK N   1      38.036  14.195  15.699  0.00  0.00     0.217 HD
ENDBRANCH   3  22
TORSDOF 10
ENDMDL
MODEL 9
REMARK VINA RESULT:      -5.6      3.860      7.529
REMARK  10 active torsions:
REMARK  status: ('A' for Active; 'I' for Inactive)
REMARK    1  A    between atoms: C_2  and  C_3 
REMARK    2  A    between atoms: C_3  and  C_4 
REMARK    3  A    between atoms: C_4  and  C_5 
REMARK    4  A    between atoms: C_5  and  C_6 
REMARK    5  A    between atoms: C_6  and  C_7 
REMARK    6  A    between atoms: C_7  and  C_8 
REMARK    7  A    between atoms: C_8  and  C_9 
REMARK    8  A    between atoms: C_9  and  C_10 
REMARK    9  A    between atoms: C_12  and  O_13 
REMARK   10  A    between atoms: N_20  and  O_21 
ROOT
HETATM    1  C   UNK N   1      33.416  16.737   8.147  0.00  0.00     0.043 A 
HETATM    2  C   UNK N   1      32.713  15.531   8.193  0.00  0.00     0.065 A 
HETATM    3  C   UNK N   1      33.005  14.594   9.181  0.00  0.00     0.080 A 
HETATM    4  C   UNK N   1      34.003  14.872  10.123  0.00  0.00     0.026 A 
HETATM    5  C   UNK N   1      34.327  13.948  11.126  0.00  0.00     0.016 A 
HETATM    6  C   UNK N   1      35.329  14.243  12.055  0.00  0.00     0.001 A 
HETATM    7  C   UNK N   1      36.011  15.460  11.989  0.00  0.00     0.002 A 
HETATM    8  C   UNK N   1      35.697  16.387  10.993  0.00  0.00     0.033 A 
HETATM    9  C   UNK N   1      34.695  16.103  10.052  0.00  0.00     0.075 A 
HETATM   10  N   UNK N   1      34.392  17.005   9.070  0.00  0.00    -0.228 N 
ENDROOT
BRANCH   1  11
HETATM   11  C   UNK N   1      33.103  17.714   7.060  0.00  0.00     0.060 C 
BRANCH  11  12
HETATM   12  C   UNK N   1      33.776  17.300   5.766  0.00  0.00     0.006 C 
BRANCH  12  13
HETATM   13  C   UNK N   1      32.718  16.901   4.763  0.00  0.00     0.000 C 
BRANCH  13  14
HETATM   14  C   UNK N   1      31.386  17.527   5.123  0.00  0.00     0.000 C 
BRANCH  14  15
HETATM   15  C   UNK N   1      30.341  16.442   4.997  0.00  0.00     0.000 C 
BRANCH  15  16
HETATM   16  C   UNK N   1      29.554  16.252   6.273  0.00  0.00     0.000 C 
BRANCH  16  17
HETATM   17  C   UNK N   1      29.459  17.613   6.931  0.00  0.00    -0.000 C 
BRANCH  17  18
HETATM   18  C   UNK N   1      29.319  17.488   8.430  0.00  0.00    -0.005 C 
HETATM   19  C   UNK N   1      30.193  18.537   9.085  0.00  0.00     0.005 C 
ENDBRANCH  17  18
ENDBRANCH  16  17
ENDBRANCH  15  16
ENDBRANCH  14  15
ENDBRANCH  13  14
ENDBRANCH  12  13
ENDBRANCH  11  12
ENDBRANCH   1  11
BRANCH  10  20
HETATM   20  O   UNK N   1      35.059  18.157   9.008  0.00  0.00    -0.282 OA
ATOM     21  HO  UNK N   1      36.008  18.149   8.964  1.00  0.00     0.245 HD
ENDBRANCH  10  20
BRANCH   3  22
HETATM   22  O   UNK N   1      32.330  13.431   9.216  0.00  0.00    -0.360 OA
HETATM   23  H   UNK N   1      32.372  12.836   8.493  0.00  0.00     0.217 HD
ENDBRANCH   3  22
TORSDOF 10
ENDMDL
