REMARK  3 active torsions:
REMARK  status: ('A' for Active; 'I' for Inactive)
REMARK    1  A    between atoms: C_6  and  C_7 
REMARK    2  A    between atoms: C_18  and  N_19 
REMARK    3  A    between atoms: N_19  and  C_20 
ROOT
HETATM    1  C   UNK N   1       3.032   1.691   0.000  0.00  0.00     0.117 A 
HETATM    2  N   UNK N   1       3.011   0.336   0.000  0.00  0.00    -0.327 N 
ATOM      3  HN  UNK N   1       2.109  -0.140   0.000  1.00  0.00     0.169 HD
HETATM    4  N   UNK N   1       4.226   2.347   0.000  0.00  0.00    -0.341 N 
ATOM      5  HN  UNK N   1       4.242   3.366   0.000  1.00  0.00     0.167 HD
HETATM    6  C   UNK N   1       5.398   1.653   0.000  0.00  0.00     0.047 A 
HETATM    7  C   UNK N   1       6.617   2.337  -0.000  0.00  0.00     0.030 A 
HETATM    8  C   UNK N   1       7.820   1.622  -0.000  0.00  0.00     0.002 A 
HETATM    9  C   UNK N   1       7.807   0.223  -0.000  0.00  0.00     0.001 A 
HETATM   10  C   UNK N   1       6.591  -0.469  -0.000  0.00  0.00     0.017 A 
HETATM   11  C   UNK N   1       5.382   0.240   0.000  0.00  0.00     0.035 A 
HETATM   12  C   UNK N   1       4.142  -0.411   0.000  0.00  0.00     0.121 A 
ENDROOT
BRANCH  12  13
HETATM   13  N   UNK N   1       4.050  -1.832   0.000  0.00  0.00    -0.327 N 
HETATM   14  H   UNK N   1       4.882  -2.359   0.000  0.00  0.00     0.169 HD
BRANCH  13  15
HETATM   15  C   UNK N   1       2.805  -2.521  -0.000  0.00  0.00     0.123 A 
HETATM   16  C   UNK N   1       2.652  -3.891   0.000  0.00  0.00     0.075 A 
HETATM   17  C   UNK N   1       1.279  -4.055  -0.000  0.00  0.00     0.025 A 
HETATM   18  C   UNK N   1       0.554  -5.351   0.000  0.00  0.00     0.070 C 
HETATM   19  N   UNK N   1       0.667  -2.857  -0.000  0.00  0.00    -0.304 N 
HETATM   20  N   UNK N   1       1.597  -1.920  -0.000  0.00  0.00    -0.285 N 
HETATM   21  H   UNK N   1      -0.305  -2.705  -0.000  0.00  0.00     0.186 HD
ATOM     22  HN  UNK N   1       1.431  -0.914  -0.000  1.00  0.00     0.188 HD
ENDBRANCH  13  15
ENDBRANCH  12  13
BRANCH   1  23
HETATM   23  C   UNK N   1       1.753   2.421   0.000  0.00  0.00     0.008 A 
HETATM   24  C   UNK N   1       0.547   1.700   0.000  0.00  0.00     0.015 A 
HETATM   25  C   UNK N   1      -0.679   2.368   0.000  0.00  0.00     0.001 A 
HETATM   26  C   UNK N   1      -0.710   3.764   0.000  0.00  0.00     0.000 A 
HETATM   27  C   UNK N   1       0.486   4.490   0.000  0.00  0.00     0.001 A 
HETATM   28  C   UNK N   1       1.715   3.822   0.000  0.00  0.00     0.015 A 
ENDBRANCH   1  23
TORSDOF 3
