MODEL 1
REMARK VINA RESULT:      -7.7      0.000      0.000
REMARK  3 active torsions:
REMARK  status: ('A' for Active; 'I' for Inactive)
REMARK    1  A    between atoms: C_6  and  C_7 
REMARK    2  A    between atoms: C_18  and  N_19 
REMARK    3  A    between atoms: N_19  and  C_20 
ROOT
HETATM    1  C   UNK N   1      36.735  13.248  14.106  0.00  0.00     0.117 A 
HETATM    2  N   UNK N   1      36.784  14.096  13.050  0.00  0.00    -0.327 N 
ATOM      3  HN  UNK N   1      36.620  15.089  13.212  1.00  0.00     0.169 HD
HETATM    4  N   UNK N   1      36.951  11.917  13.912  0.00  0.00    -0.341 N 
ATOM      5  HN  UNK N   1      36.914  11.279  14.706  1.00  0.00     0.167 HD
HETATM    6  C   UNK N   1      37.216  11.431  12.667  0.00  0.00     0.047 A 
HETATM    7  C   UNK N   1      37.436  10.064  12.481  0.00  0.00     0.030 A 
HETATM    8  C   UNK N   1      37.708   9.567  11.201  0.00  0.00     0.002 A 
HETATM    9  C   UNK N   1      37.761  10.436  10.106  0.00  0.00     0.001 A 
HETATM   10  C   UNK N   1      37.542  11.807  10.284  0.00  0.00     0.017 A 
HETATM   11  C   UNK N   1      37.269  12.311  11.563  0.00  0.00     0.035 A 
HETATM   12  C   UNK N   1      37.043  13.675  11.788  0.00  0.00     0.121 A 
ENDROOT
BRANCH  12  13
HETATM   13  N   UNK N   1      37.081  14.619  10.722  0.00  0.00    -0.327 N 
HETATM   14  H   UNK N   1      37.931  14.760  10.246  0.00  0.00     0.169 HD
BRANCH  13  15
HETATM   15  C   UNK N   1      35.939  15.366  10.318  0.00  0.00     0.123 A 
HETATM   16  C   UNK N   1      34.965  14.925   9.447  0.00  0.00     0.075 A 
HETATM   17  C   UNK N   1      34.093  15.996   9.382  0.00  0.00     0.025 A 
HETATM   18  C   UNK N   1      32.848  16.061   8.575  0.00  0.00     0.070 C 
HETATM   19  N   UNK N   1      34.529  17.000  10.164  0.00  0.00    -0.304 N 
HETATM   20  N   UNK N   1      35.655  16.617  10.736  0.00  0.00    -0.285 N 
HETATM   21  H   UNK N   1      34.085  17.869  10.289  0.00  0.00     0.186 HD
ATOM     22  HN  UNK N   1      36.215  17.172  11.383  1.00  0.00     0.188 HD
ENDBRANCH  13  15
ENDBRANCH  12  13
BRANCH   1  23
HETATM   23  C   UNK N   1      36.447  13.794  15.443  0.00  0.00     0.008 A 
HETATM   24  C   UNK N   1      37.130  14.941  15.881  0.00  0.00     0.015 A 
HETATM   25  C   UNK N   1      36.875  15.479  17.144  0.00  0.00     0.001 A 
HETATM   26  C   UNK N   1      35.935  14.874  17.981  0.00  0.00     0.000 A 
HETATM   27  C   UNK N   1      35.251  13.732  17.552  0.00  0.00     0.001 A 
HETATM   28  C   UNK N   1      35.505  13.192  16.287  0.00  0.00     0.015 A 
ENDBRANCH   1  23
TORSDOF 3
ENDMDL
MODEL 2
REMARK VINA RESULT:      -7.6      1.351      1.685
REMARK  3 active torsions:
REMARK  status: ('A' for Active; 'I' for Inactive)
REMARK    1  A    between atoms: C_6  and  C_7 
REMARK    2  A    between atoms: C_18  and  N_19 
REMARK    3  A    between atoms: N_19  and  C_20 
ROOT
HETATM    1  C   UNK N   1      36.247  12.626  14.835  0.00  0.00     0.117 A 
HETATM    2  N   UNK N   1      36.086  13.803  14.182  0.00  0.00    -0.327 N 
ATOM      3  HN  UNK N   1      35.705  14.599  14.694  1.00  0.00     0.169 HD
HETATM    4  N   UNK N   1      36.754  11.550  14.170  0.00  0.00    -0.341 N 
ATOM      5  HN  UNK N   1      36.875  10.665  14.660  1.00  0.00     0.167 HD
HETATM    6  C   UNK N   1      37.100  11.648  12.856  0.00  0.00     0.047 A 
HETATM    7  C   UNK N   1      37.619  10.537  12.184  0.00  0.00     0.030 A 
HETATM    8  C   UNK N   1      37.973  10.639  10.834  0.00  0.00     0.002 A 
HETATM    9  C   UNK N   1      37.810  11.851  10.153  0.00  0.00     0.001 A 
HETATM   10  C   UNK N   1      37.291  12.967  10.819  0.00  0.00     0.017 A 
HETATM   11  C   UNK N   1      36.934  12.872  12.171  0.00  0.00     0.035 A 
HETATM   12  C   UNK N   1      36.411  13.963  12.876  0.00  0.00     0.121 A 
ENDROOT
BRANCH  12  13
HETATM   13  N   UNK N   1      36.216  15.228  12.250  0.00  0.00    -0.327 N 
HETATM   14  H   UNK N   1      36.841  15.960  12.460  0.00  0.00     0.169 HD
BRANCH  13  15
HETATM   15  C   UNK N   1      35.157  15.476  11.334  0.00  0.00     0.123 A 
HETATM   16  C   UNK N   1      35.169  16.431  10.340  0.00  0.00     0.075 A 
HETATM   17  C   UNK N   1      33.934  16.276   9.738  0.00  0.00     0.025 A 
HETATM   18  C   UNK N   1      33.417  17.065   8.591  0.00  0.00     0.070 C 
HETATM   19  N   UNK N   1      33.242  15.293  10.341  0.00  0.00    -0.304 N 
HETATM   20  N   UNK N   1      33.987  14.803  11.315  0.00  0.00    -0.285 N 
HETATM   21  H   UNK N   1      32.338  14.990  10.098  0.00  0.00     0.186 HD
ATOM     22  HN  UNK N   1      33.724  14.047  11.945  1.00  0.00     0.188 HD
ENDBRANCH  13  15
ENDBRANCH  12  13
BRANCH   1  23
HETATM   23  C   UNK N   1      35.867  12.543  16.255  0.00  0.00     0.008 A 
HETATM   24  C   UNK N   1      35.557  13.721  16.956  0.00  0.00     0.015 A 
HETATM   25  C   UNK N   1      35.194  13.670  18.303  0.00  0.00     0.001 A 
HETATM   26  C   UNK N   1      35.137  12.440  18.962  0.00  0.00     0.000 A 
HETATM   27  C   UNK N   1      35.443  11.262  18.271  0.00  0.00     0.001 A 
HETATM   28  C   UNK N   1      35.807  11.312  16.922  0.00  0.00     0.015 A 
ENDBRANCH   1  23
TORSDOF 3
ENDMDL
MODEL 3
REMARK VINA RESULT:      -7.5      2.011      2.725
REMARK  3 active torsions:
REMARK  status: ('A' for Active; 'I' for Inactive)
REMARK    1  A    between atoms: C_6  and  C_7 
REMARK    2  A    between atoms: C_18  and  N_19 
REMARK    3  A    between atoms: N_19  and  C_20 
ROOT
HETATM    1  C   UNK N   1      36.037  13.416  12.829  0.00  0.00     0.117 A 
HETATM    2  N   UNK N   1      34.949  13.468  12.023  0.00  0.00    -0.327 N 
ATOM      3  HN  UNK N   1      34.026  13.544  12.451  1.00  0.00     0.169 HD
HETATM    4  N   UNK N   1      37.280  13.316  12.278  0.00  0.00    -0.341 N 
ATOM      5  HN  UNK N   1      38.098  13.276  12.884  1.00  0.00     0.167 HD
HETATM    6  C   UNK N   1      37.436  13.267  10.926  0.00  0.00     0.047 A 
HETATM    7  C   UNK N   1      38.716  13.164  10.373  0.00  0.00     0.030 A 
HETATM    8  C   UNK N   1      38.875  13.115   8.984  0.00  0.00     0.002 A 
HETATM    9  C   UNK N   1      37.756  13.168   8.145  0.00  0.00     0.001 A 
HETATM   10  C   UNK N   1      36.472  13.271   8.691  0.00  0.00     0.017 A 
HETATM   11  C   UNK N   1      36.305  13.321  10.082  0.00  0.00     0.035 A 
HETATM   12  C   UNK N   1      35.039  13.425  10.672  0.00  0.00     0.121 A 
ENDROOT
BRANCH  12  13
HETATM   13  N   UNK N   1      33.855  13.484   9.882  0.00  0.00    -0.327 N 
HETATM   14  H   UNK N   1      33.464  12.642   9.555  0.00  0.00     0.169 HD
BRANCH  13  15
HETATM   15  C   UNK N   1      33.215  14.710   9.549  0.00  0.00     0.123 A 
HETATM   16  C   UNK N   1      33.752  15.698   8.751  0.00  0.00     0.075 A 
HETATM   17  C   UNK N   1      32.761  16.662   8.733  0.00  0.00     0.025 A 
HETATM   18  C   UNK N   1      32.817  17.959   8.012  0.00  0.00     0.070 C 
HETATM   19  N   UNK N   1      31.711  16.264   9.474  0.00  0.00    -0.304 N 
HETATM   20  N   UNK N   1      31.987  15.073   9.972  0.00  0.00    -0.285 N 
HETATM   21  H   UNK N   1      30.881  16.772   9.619  0.00  0.00     0.186 HD
ATOM     22  HN  UNK N   1      31.376  14.521  10.574  1.00  0.00     0.188 HD
ENDBRANCH  13  15
ENDBRANCH  12  13
BRANCH   1  23
HETATM   23  C   UNK N   1      35.844  13.470  14.288  0.00  0.00     0.008 A 
HETATM   24  C   UNK N   1      34.786  12.754  14.871  0.00  0.00     0.015 A 
HETATM   25  C   UNK N   1      34.581  12.788  16.251  0.00  0.00     0.001 A 
HETATM   26  C   UNK N   1      35.434  13.540  17.062  0.00  0.00     0.000 A 
HETATM   27  C   UNK N   1      36.490  14.256  16.490  0.00  0.00     0.001 A 
HETATM   28  C   UNK N   1      36.697  14.223  15.107  0.00  0.00     0.015 A 
ENDBRANCH   1  23
TORSDOF 3
ENDMDL
MODEL 4
REMARK VINA RESULT:      -7.3     19.667     23.601
REMARK  3 active torsions:
REMARK  status: ('A' for Active; 'I' for Inactive)
REMARK    1  A    between atoms: C_6  and  C_7 
REMARK    2  A    between atoms: C_18  and  N_19 
REMARK    3  A    between atoms: N_19  and  C_20 
ROOT
HETATM    1  C   UNK N   1      28.059  23.901  -4.896  0.00  0.00     0.117 A 
HETATM    2  N   UNK N   1      27.221  23.736  -5.949  0.00  0.00    -0.327 N 
ATOM      3  HN  UNK N   1      27.339  22.917  -6.545  1.00  0.00     0.169 HD
HETATM    4  N   UNK N   1      27.920  24.989  -4.088  0.00  0.00    -0.341 N 
ATOM      5  HN  UNK N   1      28.550  25.113  -3.296  1.00  0.00     0.167 HD
HETATM    6  C   UNK N   1      26.947  25.911  -4.328  0.00  0.00     0.047 A 
HETATM    7  C   UNK N   1      26.814  27.023  -3.491  0.00  0.00     0.030 A 
HETATM    8  C   UNK N   1      25.813  27.969  -3.740  0.00  0.00     0.002 A 
HETATM    9  C   UNK N   1      24.944  27.806  -4.824  0.00  0.00     0.001 A 
HETATM   10  C   UNK N   1      25.071  26.696  -5.666  0.00  0.00     0.017 A 
HETATM   11  C   UNK N   1      26.071  25.744  -5.424  0.00  0.00     0.035 A 
HETATM   12  C   UNK N   1      26.234  24.618  -6.240  0.00  0.00     0.121 A 
ENDROOT
BRANCH  12  13
HETATM   13  N   UNK N   1      25.388  24.386  -7.362  0.00  0.00    -0.327 N 
HETATM   14  H   UNK N   1      24.721  25.070  -7.600  0.00  0.00     0.169 HD
BRANCH  13  15
HETATM   15  C   UNK N   1      25.467  23.205  -8.152  0.00  0.00     0.123 A 
HETATM   16  C   UNK N   1      26.220  23.061  -9.297  0.00  0.00     0.075 A 
HETATM   17  C   UNK N   1      25.962  21.758  -9.682  0.00  0.00     0.025 A 
HETATM   18  C   UNK N   1      26.526  21.071 -10.872  0.00  0.00     0.070 C 
HETATM   19  N   UNK N   1      25.112  21.176  -8.818  0.00  0.00    -0.304 N 
HETATM   20  N   UNK N   1      24.808  22.058  -7.883  0.00  0.00    -0.285 N 
HETATM   21  H   UNK N   1      24.774  20.254  -8.872  0.00  0.00     0.186 HD
ATOM     22  HN  UNK N   1      24.184  21.900  -7.093  1.00  0.00     0.188 HD
ENDBRANCH  13  15
ENDBRANCH  12  13
BRANCH   1  23
HETATM   23  C   UNK N   1      29.104  22.892  -4.656  0.00  0.00     0.008 A 
HETATM   24  C   UNK N   1      29.707  22.812  -3.389  0.00  0.00     0.015 A 
HETATM   25  C   UNK N   1      30.700  21.864  -3.135  0.00  0.00     0.001 A 
HETATM   26  C   UNK N   1      31.099  20.987  -4.146  0.00  0.00     0.000 A 
HETATM   27  C   UNK N   1      30.503  21.059  -5.409  0.00  0.00     0.001 A 
HETATM   28  C   UNK N   1      29.508  22.008  -5.666  0.00  0.00     0.015 A 
ENDBRANCH   1  23
TORSDOF 3
ENDMDL
MODEL 5
REMARK VINA RESULT:      -7.3     18.713     23.761
REMARK  3 active torsions:
REMARK  status: ('A' for Active; 'I' for Inactive)
REMARK    1  A    between atoms: C_6  and  C_7 
REMARK    2  A    between atoms: C_18  and  N_19 
REMARK    3  A    between atoms: N_19  and  C_20 
ROOT
HETATM    1  C   UNK N   1      26.122  23.895  -6.478  0.00  0.00     0.117 A 
HETATM    2  N   UNK N   1      26.803  23.547  -5.359  0.00  0.00    -0.327 N 
ATOM      3  HN  UNK N   1      27.229  22.621  -5.313  1.00  0.00     0.169 HD
HETATM    4  N   UNK N   1      25.545  25.127  -6.560  0.00  0.00    -0.341 N 
ATOM      5  HN  UNK N   1      25.033  25.389  -7.401  1.00  0.00     0.167 HD
HETATM    6  C   UNK N   1      25.647  26.010  -5.527  0.00  0.00     0.047 A 
HETATM    7  C   UNK N   1      25.051  27.270  -5.623  0.00  0.00     0.030 A 
HETATM    8  C   UNK N   1      25.156  28.176  -4.561  0.00  0.00     0.002 A 
HETATM    9  C   UNK N   1      25.857  27.824  -3.403  0.00  0.00     0.001 A 
HETATM   10  C   UNK N   1      26.457  26.564  -3.299  0.00  0.00     0.017 A 
HETATM   11  C   UNK N   1      26.356  25.651  -4.359  0.00  0.00     0.035 A 
HETATM   12  C   UNK N   1      26.940  24.380  -4.299  0.00  0.00     0.121 A 
ENDROOT
BRANCH  12  13
HETATM   13  N   UNK N   1      27.668  23.951  -3.153  0.00  0.00    -0.327 N 
HETATM   14  H   UNK N   1      27.185  23.835  -2.302  0.00  0.00     0.169 HD
BRANCH  13  15
HETATM   15  C   UNK N   1      29.066  23.685  -3.186  0.00  0.00     0.123 A 
HETATM   16  C   UNK N   1      29.654  22.474  -2.891  0.00  0.00     0.075 A 
HETATM   17  C   UNK N   1      31.002  22.726  -3.067  0.00  0.00     0.025 A 
HETATM   18  C   UNK N   1      32.105  21.751  -2.878  0.00  0.00     0.070 C 
HETATM   19  N   UNK N   1      31.191  24.004  -3.442  0.00  0.00    -0.304 N 
HETATM   20  N   UNK N   1      30.010  24.591  -3.515  0.00  0.00    -0.285 N 
HETATM   21  H   UNK N   1      32.058  24.429  -3.629  0.00  0.00     0.186 HD
ATOM     22  HN  UNK N   1      29.841  25.562  -3.775  1.00  0.00     0.188 HD
ENDBRANCH  13  15
ENDBRANCH  12  13
BRANCH   1  23
HETATM   23  C   UNK N   1      26.025  22.925  -7.581  0.00  0.00     0.008 A 
HETATM   24  C   UNK N   1      25.506  21.644  -7.330  0.00  0.00     0.015 A 
HETATM   25  C   UNK N   1      25.404  20.706  -8.359  0.00  0.00     0.001 A 
HETATM   26  C   UNK N   1      25.819  21.041  -9.649  0.00  0.00     0.000 A 
HETATM   27  C   UNK N   1      26.338  22.314  -9.908  0.00  0.00     0.001 A 
HETATM   28  C   UNK N   1      26.441  23.255  -8.878  0.00  0.00     0.015 A 
ENDBRANCH   1  23
TORSDOF 3
ENDMDL
MODEL 6
REMARK VINA RESULT:      -7.1      1.718      2.438
REMARK  3 active torsions:
REMARK  status: ('A' for Active; 'I' for Inactive)
REMARK    1  A    between atoms: C_6  and  C_7 
REMARK    2  A    between atoms: C_18  and  N_19 
REMARK    3  A    between atoms: N_19  and  C_20 
ROOT
HETATM    1  C   UNK N   1      35.908  11.694  15.464  0.00  0.00     0.117 A 
HETATM    2  N   UNK N   1      35.235  12.354  14.490  0.00  0.00    -0.327 N 
ATOM      3  HN  UNK N   1      34.565  13.074  14.759  1.00  0.00     0.169 HD
HETATM    4  N   UNK N   1      36.807  10.728  15.127  0.00  0.00    -0.341 N 
ATOM      5  HN  UNK N   1      37.313  10.232  15.860  1.00  0.00     0.167 HD
HETATM    6  C   UNK N   1      37.036  10.419  13.820  0.00  0.00     0.047 A 
HETATM    7  C   UNK N   1      37.961   9.426  13.487  0.00  0.00     0.030 A 
HETATM    8  C   UNK N   1      38.194   9.110  12.144  0.00  0.00     0.002 A 
HETATM    9  C   UNK N   1      37.503   9.786  11.132  0.00  0.00     0.001 A 
HETATM   10  C   UNK N   1      36.576  10.781  11.458  0.00  0.00     0.017 A 
HETATM   11  C   UNK N   1      36.337  11.103  12.800  0.00  0.00     0.035 A 
HETATM   12  C   UNK N   1      35.418  12.092  13.172  0.00  0.00     0.121 A 
ENDROOT
BRANCH  12  13
HETATM   13  N   UNK N   1      34.678  12.822  12.199  0.00  0.00    -0.327 N 
HETATM   14  H   UNK N   1      33.822  12.453  11.882  0.00  0.00     0.169 HD
BRANCH  13  15
HETATM   15  C   UNK N   1      35.126  14.063  11.665  0.00  0.00     0.123 A 
HETATM   16  C   UNK N   1      34.385  14.896  10.854  0.00  0.00     0.075 A 
HETATM   17  C   UNK N   1      35.248  15.948  10.611  0.00  0.00     0.025 A 
HETATM   18  C   UNK N   1      34.955  17.145   9.781  0.00  0.00     0.070 C 
HETATM   19  N   UNK N   1      36.420  15.744  11.239  0.00  0.00    -0.304 N 
HETATM   20  N   UNK N   1      36.347  14.594  11.882  0.00  0.00    -0.285 N 
HETATM   21  H   UNK N   1      37.198  16.347  11.221  0.00  0.00     0.186 HD
ATOM     22  HN  UNK N   1      37.087  14.177  12.447  1.00  0.00     0.188 HD
ENDBRANCH  13  15
ENDBRANCH  12  13
BRANCH   1  23
HETATM   23  C   UNK N   1      35.645  12.045  16.870  0.00  0.00     0.008 A 
HETATM   24  C   UNK N   1      35.693  11.041  17.852  0.00  0.00     0.015 A 
HETATM   25  C   UNK N   1      35.448  11.346  19.192  0.00  0.00     0.001 A 
HETATM   26  C   UNK N   1      35.153  12.660  19.563  0.00  0.00     0.000 A 
HETATM   27  C   UNK N   1      35.104  13.666  18.592  0.00  0.00     0.001 A 
HETATM   28  C   UNK N   1      35.349  13.361  17.249  0.00  0.00     0.015 A 
ENDBRANCH   1  23
TORSDOF 3
ENDMDL
MODEL 7
REMARK VINA RESULT:      -6.9      2.609      6.145
REMARK  3 active torsions:
REMARK  status: ('A' for Active; 'I' for Inactive)
REMARK    1  A    between atoms: C_6  and  C_7 
REMARK    2  A    between atoms: C_18  and  N_19 
REMARK    3  A    between atoms: N_19  and  C_20 
ROOT
HETATM    1  C   UNK N   1      35.474   9.897  15.438  0.00  0.00     0.117 A 
HETATM    2  N   UNK N   1      35.392  11.061  14.749  0.00  0.00    -0.327 N 
ATOM      3  HN  UNK N   1      35.399  11.029  13.730  1.00  0.00     0.169 HD
HETATM    4  N   UNK N   1      35.466   9.918  16.800  0.00  0.00    -0.341 N 
ATOM      5  HN  UNK N   1      35.528   9.042  17.319  1.00  0.00     0.167 HD
HETATM    6  C   UNK N   1      35.376  11.097  17.475  0.00  0.00     0.047 A 
HETATM    7  C   UNK N   1      35.368  11.106  18.873  0.00  0.00     0.030 A 
HETATM    8  C   UNK N   1      35.275  12.319  19.564  0.00  0.00     0.002 A 
HETATM    9  C   UNK N   1      35.190  13.525  18.861  0.00  0.00     0.001 A 
HETATM   10  C   UNK N   1      35.196  13.525  17.462  0.00  0.00     0.017 A 
HETATM   11  C   UNK N   1      35.289  12.314  16.762  0.00  0.00     0.035 A 
HETATM   12  C   UNK N   1      35.300  12.267  15.362  0.00  0.00     0.121 A 
ENDROOT
BRANCH  12  13
HETATM   13  N   UNK N   1      35.216  13.453  14.579  0.00  0.00    -0.327 N 
HETATM   14  H   UNK N   1      34.737  14.230  14.949  0.00  0.00     0.169 HD
BRANCH  13  15
HETATM   15  C   UNK N   1      35.795  13.561  13.284  0.00  0.00     0.123 A 
HETATM   16  C   UNK N   1      35.094  13.607  12.098  0.00  0.00     0.075 A 
HETATM   17  C   UNK N   1      36.091  13.710  11.146  0.00  0.00     0.025 A 
HETATM   18  C   UNK N   1      35.891  13.796   9.677  0.00  0.00     0.070 C 
HETATM   19  N   UNK N   1      37.300  13.724  11.737  0.00  0.00    -0.304 N 
HETATM   20  N   UNK N   1      37.121  13.633  13.041  0.00  0.00    -0.285 N 
HETATM   21  H   UNK N   1      38.167  13.790  11.277  0.00  0.00     0.186 HD
ATOM     22  HN  UNK N   1      37.858  13.619  13.746  1.00  0.00     0.188 HD
ENDBRANCH  13  15
ENDBRANCH  12  13
BRANCH   1  23
HETATM   23  C   UNK N   1      35.571   8.634  14.688  0.00  0.00     0.008 A 
HETATM   24  C   UNK N   1      35.349   8.636  13.301  0.00  0.00     0.015 A 
HETATM   25  C   UNK N   1      35.435   7.452  12.567  0.00  0.00     0.001 A 
HETATM   26  C   UNK N   1      35.744   6.253  13.214  0.00  0.00     0.000 A 
HETATM   27  C   UNK N   1      35.967   6.242  14.595  0.00  0.00     0.001 A 
HETATM   28  C   UNK N   1      35.882   7.428  15.332  0.00  0.00     0.015 A 
ENDBRANCH   1  23
TORSDOF 3
ENDMDL
MODEL 8
REMARK VINA RESULT:      -6.9      2.300      2.667
REMARK  3 active torsions:
REMARK  status: ('A' for Active; 'I' for Inactive)
REMARK    1  A    between atoms: C_6  and  C_7 
REMARK    2  A    between atoms: C_18  and  N_19 
REMARK    3  A    between atoms: N_19  and  C_20 
ROOT
HETATM    1  C   UNK N   1      34.972  11.854  13.952  0.00  0.00     0.117 A 
HETATM    2  N   UNK N   1      35.636  12.748  13.179  0.00  0.00    -0.327 N 
ATOM      3  HN  UNK N   1      36.173  13.486  13.635  1.00  0.00     0.169 HD
HETATM    4  N   UNK N   1      34.249  10.861  13.364  0.00  0.00    -0.341 N 
ATOM      5  HN  UNK N   1      33.750  10.188  13.945  1.00  0.00     0.167 HD
HETATM    6  C   UNK N   1      34.187  10.759  12.007  0.00  0.00     0.047 A 
HETATM    7  C   UNK N   1      33.442   9.735  11.415  0.00  0.00     0.030 A 
HETATM    8  C   UNK N   1      33.380   9.632  10.021  0.00  0.00     0.002 A 
HETATM    9  C   UNK N   1      34.062  10.551   9.216  0.00  0.00     0.001 A 
HETATM   10  C   UNK N   1      34.810  11.578   9.801  0.00  0.00     0.017 A 
HETATM   11  C   UNK N   1      34.877  11.688  11.197  0.00  0.00     0.035 A 
HETATM   12  C   UNK N   1      35.614  12.700  11.825  0.00  0.00     0.121 A 
ENDROOT
BRANCH  12  13
HETATM   13  N   UNK N   1      36.333  13.671  11.072  0.00  0.00    -0.327 N 
HETATM   14  H   UNK N   1      37.249  13.457  10.779  0.00  0.00     0.169 HD
BRANCH  13  15
HETATM   15  C   UNK N   1      35.783  14.937  10.726  0.00  0.00     0.123 A 
HETATM   16  C   UNK N   1      35.372  15.309   9.464  0.00  0.00     0.075 A 
HETATM   17  C   UNK N   1      34.925  16.605   9.648  0.00  0.00     0.025 A 
HETATM   18  C   UNK N   1      34.365  17.493   8.597  0.00  0.00     0.070 C 
HETATM   19  N   UNK N   1      35.066  16.968  10.935  0.00  0.00    -0.304 N 
HETATM   20  N   UNK N   1      35.590  15.951  11.594  0.00  0.00    -0.285 N 
HETATM   21  H   UNK N   1      34.821  17.840  11.320  0.00  0.00     0.186 HD
ATOM     22  HN  UNK N   1      35.810  15.935  12.590  1.00  0.00     0.188 HD
ENDBRANCH  13  15
ENDBRANCH  12  13
BRANCH   1  23
HETATM   23  C   UNK N   1      35.053  11.984  15.417  0.00  0.00     0.008 A 
HETATM   24  C   UNK N   1      35.188  10.829  16.205  0.00  0.00     0.015 A 
HETATM   25  C   UNK N   1      35.266  10.924  17.596  0.00  0.00     0.001 A 
HETATM   26  C   UNK N   1      35.210  12.176  18.211  0.00  0.00     0.000 A 
HETATM   27  C   UNK N   1      35.076  13.332  17.434  0.00  0.00     0.001 A 
HETATM   28  C   UNK N   1      34.997  13.238  16.040  0.00  0.00     0.015 A 
ENDBRANCH   1  23
TORSDOF 3
ENDMDL
MODEL 9
REMARK VINA RESULT:      -6.9     19.480     23.484
REMARK  3 active torsions:
REMARK  status: ('A' for Active; 'I' for Inactive)
REMARK    1  A    between atoms: C_6  and  C_7 
REMARK    2  A    between atoms: C_18  and  N_19 
REMARK    3  A    between atoms: N_19  and  C_20 
ROOT
HETATM    1  C   UNK N   1      28.518  23.724  -5.480  0.00  0.00     0.117 A 
HETATM    2  N   UNK N   1      27.569  24.490  -4.888  0.00  0.00    -0.327 N 
ATOM      3  HN  UNK N   1      27.538  24.531  -3.870  1.00  0.00     0.169 HD
HETATM    4  N   UNK N   1      28.577  23.654  -6.839  0.00  0.00    -0.341 N 
ATOM      5  HN  UNK N   1      29.290  23.078  -7.284  1.00  0.00     0.167 HD
HETATM    6  C   UNK N   1      27.692  24.348  -7.608  0.00  0.00     0.047 A 
HETATM    7  C   UNK N   1      27.763  24.269  -9.002  0.00  0.00     0.030 A 
HETATM    8  C   UNK N   1      26.853  24.983  -9.790  0.00  0.00     0.002 A 
HETATM    9  C   UNK N   1      25.871  25.776  -9.187  0.00  0.00     0.001 A 
HETATM   10  C   UNK N   1      25.794  25.861  -7.792  0.00  0.00     0.017 A 
HETATM   11  C   UNK N   1      26.702  25.149  -6.996  0.00  0.00     0.035 A 
HETATM   12  C   UNK N   1      26.661  25.204  -5.597  0.00  0.00     0.121 A 
ENDROOT
BRANCH  12  13
HETATM   13  N   UNK N   1      25.691  25.990  -4.913  0.00  0.00    -0.327 N 
HETATM   14  H   UNK N   1      24.780  25.629  -4.809  0.00  0.00     0.169 HD
BRANCH  13  15
HETATM   15  C   UNK N   1      25.983  27.274  -4.375  0.00  0.00     0.123 A 
HETATM   16  C   UNK N   1      26.419  28.362  -5.101  0.00  0.00     0.075 A 
HETATM   17  C   UNK N   1      26.556  29.347  -4.140  0.00  0.00     0.025 A 
HETATM   18  C   UNK N   1      27.005  30.743  -4.378  0.00  0.00     0.070 C 
HETATM   19  N   UNK N   1      26.221  28.867  -2.929  0.00  0.00    -0.304 N 
HETATM   20  N   UNK N   1      25.871  27.602  -3.071  0.00  0.00    -0.285 N 
HETATM   21  H   UNK N   1      26.235  29.370  -2.084  0.00  0.00     0.186 HD
ATOM     22  HN  UNK N   1      25.568  26.979  -2.323  1.00  0.00     0.188 HD
ENDBRANCH  13  15
ENDBRANCH  12  13
BRANCH   1  23
HETATM   23  C   UNK N   1      29.464  22.982  -4.629  0.00  0.00     0.008 A 
HETATM   24  C   UNK N   1      29.842  23.519  -3.387  0.00  0.00     0.015 A 
HETATM   25  C   UNK N   1      30.737  22.836  -2.562  0.00  0.00     0.001 A 
HETATM   26  C   UNK N   1      31.263  21.609  -2.972  0.00  0.00     0.000 A 
HETATM   27  C   UNK N   1      30.892  21.067  -4.207  0.00  0.00     0.001 A 
HETATM   28  C   UNK N   1      29.995  21.750  -5.035  0.00  0.00     0.015 A 
ENDBRANCH   1  23
TORSDOF 3
ENDMDL
