MODEL 1
REMARK VINA RESULT:      -6.4      0.000      0.000
REMARK  6 active torsions:
REMARK  status: ('A' for Active; 'I' for Inactive)
REMARK    1  A    between atoms: C_1  and  O_7 
REMARK    2  A    between atoms: O_7  and  C_13 
REMARK    3  A    between atoms: C_14  and  C_19 
REMARK    4  A    between atoms: C_19  and  S_20 
REMARK    5  A    between atoms: S_20  and  C_21 
REMARK    6  A    between atoms: C_21  and  C_22 
ROOT
HETATM    1  N   UNK N   1      30.811  17.250   8.982  0.00  0.00    -0.326 N 
HETATM    2  C   UNK N   1      31.842  17.055   8.112  0.00  0.00     0.265 A 
HETATM    3  C   UNK N   1      31.631  17.123   6.726  0.00  0.00     0.108 A 
HETATM    4  C   UNK N   1      30.308  17.367   6.243  0.00  0.00     0.107 A 
HETATM    5  C   UNK N   1      29.283  17.637   7.181  0.00  0.00     0.009 A 
HETATM    6  C   UNK N   1      29.562  17.560   8.556  0.00  0.00     0.018 A 
HETATM    7  C   UNK N   1      28.517  17.851   9.580  0.00  0.00     0.069 C 
HETATM    8  O   UNK N   1      32.959  16.843   8.554  0.00  0.00    -0.267 OA
HETATM    9  I   UNK N   1      33.390  17.019   5.498  0.00  0.00    -0.036 I 
HETATM   10  H   UNK N   1      30.979  17.164   9.949  0.00  0.00     0.169 HD
ENDROOT
BRANCH   4  11
HETATM   11  O   UNK N   1      29.982  17.388   4.916  0.00  0.00    -0.309 OA
BRANCH  11  12
HETATM   12  C   UNK N   1      29.426  16.384   4.175  0.00  0.00     0.077 A 
HETATM   13  C   UNK N   1      28.238  16.552   3.443  0.00  0.00     0.044 A 
HETATM   14  C   UNK N   1      27.677  15.490   2.730  0.00  0.00    -0.059 A 
HETATM   15  C   UNK N   1      28.333  14.261   2.684  0.00  0.00     0.013 A 
HETATM   16  C   UNK N   1      26.363  15.660   2.054  0.00  0.00     0.048 C 
HETATM   17  C   UNK N   1      29.545  14.094   3.357  0.00  0.00    -0.059 A 
HETATM   18  C   UNK N   1      30.080  15.147   4.113  0.00  0.00     0.044 A 
HETATM   19  C   UNK N   1      30.264  12.796   3.272  0.00  0.00     0.048 C 
ENDBRANCH  11  12
ENDBRANCH   4  11
BRANCH   5  20
HETATM   20  C   UNK N   1      27.915  18.104   6.738  0.00  0.00     0.117 C 
BRANCH  20  21
HETATM   21  S   UNK N   1      27.646  19.903   6.614  0.00  0.00    -0.158 SA
BRANCH  21  22
HETATM   22  C   UNK N   1      27.849  20.008   4.802  0.00  0.00     0.139 C 
BRANCH  22  23
HETATM   23  C   UNK N   1      26.556  20.054   4.054  0.00  0.00     0.061 A 
HETATM   24  O   UNK N   1      26.350  20.697   2.932  0.00  0.00    -0.326 OA
HETATM   25  C   UNK N   1      25.103  20.521   2.558  0.00  0.00     0.142 A 
HETATM   26  C   UNK N   1      24.464  19.717   3.488  0.00  0.00     0.027 A 
HETATM   27  C   UNK N   1      25.407  19.415   4.451  0.00  0.00     0.035 A 
ENDBRANCH  22  23
ENDBRANCH  21  22
ENDBRANCH  20  21
ENDBRANCH   5  20
TORSDOF 6
ENDMDL
MODEL 2
REMARK VINA RESULT:      -6.4      2.505      5.176
REMARK  6 active torsions:
REMARK  status: ('A' for Active; 'I' for Inactive)
REMARK    1  A    between atoms: C_1  and  O_7 
REMARK    2  A    between atoms: O_7  and  C_13 
REMARK    3  A    between atoms: C_14  and  C_19 
REMARK    4  A    between atoms: C_19  and  S_20 
REMARK    5  A    between atoms: S_20  and  C_21 
REMARK    6  A    between atoms: C_21  and  C_22 
ROOT
HETATM    1  N   UNK N   1      32.496  17.303   6.510  0.00  0.00    -0.326 N 
HETATM    2  C   UNK N   1      31.741  17.528   7.621  0.00  0.00     0.265 A 
HETATM    3  C   UNK N   1      30.341  17.450   7.564  0.00  0.00     0.108 A 
HETATM    4  C   UNK N   1      29.719  17.163   6.309  0.00  0.00     0.107 A 
HETATM    5  C   UNK N   1      30.543  16.862   5.198  0.00  0.00     0.009 A 
HETATM    6  C   UNK N   1      31.940  16.952   5.324  0.00  0.00     0.018 A 
HETATM    7  C   UNK N   1      32.847  16.630   4.185  0.00  0.00     0.069 C 
HETATM    8  O   UNK N   1      32.299  17.778   8.678  0.00  0.00    -0.267 OA
HETATM    9  I   UNK N   1      29.309  17.607   9.440  0.00  0.00    -0.036 I 
HETATM   10  H   UNK N   1      33.475  17.397   6.569  0.00  0.00     0.169 HD
ENDROOT
BRANCH   4  11
HETATM   11  O   UNK N   1      28.366  17.127   6.129  0.00  0.00    -0.309 OA
BRANCH  11  12
HETATM   12  C   UNK N   1      27.539  18.163   5.797  0.00  0.00     0.077 A 
HETATM   13  C   UNK N   1      27.800  19.491   6.177  0.00  0.00     0.044 A 
HETATM   14  C   UNK N   1      26.910  20.519   5.854  0.00  0.00    -0.059 A 
HETATM   15  C   UNK N   1      25.779  20.243   5.087  0.00  0.00     0.013 A 
HETATM   16  C   UNK N   1      27.149  21.896   6.360  0.00  0.00     0.048 C 
HETATM   17  C   UNK N   1      25.536  18.938   4.651  0.00  0.00    -0.059 A 
HETATM   18  C   UNK N   1      26.404  17.901   5.019  0.00  0.00     0.044 A 
HETATM   19  C   UNK N   1      24.352  18.654   3.798  0.00  0.00     0.048 C 
ENDBRANCH  11  12
ENDBRANCH   4  11
BRANCH   5  20
HETATM   20  C   UNK N   1      29.959  16.350   3.901  0.00  0.00     0.117 C 
BRANCH  20  21
HETATM   21  S   UNK N   1      29.686  14.553   3.759  0.00  0.00    -0.158 SA
BRANCH  21  22
HETATM   22  C   UNK N   1      28.937  14.597   2.095  0.00  0.00     0.139 C 
BRANCH  22  23
HETATM   23  C   UNK N   1      27.444  14.523   2.105  0.00  0.00     0.061 A 
HETATM   24  O   UNK N   1      26.738  13.426   2.007  0.00  0.00    -0.326 OA
HETATM   25  C   UNK N   1      25.461  13.732   2.051  0.00  0.00     0.142 A 
HETATM   26  C   UNK N   1      25.331  15.104   2.189  0.00  0.00     0.027 A 
HETATM   27  C   UNK N   1      26.615  15.611   2.227  0.00  0.00     0.035 A 
ENDBRANCH  22  23
ENDBRANCH  21  22
ENDBRANCH  20  21
ENDBRANCH   5  20
TORSDOF 6
ENDMDL
MODEL 3
REMARK VINA RESULT:      -6.3      2.818      5.211
REMARK  6 active torsions:
REMARK  status: ('A' for Active; 'I' for Inactive)
REMARK    1  A    between atoms: C_1  and  O_7 
REMARK    2  A    between atoms: O_7  and  C_13 
REMARK    3  A    between atoms: C_14  and  C_19 
REMARK    4  A    between atoms: C_19  and  S_20 
REMARK    5  A    between atoms: S_20  and  C_21 
REMARK    6  A    between atoms: C_21  and  C_22 
ROOT
HETATM    1  N   UNK N   1      27.427  19.736   7.891  0.00  0.00    -0.326 N 
HETATM    2  C   UNK N   1      26.999  20.219   6.691  0.00  0.00     0.265 A 
HETATM    3  C   UNK N   1      27.409  19.618   5.490  0.00  0.00     0.108 A 
HETATM    4  C   UNK N   1      28.311  18.511   5.548  0.00  0.00     0.107 A 
HETATM    5  C   UNK N   1      28.671  17.996   6.817  0.00  0.00     0.009 A 
HETATM    6  C   UNK N   1      28.220  18.641   7.982  0.00  0.00     0.018 A 
HETATM    7  C   UNK N   1      28.561  18.125   9.338  0.00  0.00     0.069 C 
HETATM    8  O   UNK N   1      26.234  21.169   6.671  0.00  0.00    -0.267 OA
HETATM    9  I   UNK N   1      26.473  20.349   3.701  0.00  0.00    -0.036 I 
HETATM   10  H   UNK N   1      27.152  20.197   8.717  0.00  0.00     0.169 HD
ENDROOT
BRANCH   4  11
HETATM   11  O   UNK N   1      28.822  17.895   4.441  0.00  0.00    -0.309 OA
BRANCH  11  12
HETATM   12  C   UNK N   1      28.294  16.840   3.752  0.00  0.00     0.077 A 
HETATM   13  C   UNK N   1      29.092  15.841   3.169  0.00  0.00     0.044 A 
HETATM   14  C   UNK N   1      28.518  14.799   2.437  0.00  0.00    -0.059 A 
HETATM   15  C   UNK N   1      27.131  14.703   2.335  0.00  0.00     0.013 A 
HETATM   16  C   UNK N   1      29.387  13.816   1.736  0.00  0.00     0.048 C 
HETATM   17  C   UNK N   1      26.321  15.654   2.959  0.00  0.00    -0.059 A 
HETATM   18  C   UNK N   1      26.901  16.727   3.651  0.00  0.00     0.044 A 
HETATM   19  C   UNK N   1      24.842  15.527   2.885  0.00  0.00     0.048 C 
ENDBRANCH  11  12
ENDBRANCH   4  11
BRANCH   5  20
HETATM   20  C   UNK N   1      29.451  16.708   6.951  0.00  0.00     0.117 C 
BRANCH  20  21
HETATM   21  S   UNK N   1      31.218  16.843   7.379  0.00  0.00    -0.158 SA
BRANCH  21  22
HETATM   22  C   UNK N   1      31.775  15.427   6.369  0.00  0.00     0.139 C 
BRANCH  22  23
HETATM   23  C   UNK N   1      32.217  15.807   4.993  0.00  0.00     0.061 A 
HETATM   24  O   UNK N   1      32.571  14.970   4.051  0.00  0.00    -0.326 OA
HETATM   25  C   UNK N   1      32.898  15.648   2.974  0.00  0.00     0.142 A 
HETATM   26  C   UNK N   1      32.746  17.001   3.230  0.00  0.00     0.027 A 
HETATM   27  C   UNK N   1      32.302  17.099   4.534  0.00  0.00     0.035 A 
ENDBRANCH  22  23
ENDBRANCH  21  22
ENDBRANCH  20  21
ENDBRANCH   5  20
TORSDOF 6
ENDMDL
MODEL 4
REMARK VINA RESULT:      -6.3     10.719     13.210
REMARK  6 active torsions:
REMARK  status: ('A' for Active; 'I' for Inactive)
REMARK    1  A    between atoms: C_1  and  O_7 
REMARK    2  A    between atoms: O_7  and  C_13 
REMARK    3  A    between atoms: C_14  and  C_19 
REMARK    4  A    between atoms: C_19  and  S_20 
REMARK    5  A    between atoms: S_20  and  C_21 
REMARK    6  A    between atoms: C_21  and  C_22 
ROOT
HETATM    1  N   UNK N   1      30.589  21.322  -3.455  0.00  0.00    -0.326 N 
HETATM    2  C   UNK N   1      30.852  20.875  -4.715  0.00  0.00     0.265 A 
HETATM    3  C   UNK N   1      30.376  21.573  -5.836  0.00  0.00     0.108 A 
HETATM    4  C   UNK N   1      29.581  22.743  -5.631  0.00  0.00     0.107 A 
HETATM    5  C   UNK N   1      29.395  23.213  -4.308  0.00  0.00     0.009 A 
HETATM    6  C   UNK N   1      29.905  22.470  -3.229  0.00  0.00     0.018 A 
HETATM    7  C   UNK N   1      29.746  22.934  -1.821  0.00  0.00     0.069 C 
HETATM    8  O   UNK N   1      31.529  19.870  -4.860  0.00  0.00    -0.267 OA
HETATM    9  I   UNK N   1      31.063  20.872  -7.746  0.00  0.00    -0.036 I 
HETATM   10  H   UNK N   1      30.906  20.795  -2.685  0.00  0.00     0.169 HD
ENDROOT
BRANCH   4  11
HETATM   11  O   UNK N   1      29.015  23.459  -6.648  0.00  0.00    -0.309 OA
BRANCH  11  12
HETATM   12  C   UNK N   1      27.936  23.116  -7.412  0.00  0.00     0.077 A 
HETATM   13  C   UNK N   1      26.779  22.529  -6.869  0.00  0.00     0.044 A 
HETATM   14  C   UNK N   1      25.711  22.154  -7.687  0.00  0.00    -0.059 A 
HETATM   15  C   UNK N   1      25.756  22.423  -9.054  0.00  0.00     0.013 A 
HETATM   16  C   UNK N   1      24.546  21.435  -7.107  0.00  0.00     0.048 C 
HETATM   17  C   UNK N   1      26.873  23.059  -9.602  0.00  0.00    -0.059 A 
HETATM   18  C   UNK N   1      27.964  23.389  -8.786  0.00  0.00     0.044 A 
HETATM   19  C   UNK N   1      26.901  23.383 -11.052  0.00  0.00     0.048 C 
ENDBRANCH  11  12
ENDBRANCH   4  11
BRANCH   5  20
HETATM   20  C   UNK N   1      28.744  24.549  -4.032  0.00  0.00     0.117 C 
BRANCH  20  21
HETATM   21  S   UNK N   1      26.961  24.546  -3.655  0.00  0.00    -0.158 SA
BRANCH  21  22
HETATM   22  C   UNK N   1      26.632  26.244  -4.241  0.00  0.00     0.139 C 
BRANCH  22  23
HETATM   23  C   UNK N   1      26.591  26.370  -5.729  0.00  0.00     0.061 A 
HETATM   24  O   UNK N   1      27.550  26.857  -6.477  0.00  0.00    -0.326 OA
HETATM   25  C   UNK N   1      27.176  26.816  -7.736  0.00  0.00     0.142 A 
HETATM   26  C   UNK N   1      25.905  26.269  -7.810  0.00  0.00     0.027 A 
HETATM   27  C   UNK N   1      25.532  25.979  -6.512  0.00  0.00     0.035 A 
ENDBRANCH  22  23
ENDBRANCH  21  22
ENDBRANCH  20  21
ENDBRANCH   5  20
TORSDOF 6
ENDMDL
MODEL 5
REMARK VINA RESULT:      -6.3      1.233      2.154
REMARK  6 active torsions:
REMARK  status: ('A' for Active; 'I' for Inactive)
REMARK    1  A    between atoms: C_1  and  O_7 
REMARK    2  A    between atoms: O_7  and  C_13 
REMARK    3  A    between atoms: C_14  and  C_19 
REMARK    4  A    between atoms: C_19  and  S_20 
REMARK    5  A    between atoms: S_20  and  C_21 
REMARK    6  A    between atoms: C_21  and  C_22 
ROOT
HETATM    1  N   UNK N   1      30.426  17.541   7.819  0.00  0.00    -0.326 N 
HETATM    2  C   UNK N   1      31.291  17.213   6.819  0.00  0.00     0.265 A 
HETATM    3  C   UNK N   1      30.869  17.206   5.481  0.00  0.00     0.108 A 
HETATM    4  C   UNK N   1      29.504  17.516   5.189  0.00  0.00     0.107 A 
HETATM    5  C   UNK N   1      28.660  17.923   6.249  0.00  0.00     0.009 A 
HETATM    6  C   UNK N   1      29.147  17.915   7.568  0.00  0.00     0.018 A 
HETATM    7  C   UNK N   1      28.299  18.350   8.714  0.00  0.00     0.069 C 
HETATM    8  O   UNK N   1      32.449  16.947   7.098  0.00  0.00    -0.267 OA
HETATM    9  I   UNK N   1      32.400  16.891   4.009  0.00  0.00    -0.036 I 
HETATM   10  H   UNK N   1      30.739  17.506   8.752  0.00  0.00     0.169 HD
ENDROOT
BRANCH   4  11
HETATM   11  O   UNK N   1      28.974  17.475   3.930  0.00  0.00    -0.309 OA
BRANCH  11  12
HETATM   12  C   UNK N   1      28.376  16.415   3.309  0.00  0.00     0.077 A 
HETATM   13  C   UNK N   1      29.107  15.336   2.782  0.00  0.00     0.044 A 
HETATM   14  C   UNK N   1      28.464  14.290   2.116  0.00  0.00    -0.059 A 
HETATM   15  C   UNK N   1      27.073  14.274   2.028  0.00  0.00     0.013 A 
HETATM   16  C   UNK N   1      29.265  13.215   1.472  0.00  0.00     0.048 C 
HETATM   17  C   UNK N   1      26.328  15.308   2.598  0.00  0.00    -0.059 A 
HETATM   18  C   UNK N   1      26.978  16.382   3.220  0.00  0.00     0.044 A 
HETATM   19  C   UNK N   1      24.844  15.268   2.539  0.00  0.00     0.048 C 
ENDBRANCH  11  12
ENDBRANCH   4  11
BRANCH   5  20
HETATM   20  C   UNK N   1      27.271  18.461   5.988  0.00  0.00     0.117 C 
BRANCH  20  21
HETATM   21  S   UNK N   1      27.128  20.227   5.558  0.00  0.00    -0.158 SA
BRANCH  21  22
HETATM   22  C   UNK N   1      26.657  19.968   3.813  0.00  0.00     0.139 C 
BRANCH  22  23
HETATM   23  C   UNK N   1      25.180  19.918   3.590  0.00  0.00     0.061 A 
HETATM   24  O   UNK N   1      24.492  20.765   2.865  0.00  0.00    -0.326 OA
HETATM   25  C   UNK N   1      23.225  20.420   2.889  0.00  0.00     0.142 A 
HETATM   26  C   UNK N   1      23.081  19.285   3.670  0.00  0.00     0.027 A 
HETATM   27  C   UNK N   1      24.347  18.962   4.118  0.00  0.00     0.035 A 
ENDBRANCH  22  23
ENDBRANCH  21  22
ENDBRANCH  20  21
ENDBRANCH   5  20
TORSDOF 6
ENDMDL
MODEL 6
REMARK VINA RESULT:      -6.3      7.220      9.153
REMARK  6 active torsions:
REMARK  status: ('A' for Active; 'I' for Inactive)
REMARK    1  A    between atoms: C_1  and  O_7 
REMARK    2  A    between atoms: O_7  and  C_13 
REMARK    3  A    between atoms: C_14  and  C_19 
REMARK    4  A    between atoms: C_19  and  S_20 
REMARK    5  A    between atoms: S_20  and  C_21 
REMARK    6  A    between atoms: C_21  and  C_22 
ROOT
HETATM    1  N   UNK N   1      20.950  16.647   7.676  0.00  0.00    -0.326 N 
HETATM    2  C   UNK N   1      21.252  17.556   6.706  0.00  0.00     0.265 A 
HETATM    3  C   UNK N   1      21.898  17.155   5.525  0.00  0.00     0.108 A 
HETATM    4  C   UNK N   1      22.263  15.781   5.374  0.00  0.00     0.107 A 
HETATM    5  C   UNK N   1      21.863  14.859   6.372  0.00  0.00     0.009 A 
HETATM    6  C   UNK N   1      21.213  15.326   7.528  0.00  0.00     0.018 A 
HETATM    7  C   UNK N   1      20.761  14.391   8.598  0.00  0.00     0.069 C 
HETATM    8  O   UNK N   1      20.934  18.723   6.864  0.00  0.00    -0.267 OA
HETATM    9  I   UNK N   1      22.101  18.655   4.004  0.00  0.00    -0.036 I 
HETATM   10  H   UNK N   1      20.527  16.961   8.508  0.00  0.00     0.169 HD
ENDROOT
BRANCH   4  11
HETATM   11  O   UNK N   1      22.949  15.297   4.297  0.00  0.00    -0.309 OA
BRANCH  11  12
HETATM   12  C   UNK N   1      22.436  14.805   3.130  0.00  0.00     0.077 A 
HETATM   13  C   UNK N   1      21.066  14.864   2.822  0.00  0.00     0.044 A 
HETATM   14  C   UNK N   1      20.571  14.313   1.637  0.00  0.00    -0.059 A 
HETATM   15  C   UNK N   1      21.451  13.755   0.711  0.00  0.00     0.013 A 
HETATM   16  C   UNK N   1      19.107  14.289   1.383  0.00  0.00     0.048 C 
HETATM   17  C   UNK N   1      22.823  13.742   0.974  0.00  0.00    -0.059 A 
HETATM   18  C   UNK N   1      23.310  14.249   2.187  0.00  0.00     0.044 A 
HETATM   19  C   UNK N   1      23.762  13.185  -0.033  0.00  0.00     0.048 C 
ENDBRANCH  11  12
ENDBRANCH   4  11
BRANCH   5  20
HETATM   20  C   UNK N   1      22.032  13.369   6.182  0.00  0.00     0.117 C 
BRANCH  20  21
HETATM   21  S   UNK N   1      23.639  12.645   6.649  0.00  0.00    -0.158 SA
BRANCH  21  22
HETATM   22  C   UNK N   1      22.974  11.451   7.859  0.00  0.00     0.139 C 
BRANCH  22  23
HETATM   23  C   UNK N   1      23.405  11.716   9.265  0.00  0.00     0.061 A 
HETATM   24  O   UNK N   1      24.615  12.050   9.638  0.00  0.00    -0.326 OA
HETATM   25  C   UNK N   1      24.635  12.204  10.943  0.00  0.00     0.142 A 
HETATM   26  C   UNK N   1      23.367  11.961  11.445  0.00  0.00     0.027 A 
HETATM   27  C   UNK N   1      22.575  11.649  10.357  0.00  0.00     0.035 A 
ENDBRANCH  22  23
ENDBRANCH  21  22
ENDBRANCH  20  21
ENDBRANCH   5  20
TORSDOF 6
ENDMDL
MODEL 7
REMARK VINA RESULT:      -6.3      3.066      7.411
REMARK  6 active torsions:
REMARK  status: ('A' for Active; 'I' for Inactive)
REMARK    1  A    between atoms: C_1  and  O_7 
REMARK    2  A    between atoms: O_7  and  C_13 
REMARK    3  A    between atoms: C_14  and  C_19 
REMARK    4  A    between atoms: C_19  and  S_20 
REMARK    5  A    between atoms: S_20  and  C_21 
REMARK    6  A    between atoms: C_21  and  C_22 
ROOT
HETATM    1  N   UNK N   1      30.630  13.158   5.093  0.00  0.00    -0.326 N 
HETATM    2  C   UNK N   1      29.463  13.521   4.491  0.00  0.00     0.265 A 
HETATM    3  C   UNK N   1      29.153  14.874   4.285  0.00  0.00     0.108 A 
HETATM    4  C   UNK N   1      30.070  15.868   4.750  0.00  0.00     0.107 A 
HETATM    5  C   UNK N   1      31.304  15.446   5.302  0.00  0.00     0.009 A 
HETATM    6  C   UNK N   1      31.555  14.073   5.475  0.00  0.00     0.018 A 
HETATM    7  C   UNK N   1      32.845  13.583   6.038  0.00  0.00     0.069 C 
HETATM    8  O   UNK N   1      28.696  12.652   4.110  0.00  0.00    -0.267 OA
HETATM    9  I   UNK N   1      27.391  15.275   3.126  0.00  0.00    -0.036 I 
HETATM   10  H   UNK N   1      30.807  12.204   5.256  0.00  0.00     0.169 HD
ENDROOT
BRANCH   4  11
HETATM   11  O   UNK N   1      29.838  17.211   4.659  0.00  0.00    -0.309 OA
BRANCH  11  12
HETATM   12  C   UNK N   1      29.118  17.995   5.516  0.00  0.00     0.077 A 
HETATM   13  C   UNK N   1      29.081  17.764   6.903  0.00  0.00     0.044 A 
HETATM   14  C   UNK N   1      28.301  18.563   7.743  0.00  0.00    -0.059 A 
HETATM   15  C   UNK N   1      27.600  19.646   7.217  0.00  0.00     0.013 A 
HETATM   16  C   UNK N   1      28.190  18.233   9.189  0.00  0.00     0.048 C 
HETATM   17  C   UNK N   1      27.673  19.926   5.851  0.00  0.00    -0.059 A 
HETATM   18  C   UNK N   1      28.416  19.093   5.002  0.00  0.00     0.044 A 
HETATM   19  C   UNK N   1      26.959  21.106   5.299  0.00  0.00     0.048 C 
ENDBRANCH  11  12
ENDBRANCH   4  11
BRANCH   5  20
HETATM   20  C   UNK N   1      32.402  16.434   5.623  0.00  0.00     0.117 C 
BRANCH  20  21
HETATM   21  S   UNK N   1      32.430  17.132   7.307  0.00  0.00    -0.158 SA
BRANCH  21  22
HETATM   22  C   UNK N   1      34.233  16.975   7.556  0.00  0.00     0.139 C 
BRANCH  22  23
HETATM   23  C   UNK N   1      34.617  16.599   8.951  0.00  0.00     0.061 A 
HETATM   24  O   UNK N   1      35.246  17.372   9.799  0.00  0.00    -0.326 OA
HETATM   25  C   UNK N   1      35.420  16.720  10.927  0.00  0.00     0.142 A 
HETATM   26  C   UNK N   1      34.870  15.454  10.805  0.00  0.00     0.027 A 
HETATM   27  C   UNK N   1      34.349  15.381   9.527  0.00  0.00     0.035 A 
ENDBRANCH  22  23
ENDBRANCH  21  22
ENDBRANCH  20  21
ENDBRANCH   5  20
TORSDOF 6
ENDMDL
MODEL 8
REMARK VINA RESULT:      -6.2     11.938     15.640
REMARK  6 active torsions:
REMARK  status: ('A' for Active; 'I' for Inactive)
REMARK    1  A    between atoms: C_1  and  O_7 
REMARK    2  A    between atoms: O_7  and  C_13 
REMARK    3  A    between atoms: C_14  and  C_19 
REMARK    4  A    between atoms: C_19  and  S_20 
REMARK    5  A    between atoms: S_20  and  C_21 
REMARK    6  A    between atoms: C_21  and  C_22 
ROOT
HETATM    1  N   UNK N   1      27.385  22.067  -9.612  0.00  0.00    -0.326 N 
HETATM    2  C   UNK N   1      26.647  22.991 -10.290  0.00  0.00     0.265 A 
HETATM    3  C   UNK N   1      26.024  24.049  -9.610  0.00  0.00     0.108 A 
HETATM    4  C   UNK N   1      26.149  24.120  -8.187  0.00  0.00     0.107 A 
HETATM    5  C   UNK N   1      26.985  23.183  -7.533  0.00  0.00     0.009 A 
HETATM    6  C   UNK N   1      27.586  22.151  -8.274  0.00  0.00     0.018 A 
HETATM    7  C   UNK N   1      28.485  21.152  -7.630  0.00  0.00     0.069 C 
HETATM    8  O   UNK N   1      26.553  22.902 -11.503  0.00  0.00    -0.267 OA
HETATM    9  I   UNK N   1      25.092  25.542 -10.838  0.00  0.00    -0.036 I 
HETATM   10  H   UNK N   1      27.783  21.316 -10.109  0.00  0.00     0.169 HD
ENDROOT
BRANCH   4  11
HETATM   11  O   UNK N   1      25.532  25.068  -7.422  0.00  0.00    -0.309 OA
BRANCH  11  12
HETATM   12  C   UNK N   1      26.075  26.211  -6.907  0.00  0.00     0.077 A 
HETATM   13  C   UNK N   1      27.048  26.961  -7.591  0.00  0.00     0.044 A 
HETATM   14  C   UNK N   1      27.611  28.103  -7.015  0.00  0.00    -0.059 A 
HETATM   15  C   UNK N   1      27.159  28.549  -5.774  0.00  0.00     0.013 A 
HETATM   16  C   UNK N   1      28.716  28.817  -7.707  0.00  0.00     0.048 C 
HETATM   17  C   UNK N   1      26.151  27.849  -5.108  0.00  0.00    -0.059 A 
HETATM   18  C   UNK N   1      25.624  26.676  -5.665  0.00  0.00     0.044 A 
HETATM   19  C   UNK N   1      25.641  28.351  -3.805  0.00  0.00     0.048 C 
ENDBRANCH  11  12
ENDBRANCH   4  11
BRANCH   5  20
HETATM   20  C   UNK N   1      27.326  23.323  -6.067  0.00  0.00     0.117 C 
BRANCH  20  21
HETATM   21  S   UNK N   1      28.837  24.254  -5.646  0.00  0.00    -0.158 SA
BRANCH  21  22
HETATM   22  C   UNK N   1      28.954  23.671  -3.920  0.00  0.00     0.139 C 
BRANCH  22  23
HETATM   23  C   UNK N   1      30.022  22.648  -3.702  0.00  0.00     0.061 A 
HETATM   24  O   UNK N   1      30.139  21.521  -4.357  0.00  0.00    -0.326 OA
HETATM   25  C   UNK N   1      31.188  20.869  -3.908  0.00  0.00     0.142 A 
HETATM   26  C   UNK N   1      31.787  21.616  -2.906  0.00  0.00     0.027 A 
HETATM   27  C   UNK N   1      31.033  22.766  -2.779  0.00  0.00     0.035 A 
ENDBRANCH  22  23
ENDBRANCH  21  22
ENDBRANCH  20  21
ENDBRANCH   5  20
TORSDOF 6
ENDMDL
MODEL 9
REMARK VINA RESULT:      -6.2      6.503      9.328
REMARK  6 active torsions:
REMARK  status: ('A' for Active; 'I' for Inactive)
REMARK    1  A    between atoms: C_1  and  O_7 
REMARK    2  A    between atoms: O_7  and  C_13 
REMARK    3  A    between atoms: C_14  and  C_19 
REMARK    4  A    between atoms: C_19  and  S_20 
REMARK    5  A    between atoms: S_20  and  C_21 
REMARK    6  A    between atoms: C_21  and  C_22 
ROOT
HETATM    1  N   UNK N   1      19.074  17.050   3.599  0.00  0.00    -0.326 N 
HETATM    2  C   UNK N   1      19.658  18.191   3.136  0.00  0.00     0.265 A 
HETATM    3  C   UNK N   1      20.907  18.605   3.623  0.00  0.00     0.108 A 
HETATM    4  C   UNK N   1      21.542  17.825   4.639  0.00  0.00     0.107 A 
HETATM    5  C   UNK N   1      20.936  16.609   5.037  0.00  0.00     0.009 A 
HETATM    6  C   UNK N   1      19.685  16.249   4.505  0.00  0.00     0.018 A 
HETATM    7  C   UNK N   1      19.017  14.971   4.884  0.00  0.00     0.069 C 
HETATM    8  O   UNK N   1      19.090  18.841   2.273  0.00  0.00    -0.267 OA
HETATM    9  I   UNK N   1      21.794  20.292   2.636  0.00  0.00    -0.036 I 
HETATM   10  H   UNK N   1      18.182  16.801   3.266  0.00  0.00     0.169 HD
ENDROOT
BRANCH   4  11
HETATM   11  O   UNK N   1      22.725  18.171   5.228  0.00  0.00    -0.309 OA
BRANCH  11  12
HETATM   12  C   UNK N   1      23.975  18.137   4.676  0.00  0.00     0.077 A 
HETATM   13  C   UNK N   1      24.406  17.090   3.842  0.00  0.00     0.044 A 
HETATM   14  C   UNK N   1      25.705  17.068   3.329  0.00  0.00    -0.059 A 
HETATM   15  C   UNK N   1      26.571  18.129   3.588  0.00  0.00     0.013 A 
HETATM   16  C   UNK N   1      26.174  15.898   2.542  0.00  0.00     0.048 C 
HETATM   17  C   UNK N   1      26.139  19.207   4.365  0.00  0.00    -0.059 A 
HETATM   18  C   UNK N   1      24.852  19.201   4.920  0.00  0.00     0.044 A 
HETATM   19  C   UNK N   1      27.050  20.356   4.604  0.00  0.00     0.048 C 
ENDBRANCH  11  12
ENDBRANCH   4  11
BRANCH   5  20
HETATM   20  C   UNK N   1      21.647  15.637   5.951  0.00  0.00     0.117 C 
BRANCH  20  21
HETATM   21  S   UNK N   1      21.323  15.782   7.739  0.00  0.00    -0.158 SA
BRANCH  21  22
HETATM   22  C   UNK N   1      20.905  14.025   8.007  0.00  0.00     0.139 C 
BRANCH  22  23
HETATM   23  C   UNK N   1      21.671  13.387   9.121  0.00  0.00     0.061 A 
HETATM   24  O   UNK N   1      22.976  13.319   9.203  0.00  0.00    -0.326 OA
HETATM   25  C   UNK N   1      23.305  12.693  10.310  0.00  0.00     0.142 A 
HETATM   26  C   UNK N   1      22.149  12.336  10.986  0.00  0.00     0.027 A 
HETATM   27  C   UNK N   1      21.096  12.790  10.216  0.00  0.00     0.035 A 
ENDBRANCH  22  23
ENDBRANCH  21  22
ENDBRANCH  20  21
ENDBRANCH   5  20
TORSDOF 6
ENDMDL
