REMARK  6 active torsions:
REMARK  status: ('A' for Active; 'I' for Inactive)
REMARK    1  A    between atoms: C_1  and  O_7 
REMARK    2  A    between atoms: O_7  and  C_13 
REMARK    3  A    between atoms: C_14  and  C_19 
REMARK    4  A    between atoms: C_19  and  S_20 
REMARK    5  A    between atoms: S_20  and  C_21 
REMARK    6  A    between atoms: C_21  and  C_22 
ROOT
HETATM    1  N   UNK N   1      -2.392  -1.232   0.118  0.00  0.00    -0.326 N 
HETATM    2  C   UNK N   1      -2.735   0.078  -0.036  0.00  0.00     0.265 A 
HETATM    3  C   UNK N   1      -1.779   1.027  -0.430  0.00  0.00     0.108 A 
HETATM    4  C   UNK N   1      -0.430   0.600  -0.634  0.00  0.00     0.107 A 
HETATM    5  C   UNK N   1      -0.134  -0.781  -0.536  0.00  0.00     0.009 A 
HETATM    6  C   UNK N   1      -1.140  -1.681  -0.143  0.00  0.00     0.018 A 
HETATM    7  C   UNK N   1      -0.878  -3.145  -0.041  0.00  0.00     0.069 C 
HETATM    8  O   UNK N   1      -3.893   0.415   0.151  0.00  0.00    -0.267 OA
HETATM    9  I   UNK N   1      -2.521   2.998  -0.847  0.00  0.00    -0.036 I 
HETATM   10  H   UNK N   1      -3.074  -1.871   0.428  0.00  0.00     0.169 HD
ENDROOT
BRANCH   4  11
HETATM   11  O   UNK N   1       0.590   1.450  -0.955  0.00  0.00    -0.309 OA
BRANCH  11  12
HETATM   12  C   UNK N   1       0.920   2.628  -0.346  0.00  0.00     0.077 A 
HETATM   13  C   UNK N   1       0.139   3.197   0.675  0.00  0.00     0.044 A 
HETATM   14  C   UNK N   1       0.486   4.424   1.246  0.00  0.00    -0.059 A 
HETATM   15  C   UNK N   1       1.658   5.067   0.851  0.00  0.00     0.013 A 
HETATM   16  C   UNK N   1      -0.413   5.060   2.245  0.00  0.00     0.048 C 
HETATM   17  C   UNK N   1       2.477   4.486  -0.120  0.00  0.00    -0.059 A 
HETATM   18  C   UNK N   1       2.100   3.280  -0.727  0.00  0.00     0.044 A 
HETATM   19  C   UNK N   1       3.747   5.152  -0.509  0.00  0.00     0.048 C 
ENDBRANCH  11  12
ENDBRANCH   4  11
BRANCH   5  20
HETATM   20  C   UNK N   1       1.217  -1.327  -0.938  0.00  0.00     0.117 C 
BRANCH  20  21
HETATM   21  S   UNK N   1       2.679  -0.648  -0.086  0.00  0.00    -0.158 SA
BRANCH  21  22
HETATM   22  C   UNK N   1       2.831  -1.988   1.145  0.00  0.00     0.139 C 
BRANCH  22  23
HETATM   23  C   UNK N   1       2.812  -3.358   0.548  0.00  0.00     0.061 A 
HETATM   24  O   UNK N   1       3.649  -3.805  -0.354  0.00  0.00    -0.326 OA
HETATM   25  C   UNK N   1       3.339  -5.047  -0.650  0.00  0.00     0.142 A 
HETATM   26  C   UNK N   1       2.241  -5.429   0.104  0.00  0.00     0.027 A 
HETATM   27  C   UNK N   1       1.906  -4.336   0.879  0.00  0.00     0.035 A 
ENDBRANCH  22  23
ENDBRANCH  21  22
ENDBRANCH  20  21
ENDBRANCH   5  20
TORSDOF 6
