MODEL 1
REMARK VINA RESULT:      -6.1      0.000      0.000
REMARK  8 active torsions:
REMARK  status: ('A' for Active; 'I' for Inactive)
REMARK    1  A    between atoms: C_1  and  C_2 
REMARK    2  A    between atoms: C_2  and  C_4 
REMARK    3  A    between atoms: C_7  and  O_21 
REMARK    4  A    between atoms: C_8  and  C_9 
REMARK    5  A    between atoms: C_8  and  O_21 
REMARK    6  A    between atoms: C_10  and  C_11 
REMARK    7  A    between atoms: C_11  and  N_12 
REMARK    8  A    between atoms: N_12  and  C_14 
ROOT
HETATM    1  C   UNK N   1      29.107  24.068  -3.186  0.00  0.00     0.015 A 
HETATM    2  C   UNK N   1      27.757  23.706  -3.073  0.00  0.00     0.018 A 
HETATM    3  C   UNK N   1      26.749  24.568  -3.498  0.00  0.00     0.038 A 
HETATM    4  C   UNK N   1      27.075  25.821  -4.037  0.00  0.00     0.069 A 
HETATM    5  C   UNK N   1      28.416  26.191  -4.154  0.00  0.00     0.038 A 
HETATM    6  C   UNK N   1      29.427  25.318  -3.739  0.00  0.00     0.018 A 
ENDROOT
BRANCH   4   7
HETATM    7  O   UNK N   1      26.117  26.683  -4.452  0.00  0.00    -0.348 OA
BRANCH   7   8
HETATM    8  C   UNK N   1      25.304  26.471  -5.549  0.00  0.00     0.203 C 
BRANCH   8   9
HETATM    9  C   UNK N   1      26.010  26.833  -6.827  0.00  0.00    -0.003 C 
HETATM   10  C   UNK N   1      26.245  25.991  -7.850  0.00  0.00     0.001 C 
BRANCH  10  11
HETATM   11  C   UNK N   1      25.861  24.531  -7.945  0.00  0.00     0.299 C 
BRANCH  11  12
HETATM   12  N   UNK N   1      26.610  23.658  -7.032  0.00  0.00     0.092 N 
HETATM   13  C   UNK N   1      25.713  22.593  -6.619  0.00  0.00     0.310 C 
BRANCH  12  14
HETATM   14  C   UNK N   1      27.844  23.029  -7.553  0.00  0.00     0.223 A 
HETATM   15  C   UNK N   1      28.644  22.288  -6.495  0.00  0.00     0.038 A 
HETATM   16  C   UNK N   1      29.117  23.644  -6.995  0.00  0.00     0.038 A 
ENDBRANCH  12  14
ENDBRANCH  11  12
ENDBRANCH  10  11
ENDBRANCH   8   9
ENDBRANCH   7   8
ENDBRANCH   4   7
BRANCH   1  17
HETATM   17  C   UNK N   1      30.206  23.174  -2.713  0.00  0.00     0.192 C 
HETATM   18  O   UNK N   1      30.400  23.081  -1.510  0.00  0.00    -0.287 OA
BRANCH  17  19
HETATM   19  C   UNK N   1      31.037  22.339  -3.634  0.00  0.00     0.015 A 
HETATM   20  C   UNK N   1      30.731  20.977  -3.793  0.00  0.00     0.017 A 
HETATM   21  C   UNK N   1      31.441  20.192  -4.707  0.00  0.00     0.020 A 
HETATM   22  C   UNK N   1      32.460  20.759  -5.473  0.00  0.00     0.011 A 
HETATM   23 Br   UNK N   1      33.400  19.705  -6.750  0.00  0.00    -0.051 Br
HETATM   24  C   UNK N   1      32.780  22.108  -5.318  0.00  0.00     0.020 A 
HETATM   25  C   UNK N   1      32.070  22.891  -4.406  0.00  0.00     0.017 A 
ENDBRANCH  17  19
ENDBRANCH   1  17
TORSDOF 8
ENDMDL
MODEL 2
REMARK VINA RESULT:      -5.9      1.970      3.280
REMARK  8 active torsions:
REMARK  status: ('A' for Active; 'I' for Inactive)
REMARK    1  A    between atoms: C_1  and  C_2 
REMARK    2  A    between atoms: C_2  and  C_4 
REMARK    3  A    between atoms: C_7  and  O_21 
REMARK    4  A    between atoms: C_8  and  C_9 
REMARK    5  A    between atoms: C_8  and  O_21 
REMARK    6  A    between atoms: C_10  and  C_11 
REMARK    7  A    between atoms: C_11  and  N_12 
REMARK    8  A    between atoms: N_12  and  C_14 
ROOT
HETATM    1  C   UNK N   1      29.112  23.268  -3.424  0.00  0.00     0.015 A 
HETATM    2  C   UNK N   1      29.171  23.345  -4.822  0.00  0.00     0.018 A 
HETATM    3  C   UNK N   1      28.095  23.837  -5.556  0.00  0.00     0.038 A 
HETATM    4  C   UNK N   1      26.927  24.253  -4.901  0.00  0.00     0.069 A 
HETATM    5  C   UNK N   1      26.858  24.180  -3.508  0.00  0.00     0.038 A 
HETATM    6  C   UNK N   1      27.945  23.698  -2.773  0.00  0.00     0.018 A 
ENDROOT
BRANCH   4   7
HETATM    7  O   UNK N   1      25.862  24.730  -5.587  0.00  0.00    -0.348 OA
BRANCH   7   8
HETATM    8  C   UNK N   1      25.422  26.037  -5.529  0.00  0.00     0.203 C 
BRANCH   8   9
HETATM    9  C   UNK N   1      26.220  26.922  -6.446  0.00  0.00    -0.003 C 
HETATM   10  C   UNK N   1      26.959  27.978  -6.059  0.00  0.00     0.001 C 
BRANCH  10  11
HETATM   11  C   UNK N   1      27.150  28.499  -4.651  0.00  0.00     0.299 C 
BRANCH  11  12
HETATM   12  N   UNK N   1      28.536  28.426  -4.173  0.00  0.00     0.092 N 
HETATM   13  C   UNK N   1      28.577  29.065  -2.868  0.00  0.00     0.310 C 
BRANCH  12  14
HETATM   14  C   UNK N   1      29.138  27.082  -4.034  0.00  0.00     0.223 A 
HETATM   15  C   UNK N   1      30.550  27.101  -3.474  0.00  0.00     0.038 A 
HETATM   16  C   UNK N   1      30.324  26.853  -4.957  0.00  0.00     0.038 A 
ENDBRANCH  12  14
ENDBRANCH  11  12
ENDBRANCH  10  11
ENDBRANCH   8   9
ENDBRANCH   7   8
ENDBRANCH   4   7
BRANCH   1  17
HETATM   17  C   UNK N   1      30.241  22.718  -2.615  0.00  0.00     0.192 C 
HETATM   18  O   UNK N   1      30.331  23.051  -1.444  0.00  0.00    -0.287 OA
BRANCH  17  19
HETATM   19  C   UNK N   1      31.228  21.731  -3.152  0.00  0.00     0.015 A 
HETATM   20  C   UNK N   1      30.813  20.798  -4.117  0.00  0.00     0.017 A 
HETATM   21  C   UNK N   1      31.732  19.915  -4.692  0.00  0.00     0.020 A 
HETATM   22  C   UNK N   1      33.075  19.958  -4.312  0.00  0.00     0.011 A 
HETATM   23 Br   UNK N   1      34.339  18.788  -5.126  0.00  0.00    -0.051 Br
HETATM   24  C   UNK N   1      33.498  20.873  -3.348  0.00  0.00     0.020 A 
HETATM   25  C   UNK N   1      32.579  21.753  -2.775  0.00  0.00     0.017 A 
ENDBRANCH  17  19
ENDBRANCH   1  17
TORSDOF 8
ENDMDL
MODEL 3
REMARK VINA RESULT:      -5.6     15.147     18.339
REMARK  8 active torsions:
REMARK  status: ('A' for Active; 'I' for Inactive)
REMARK    1  A    between atoms: C_1  and  C_2 
REMARK    2  A    between atoms: C_2  and  C_4 
REMARK    3  A    between atoms: C_7  and  O_21 
REMARK    4  A    between atoms: C_8  and  C_9 
REMARK    5  A    between atoms: C_8  and  O_21 
REMARK    6  A    between atoms: C_10  and  C_11 
REMARK    7  A    between atoms: C_11  and  N_12 
REMARK    8  A    between atoms: N_12  and  C_14 
ROOT
HETATM    1  C   UNK N   1      31.976  16.625   7.531  0.00  0.00     0.015 A 
HETATM    2  C   UNK N   1      32.206  15.779   8.624  0.00  0.00     0.018 A 
HETATM    3  C   UNK N   1      33.309  15.969   9.453  0.00  0.00     0.038 A 
HETATM    4  C   UNK N   1      34.213  17.010   9.196  0.00  0.00     0.069 A 
HETATM    5  C   UNK N   1      33.991  17.858   8.110  0.00  0.00     0.038 A 
HETATM    6  C   UNK N   1      32.877  17.674   7.287  0.00  0.00     0.018 A 
ENDROOT
BRANCH   4   7
HETATM    7  O   UNK N   1      35.296  17.215   9.980  0.00  0.00    -0.348 OA
BRANCH   7   8
HETATM    8  C   UNK N   1      35.728  16.337  10.956  0.00  0.00     0.203 C 
BRANCH   8   9
HETATM    9  C   UNK N   1      36.597  15.259  10.370  0.00  0.00    -0.003 C 
HETATM   10  C   UNK N   1      36.470  13.941  10.614  0.00  0.00     0.001 C 
BRANCH  10  11
HETATM   11  C   UNK N   1      35.452  13.265  11.505  0.00  0.00     0.299 C 
BRANCH  11  12
HETATM   12  N   UNK N   1      36.017  12.715  12.744  0.00  0.00     0.092 N 
HETATM   13  C   UNK N   1      37.309  12.140  12.411  0.00  0.00     0.310 C 
BRANCH  12  14
HETATM   14  C   UNK N   1      36.218  13.649  13.872  0.00  0.00     0.223 A 
HETATM   15  C   UNK N   1      36.889  13.013  15.079  0.00  0.00     0.038 A 
HETATM   16  C   UNK N   1      35.396  13.298  15.102  0.00  0.00     0.038 A 
ENDBRANCH  12  14
ENDBRANCH  11  12
ENDBRANCH  10  11
ENDBRANCH   8   9
ENDBRANCH   7   8
ENDBRANCH   4   7
BRANCH   1  17
HETATM   17  C   UNK N   1      30.816  16.427   6.610  0.00  0.00     0.192 C 
HETATM   18  O   UNK N   1      30.727  15.366   6.011  0.00  0.00    -0.287 OA
BRANCH  17  19
HETATM   19  C   UNK N   1      29.727  17.437   6.435  0.00  0.00     0.015 A 
HETATM   20  C   UNK N   1      29.154  18.035   7.570  0.00  0.00     0.017 A 
HETATM   21  C   UNK N   1      28.190  19.038   7.433  0.00  0.00     0.020 A 
HETATM   22  C   UNK N   1      27.791  19.456   6.163  0.00  0.00     0.011 A 
HETATM   23 Br   UNK N   1      26.511  20.853   5.971  0.00  0.00    -0.051 Br
HETATM   24  C   UNK N   1      28.345  18.864   5.028  0.00  0.00     0.020 A 
HETATM   25  C   UNK N   1      29.308  17.862   5.166  0.00  0.00     0.017 A 
ENDBRANCH  17  19
ENDBRANCH   1  17
TORSDOF 8
ENDMDL
MODEL 4
REMARK VINA RESULT:      -5.6      3.049      5.806
REMARK  8 active torsions:
REMARK  status: ('A' for Active; 'I' for Inactive)
REMARK    1  A    between atoms: C_1  and  C_2 
REMARK    2  A    between atoms: C_2  and  C_4 
REMARK    3  A    between atoms: C_7  and  O_21 
REMARK    4  A    between atoms: C_8  and  C_9 
REMARK    5  A    between atoms: C_8  and  O_21 
REMARK    6  A    between atoms: C_10  and  C_11 
REMARK    7  A    between atoms: C_11  and  N_12 
REMARK    8  A    between atoms: N_12  and  C_14 
ROOT
HETATM    1  C   UNK N   1      30.527  22.404  -4.079  0.00  0.00     0.015 A 
HETATM    2  C   UNK N   1      30.731  21.058  -3.748  0.00  0.00     0.018 A 
HETATM    3  C   UNK N   1      31.185  20.150  -4.701  0.00  0.00     0.038 A 
HETATM    4  C   UNK N   1      31.435  20.573  -6.014  0.00  0.00     0.069 A 
HETATM    5  C   UNK N   1      31.236  21.913  -6.353  0.00  0.00     0.038 A 
HETATM    6  C   UNK N   1      30.792  22.825  -5.392  0.00  0.00     0.018 A 
ENDROOT
BRANCH   4   7
HETATM    7  O   UNK N   1      31.872  19.713  -6.963  0.00  0.00    -0.348 OA
BRANCH   7   8
HETATM    8  C   UNK N   1      31.167  19.395  -8.107  0.00  0.00     0.203 C 
BRANCH   8   9
HETATM    9  C   UNK N   1      29.769  18.950  -7.778  0.00  0.00    -0.003 C 
HETATM   10  C   UNK N   1      28.648  19.641  -8.059  0.00  0.00     0.001 C 
BRANCH  10  11
HETATM   11  C   UNK N   1      28.545  20.982  -8.753  0.00  0.00     0.299 C 
BRANCH  11  12
HETATM   12  N   UNK N   1      27.388  21.782  -8.330  0.00  0.00     0.092 N 
HETATM   13  C   UNK N   1      26.230  20.905  -8.337  0.00  0.00     0.310 C 
BRANCH  12  14
HETATM   14  C   UNK N   1      27.456  22.426  -7.000  0.00  0.00     0.223 A 
HETATM   15  C   UNK N   1      26.246  23.287  -6.677  0.00  0.00     0.038 A 
HETATM   16  C   UNK N   1      27.561  23.942  -7.068  0.00  0.00     0.038 A 
ENDBRANCH  12  14
ENDBRANCH  11  12
ENDBRANCH  10  11
ENDBRANCH   8   9
ENDBRANCH   7   8
ENDBRANCH   4   7
BRANCH   1  17
HETATM   17  C   UNK N   1      30.013  23.393  -3.083  0.00  0.00     0.192 C 
HETATM   18  O   UNK N   1      30.533  23.426  -1.978  0.00  0.00    -0.287 OA
BRANCH  17  19
HETATM   19  C   UNK N   1      28.940  24.387  -3.395  0.00  0.00     0.015 A 
HETATM   20  C   UNK N   1      29.291  25.625  -3.958  0.00  0.00     0.017 A 
HETATM   21  C   UNK N   1      28.303  26.542  -4.332  0.00  0.00     0.020 A 
HETATM   22  C   UNK N   1      26.955  26.229  -4.150  0.00  0.00     0.011 A 
HETATM   23 Br   UNK N   1      25.604  27.454  -4.698  0.00  0.00    -0.051 Br
HETATM   24  C   UNK N   1      26.593  25.007  -3.582  0.00  0.00     0.020 A 
HETATM   25  C   UNK N   1      27.581  24.094  -3.210  0.00  0.00     0.017 A 
ENDBRANCH  17  19
ENDBRANCH   1  17
TORSDOF 8
ENDMDL
MODEL 5
REMARK VINA RESULT:      -5.6     17.915     21.063
REMARK  8 active torsions:
REMARK  status: ('A' for Active; 'I' for Inactive)
REMARK    1  A    between atoms: C_1  and  C_2 
REMARK    2  A    between atoms: C_2  and  C_4 
REMARK    3  A    between atoms: C_7  and  O_21 
REMARK    4  A    between atoms: C_8  and  C_9 
REMARK    5  A    between atoms: C_8  and  O_21 
REMARK    6  A    between atoms: C_10  and  C_11 
REMARK    7  A    between atoms: C_11  and  N_12 
REMARK    8  A    between atoms: N_12  and  C_14 
ROOT
HETATM    1  C   UNK N   1      35.022  16.053   9.921  0.00  0.00     0.015 A 
HETATM    2  C   UNK N   1      35.343  16.093  11.285  0.00  0.00     0.018 A 
HETATM    3  C   UNK N   1      35.631  14.924  11.985  0.00  0.00     0.038 A 
HETATM    4  C   UNK N   1      35.592  13.684  11.331  0.00  0.00     0.069 A 
HETATM    5  C   UNK N   1      35.273  13.634   9.973  0.00  0.00     0.038 A 
HETATM    6  C   UNK N   1      34.997  14.810   9.269  0.00  0.00     0.018 A 
ENDROOT
BRANCH   4   7
HETATM    7  O   UNK N   1      35.861  12.530  11.986  0.00  0.00    -0.348 OA
BRANCH   7   8
HETATM    8  C   UNK N   1      35.492  12.274  13.292  0.00  0.00     0.203 C 
BRANCH   8   9
HETATM    9  C   UNK N   1      34.304  11.354  13.351  0.00  0.00    -0.003 C 
HETATM   10  C   UNK N   1      34.109  10.394  14.274  0.00  0.00     0.001 C 
BRANCH  10  11
HETATM   11  C   UNK N   1      35.016  10.034  15.431  0.00  0.00     0.299 C 
BRANCH  11  12
HETATM   12  N   UNK N   1      34.726  10.774  16.666  0.00  0.00     0.092 N 
HETATM   13  C   UNK N   1      34.833   9.834  17.768  0.00  0.00     0.310 C 
BRANCH  12  14
HETATM   14  C   UNK N   1      35.588  11.935  16.981  0.00  0.00     0.223 A 
HETATM   15  C   UNK N   1      35.204  12.648  18.267  0.00  0.00     0.038 A 
HETATM   16  C   UNK N   1      34.854  13.265  16.922  0.00  0.00     0.038 A 
ENDBRANCH  12  14
ENDBRANCH  11  12
ENDBRANCH  10  11
ENDBRANCH   8   9
ENDBRANCH   7   8
ENDBRANCH   4   7
BRANCH   1  17
HETATM   17  C   UNK N   1      34.682  17.289   9.154  0.00  0.00     0.192 C 
HETATM   18  O   UNK N   1      35.330  18.301   9.369  0.00  0.00    -0.287 OA
BRANCH  17  19
HETATM   19  C   UNK N   1      33.632  17.329   8.090  0.00  0.00     0.015 A 
HETATM   20  C   UNK N   1      34.020  17.362   6.740  0.00  0.00     0.017 A 
HETATM   21  C   UNK N   1      33.060  17.320   5.723  0.00  0.00     0.020 A 
HETATM   22  C   UNK N   1      31.704  17.243   6.045  0.00  0.00     0.011 A 
HETATM   23 Br   UNK N   1      30.396  17.141   4.665  0.00  0.00    -0.051 Br
HETATM   24  C   UNK N   1      31.305  17.220   7.381  0.00  0.00     0.020 A 
HETATM   25  C   UNK N   1      32.264  17.260   8.394  0.00  0.00     0.017 A 
ENDBRANCH  17  19
ENDBRANCH   1  17
TORSDOF 8
ENDMDL
MODEL 6
REMARK VINA RESULT:      -5.6     16.978     20.195
REMARK  8 active torsions:
REMARK  status: ('A' for Active; 'I' for Inactive)
REMARK    1  A    between atoms: C_1  and  C_2 
REMARK    2  A    between atoms: C_2  and  C_4 
REMARK    3  A    between atoms: C_7  and  O_21 
REMARK    4  A    between atoms: C_8  and  C_9 
REMARK    5  A    between atoms: C_8  and  O_21 
REMARK    6  A    between atoms: C_10  and  C_11 
REMARK    7  A    between atoms: C_11  and  N_12 
REMARK    8  A    between atoms: N_12  and  C_14 
ROOT
HETATM    1  C   UNK N   1      34.666  16.711   9.172  0.00  0.00     0.015 A 
HETATM    2  C   UNK N   1      34.409  15.360   8.900  0.00  0.00     0.018 A 
HETATM    3  C   UNK N   1      34.798  14.366   9.794  0.00  0.00     0.038 A 
HETATM    4  C   UNK N   1      35.465  14.706  10.980  0.00  0.00     0.069 A 
HETATM    5  C   UNK N   1      35.725  16.049  11.260  0.00  0.00     0.038 A 
HETATM    6  C   UNK N   1      35.322  17.046  10.367  0.00  0.00     0.018 A 
ENDROOT
BRANCH   4   7
HETATM    7  O   UNK N   1      35.861  13.762  11.864  0.00  0.00    -0.348 OA
BRANCH   7   8
HETATM    8  C   UNK N   1      36.178  12.461  11.523  0.00  0.00     0.203 C 
BRANCH   8   9
HETATM    9  C   UNK N   1      35.545  11.481  12.472  0.00  0.00    -0.003 C 
HETATM   10  C   UNK N   1      35.950  11.250  13.735  0.00  0.00     0.001 C 
BRANCH  10  11
HETATM   11  C   UNK N   1      37.099  11.908  14.466  0.00  0.00     0.299 C 
BRANCH  11  12
HETATM   12  N   UNK N   1      36.685  12.715  15.621  0.00  0.00     0.092 N 
HETATM   13  C   UNK N   1      36.834  14.111  15.248  0.00  0.00     0.310 C 
BRANCH  12  14
HETATM   14  C   UNK N   1      35.306  12.528  16.121  0.00  0.00     0.223 A 
HETATM   15  C   UNK N   1      34.973  13.389  17.329  0.00  0.00     0.038 A 
HETATM   16  C   UNK N   1      35.245  11.903  17.506  0.00  0.00     0.038 A 
ENDBRANCH  12  14
ENDBRANCH  11  12
ENDBRANCH  10  11
ENDBRANCH   8   9
ENDBRANCH   7   8
ENDBRANCH   4   7
BRANCH   1  17
HETATM   17  C   UNK N   1      34.284  17.795   8.218  0.00  0.00     0.192 C 
HETATM   18  O   UNK N   1      34.874  18.862   8.287  0.00  0.00    -0.287 OA
BRANCH  17  19
HETATM   19  C   UNK N   1      33.262  17.615   7.141  0.00  0.00     0.015 A 
HETATM   20  C   UNK N   1      33.681  17.525   5.802  0.00  0.00     0.017 A 
HETATM   21  C   UNK N   1      32.755  17.278   4.784  0.00  0.00     0.020 A 
HETATM   22  C   UNK N   1      31.404  17.117   5.091  0.00  0.00     0.011 A 
HETATM   23 Br   UNK N   1      30.145  16.737   3.713  0.00  0.00    -0.051 Br
HETATM   24  C   UNK N   1      30.973  17.214   6.415  0.00  0.00     0.020 A 
HETATM   25  C   UNK N   1      31.899  17.460   7.430  0.00  0.00     0.017 A 
ENDBRANCH  17  19
ENDBRANCH   1  17
TORSDOF 8
ENDMDL
MODEL 7
REMARK VINA RESULT:      -5.6     17.223     20.377
REMARK  8 active torsions:
REMARK  status: ('A' for Active; 'I' for Inactive)
REMARK    1  A    between atoms: C_1  and  C_2 
REMARK    2  A    between atoms: C_2  and  C_4 
REMARK    3  A    between atoms: C_7  and  O_21 
REMARK    4  A    between atoms: C_8  and  C_9 
REMARK    5  A    between atoms: C_8  and  O_21 
REMARK    6  A    between atoms: C_10  and  C_11 
REMARK    7  A    between atoms: C_11  and  N_12 
REMARK    8  A    between atoms: N_12  and  C_14 
ROOT
HETATM    1  C   UNK N   1      34.775  16.748   8.891  0.00  0.00     0.015 A 
HETATM    2  C   UNK N   1      34.942  15.409   8.511  0.00  0.00     0.018 A 
HETATM    3  C   UNK N   1      35.376  14.456   9.429  0.00  0.00     0.038 A 
HETATM    4  C   UNK N   1      35.663  14.830  10.750  0.00  0.00     0.069 A 
HETATM    5  C   UNK N   1      35.498  16.161  11.138  0.00  0.00     0.038 A 
HETATM    6  C   UNK N   1      35.050  17.113  10.219  0.00  0.00     0.018 A 
ENDROOT
BRANCH   4   7
HETATM    7  O   UNK N   1      36.092  13.927  11.663  0.00  0.00    -0.348 OA
BRANCH   7   8
HETATM    8  C   UNK N   1      35.462  13.680  12.867  0.00  0.00     0.203 C 
BRANCH   8   9
HETATM    9  C   UNK N   1      36.435  13.746  14.012  0.00  0.00    -0.003 C 
HETATM   10  C   UNK N   1      36.152  13.433  15.291  0.00  0.00     0.001 C 
BRANCH  10  11
HETATM   11  C   UNK N   1      34.830  12.956  15.849  0.00  0.00     0.299 C 
BRANCH  11  12
HETATM   12  N   UNK N   1      34.791  11.517  16.140  0.00  0.00     0.092 N 
HETATM   13  C   UNK N   1      34.157  10.864  15.007  0.00  0.00     0.310 C 
BRANCH  12  14
HETATM   14  C   UNK N   1      36.082  10.838  16.384  0.00  0.00     0.223 A 
HETATM   15  C   UNK N   1      35.946   9.349  16.658  0.00  0.00     0.038 A 
HETATM   16  C   UNK N   1      36.228  10.309  17.802  0.00  0.00     0.038 A 
ENDBRANCH  12  14
ENDBRANCH  11  12
ENDBRANCH  10  11
ENDBRANCH   8   9
ENDBRANCH   7   8
ENDBRANCH   4   7
BRANCH   1  17
HETATM   17  C   UNK N   1      34.337  17.796   7.920  0.00  0.00     0.192 C 
HETATM   18  O   UNK N   1      34.962  18.844   7.878  0.00  0.00    -0.287 OA
BRANCH  17  19
HETATM   19  C   UNK N   1      33.215  17.597   6.952  0.00  0.00     0.015 A 
HETATM   20  C   UNK N   1      33.491  17.562   5.575  0.00  0.00     0.017 A 
HETATM   21  C   UNK N   1      32.473  17.300   4.652  0.00  0.00     0.020 A 
HETATM   22  C   UNK N   1      31.171  17.067   5.096  0.00  0.00     0.011 A 
HETATM   23 Br   UNK N   1      29.790  16.666   3.848  0.00  0.00    -0.051 Br
HETATM   24  C   UNK N   1      30.881  17.109   6.460  0.00  0.00     0.020 A 
HETATM   25  C   UNK N   1      31.898  17.370   7.379  0.00  0.00     0.017 A 
ENDBRANCH  17  19
ENDBRANCH   1  17
TORSDOF 8
ENDMDL
MODEL 8
REMARK VINA RESULT:      -5.5      3.640      6.648
REMARK  8 active torsions:
REMARK  status: ('A' for Active; 'I' for Inactive)
REMARK    1  A    between atoms: C_1  and  C_2 
REMARK    2  A    between atoms: C_2  and  C_4 
REMARK    3  A    between atoms: C_7  and  O_21 
REMARK    4  A    between atoms: C_8  and  C_9 
REMARK    5  A    between atoms: C_8  and  O_21 
REMARK    6  A    between atoms: C_10  and  C_11 
REMARK    7  A    between atoms: C_11  and  N_12 
REMARK    8  A    between atoms: N_12  and  C_14 
ROOT
HETATM    1  C   UNK N   1      26.944  24.020  -4.941  0.00  0.00     0.015 A 
HETATM    2  C   UNK N   1      25.826  23.610  -5.679  0.00  0.00     0.018 A 
HETATM    3  C   UNK N   1      25.971  22.812  -6.811  0.00  0.00     0.038 A 
HETATM    4  C   UNK N   1      27.248  22.416  -7.234  0.00  0.00     0.069 A 
HETATM    5  C   UNK N   1      28.368  22.819  -6.505  0.00  0.00     0.038 A 
HETATM    6  C   UNK N   1      28.219  23.609  -5.362  0.00  0.00     0.018 A 
ENDROOT
BRANCH   4   7
HETATM    7  O   UNK N   1      27.421  21.645  -8.333  0.00  0.00    -0.348 OA
BRANCH   7   8
HETATM    8  C   UNK N   1      28.627  21.088  -8.709  0.00  0.00     0.203 C 
BRANCH   8   9
HETATM    9  C   UNK N   1      28.845  19.759  -8.039  0.00  0.00    -0.003 C 
HETATM   10  C   UNK N   1      29.914  19.433  -7.290  0.00  0.00     0.001 C 
BRANCH  10  11
HETATM   11  C   UNK N   1      31.106  20.306  -6.960  0.00  0.00     0.299 C 
BRANCH  11  12
HETATM   12  N   UNK N   1      31.518  20.241  -5.552  0.00  0.00     0.092 N 
HETATM   13  C   UNK N   1      32.929  19.893  -5.531  0.00  0.00     0.310 C 
BRANCH  12  14
HETATM   14  C   UNK N   1      31.346  21.463  -4.737  0.00  0.00     0.223 A 
HETATM   15  C   UNK N   1      31.942  21.356  -3.343  0.00  0.00     0.038 A 
HETATM   16  C   UNK N   1      30.436  21.263  -3.535  0.00  0.00     0.038 A 
ENDBRANCH  12  14
ENDBRANCH  11  12
ENDBRANCH  10  11
ENDBRANCH   8   9
ENDBRANCH   7   8
ENDBRANCH   4   7
BRANCH   1  17
HETATM   17  C   UNK N   1      26.819  24.900  -3.739  0.00  0.00     0.192 C 
HETATM   18  O   UNK N   1      26.678  24.372  -2.647  0.00  0.00    -0.287 OA
BRANCH  17  19
HETATM   19  C   UNK N   1      26.922  26.390  -3.802  0.00  0.00     0.015 A 
HETATM   20  C   UNK N   1      28.170  26.984  -4.053  0.00  0.00     0.017 A 
HETATM   21  C   UNK N   1      28.282  28.371  -4.194  0.00  0.00     0.020 A 
HETATM   22  C   UNK N   1      27.147  29.178  -4.089  0.00  0.00     0.011 A 
HETATM   23 Br   UNK N   1      27.286  31.062  -4.324  0.00  0.00    -0.051 Br
HETATM   24  C   UNK N   1      25.904  28.602  -3.829  0.00  0.00     0.020 A 
HETATM   25  C   UNK N   1      25.794  27.217  -3.689  0.00  0.00     0.017 A 
ENDBRANCH  17  19
ENDBRANCH   1  17
TORSDOF 8
ENDMDL
MODEL 9
REMARK VINA RESULT:      -5.4     10.779     12.086
REMARK  8 active torsions:
REMARK  status: ('A' for Active; 'I' for Inactive)
REMARK    1  A    between atoms: C_1  and  C_2 
REMARK    2  A    between atoms: C_2  and  C_4 
REMARK    3  A    between atoms: C_7  and  O_21 
REMARK    4  A    between atoms: C_8  and  C_9 
REMARK    5  A    between atoms: C_8  and  O_21 
REMARK    6  A    between atoms: C_10  and  C_11 
REMARK    7  A    between atoms: C_11  and  N_12 
REMARK    8  A    between atoms: N_12  and  C_14 
ROOT
HETATM    1  C   UNK N   1      25.713  18.773   3.842  0.00  0.00     0.015 A 
HETATM    2  C   UNK N   1      24.450  18.317   4.243  0.00  0.00     0.018 A 
HETATM    3  C   UNK N   1      23.296  19.009   3.885  0.00  0.00     0.038 A 
HETATM    4  C   UNK N   1      23.385  20.184   3.124  0.00  0.00     0.069 A 
HETATM    5  C   UNK N   1      24.639  20.646   2.720  0.00  0.00     0.038 A 
HETATM    6  C   UNK N   1      25.796  19.943   3.070  0.00  0.00     0.018 A 
ENDROOT
BRANCH   4   7
HETATM    7  O   UNK N   1      22.282  20.880   2.767  0.00  0.00    -0.348 OA
BRANCH   7   8
HETATM    8  C   UNK N   1      20.990  20.410   2.896  0.00  0.00     0.203 C 
BRANCH   8   9
HETATM    9  C   UNK N   1      20.591  19.582   1.706  0.00  0.00    -0.003 C 
HETATM   10  C   UNK N   1      20.256  18.279   1.743  0.00  0.00     0.001 C 
BRANCH  10  11
HETATM   11  C   UNK N   1      20.203  17.378   2.958  0.00  0.00     0.299 C 
BRANCH  11  12
HETATM   12  N   UNK N   1      20.671  16.009   2.704  0.00  0.00     0.092 N 
HETATM   13  C   UNK N   1      19.678  15.103   3.257  0.00  0.00     0.310 C 
BRANCH  12  14
HETATM   14  C   UNK N   1      20.899  15.619   1.295  0.00  0.00     0.223 A 
HETATM   15  C   UNK N   1      20.652  14.145   1.023  0.00  0.00     0.038 A 
HETATM   16  C   UNK N   1      22.075  14.672   1.114  0.00  0.00     0.038 A 
ENDBRANCH  12  14
ENDBRANCH  11  12
ENDBRANCH  10  11
ENDBRANCH   8   9
ENDBRANCH   7   8
ENDBRANCH   4   7
BRANCH   1  17
HETATM   17  C   UNK N   1      26.970  18.066   4.236  0.00  0.00     0.192 C 
HETATM   18  O   UNK N   1      27.564  17.423   3.384  0.00  0.00    -0.287 OA
BRANCH  17  19
HETATM   19  C   UNK N   1      27.568  18.160   5.603  0.00  0.00     0.015 A 
HETATM   20  C   UNK N   1      28.324  17.085   6.100  0.00  0.00     0.017 A 
HETATM   21  C   UNK N   1      28.960  17.177   7.341  0.00  0.00     0.020 A 
HETATM   22  C   UNK N   1      28.850  18.345   8.098  0.00  0.00     0.011 A 
HETATM   23 Br   UNK N   1      29.751  18.493   9.769  0.00  0.00    -0.051 Br
HETATM   24  C   UNK N   1      28.095  19.416   7.621  0.00  0.00     0.020 A 
HETATM   25  C   UNK N   1      27.461  19.322   6.381  0.00  0.00     0.017 A 
ENDBRANCH  17  19
ENDBRANCH   1  17
TORSDOF 8
ENDMDL
