MODEL 1
REMARK VINA RESULT:      -8.3      0.000      0.000
REMARK  5 active torsions:
REMARK  status: ('A' for Active; 'I' for Inactive)
REMARK    1  A    between atoms: C_3  and  O_4 
REMARK    2  A    between atoms: O_4  and  C_5 
REMARK    3  A    between atoms: C_16  and  O_18 
REMARK    4  A    between atoms: O_18  and  C_19 
REMARK    5  A    between atoms: C_19  and  C_20 
ROOT
HETATM    1  C   UNK N   1      35.020  12.899  13.624  0.00  0.00     0.079 A 
HETATM    2  C   UNK N   1      35.928  13.750  14.161  0.00  0.00     0.060 A 
HETATM    3  C   UNK N   1      36.388  13.649  15.435  0.00  0.00     0.049 A 
HETATM    4  C   UNK N   1      37.129  14.778  15.910  0.00  0.00     0.099 C 
HETATM    5  N   UNK N   1      37.717  15.732  16.197  0.00  0.00    -0.191 NA
HETATM    6  C   UNK N   1      34.620  11.777  14.363  0.00  0.00     0.061 A 
HETATM    7  C   UNK N   1      35.138  11.594  15.660  0.00  0.00     0.038 A 
HETATM    8 Cl   UNK N   1      34.652  10.209  16.608  0.00  0.00    -0.084 Cl
HETATM    9  C   UNK N   1      36.000  12.560  16.218  0.00  0.00     0.046 A 
ENDROOT
BRANCH   1  10
HETATM   10  O   UNK N   1      34.478  13.187  12.427  0.00  0.00    -0.309 OA
BRANCH  10  11
HETATM   11  C   UNK N   1      35.030  13.790  11.322  0.00  0.00     0.100 A 
HETATM   12  C   UNK N   1      36.162  13.363  10.490  0.00  0.00     0.068 A 
HETATM   13 Cl   UNK N   1      37.342  12.080  10.716  0.00  0.00    -0.081 Cl
HETATM   14  C   UNK N   1      36.514  14.119   9.380  0.00  0.00     0.029 A 
HETATM   15  C   UNK N   1      35.911  15.321   9.125  0.00  0.00     0.038 A 
HETATM   16  C   UNK N   1      34.928  15.779   9.976  0.00  0.00     0.071 A 
HETATM   17  C   UNK N   1      34.458  15.011  11.021  0.00  0.00     0.075 A 
BRANCH  16  18
HETATM   18  O   UNK N   1      34.524  17.025   9.846  0.00  0.00    -0.345 OA
BRANCH  18  19
HETATM   19  C   UNK N   1      34.538  17.693   8.668  0.00  0.00     0.235 C 
BRANCH  19  20
HETATM   20  C   UNK N   1      33.186  17.449   8.160  0.00  0.00     0.064 A 
HETATM   21  N   UNK N   1      32.073  17.402   8.919  0.00  0.00    -0.300 N 
HETATM   22  N   UNK N   1      31.022  17.305   8.107  0.00  0.00    -0.284 N 
ATOM     23  HN  UNK N   1      32.040  17.436   9.938  1.00  0.00     0.186 HD
HETATM   24  C   UNK N   1      31.482  17.310   6.843  0.00  0.00     0.132 A 
HETATM   25  H   UNK N   1      30.079  17.240   8.382  0.00  0.00     0.188 HD
HETATM   26  N   UNK N   1      30.746  17.282   5.707  0.00  0.00    -0.351 N 
HETATM   27  C   UNK N   1      32.828  17.398   6.833  0.00  0.00     0.035 A 
HETATM   28  C   UNK N   1      31.394  17.346   4.501  0.00  0.00     0.090 A 
ATOM     29  HN  UNK N   1      29.730  17.216   5.748  1.00  0.00     0.166 HD
HETATM   30  C   UNK N   1      32.805  17.444   4.446  0.00  0.00     0.018 A 
HETATM   31  C   UNK N   1      33.545  17.474   5.640  0.00  0.00     0.019 A 
ENDBRANCH  19  20
ENDBRANCH  18  19
ENDBRANCH  16  18
ENDBRANCH  10  11
ENDBRANCH   1  10
TORSDOF 5
ENDMDL
MODEL 2
REMARK VINA RESULT:      -8.1     12.467     14.103
REMARK  5 active torsions:
REMARK  status: ('A' for Active; 'I' for Inactive)
REMARK    1  A    between atoms: C_3  and  O_4 
REMARK    2  A    between atoms: O_4  and  C_5 
REMARK    3  A    between atoms: C_16  and  O_18 
REMARK    4  A    between atoms: O_18  and  C_19 
REMARK    5  A    between atoms: C_19  and  C_20 
ROOT
HETATM    1  C   UNK N   1      21.469  13.122   9.149  0.00  0.00     0.079 A 
HETATM    2  C   UNK N   1      22.050  13.042  10.371  0.00  0.00     0.060 A 
HETATM    3  C   UNK N   1      22.962  12.092  10.707  0.00  0.00     0.049 A 
HETATM    4  C   UNK N   1      23.263  11.999  12.103  0.00  0.00     0.099 C 
HETATM    5  N   UNK N   1      23.442  12.008  13.247  0.00  0.00    -0.191 NA
HETATM    6  C   UNK N   1      21.913  12.269   8.129  0.00  0.00     0.061 A 
HETATM    7  C   UNK N   1      22.917  11.323   8.417  0.00  0.00     0.038 A 
HETATM    8 Cl   UNK N   1      23.485  10.242   7.168  0.00  0.00    -0.084 Cl
HETATM    9  C   UNK N   1      23.419  11.206   9.730  0.00  0.00     0.046 A 
ENDROOT
BRANCH   1  10
HETATM   10  O   UNK N   1      20.440  13.967   8.966  0.00  0.00    -0.309 OA
BRANCH  10  11
HETATM   11  C   UNK N   1      20.422  15.257   8.490  0.00  0.00     0.100 A 
HETATM   12  C   UNK N   1      19.490  16.352   8.787  0.00  0.00     0.068 A 
HETATM   13 Cl   UNK N   1      17.964  16.365   9.658  0.00  0.00    -0.081 Cl
HETATM   14  C   UNK N   1      19.703  17.600   8.219  0.00  0.00     0.029 A 
HETATM   15  C   UNK N   1      20.687  17.792   7.286  0.00  0.00     0.038 A 
HETATM   16  C   UNK N   1      21.488  16.732   6.919  0.00  0.00     0.071 A 
HETATM   17  C   UNK N   1      21.396  15.505   7.542  0.00  0.00     0.075 A 
BRANCH  16  18
HETATM   18  O   UNK N   1      22.269  16.876   5.869  0.00  0.00    -0.345 OA
BRANCH  18  19
HETATM   19  C   UNK N   1      22.181  16.097   4.765  0.00  0.00     0.235 C 
BRANCH  19  20
HETATM   20  C   UNK N   1      21.140  16.777   3.990  0.00  0.00     0.064 A 
HETATM   21  N   UNK N   1      19.882  16.322   3.821  0.00  0.00    -0.300 N 
HETATM   22  N   UNK N   1      19.184  17.262   3.188  0.00  0.00    -0.284 N 
ATOM     23  HN  UNK N   1      19.527  15.416   4.125  1.00  0.00     0.186 HD
HETATM   24  C   UNK N   1      20.004  18.309   2.980  0.00  0.00     0.132 A 
HETATM   25  H   UNK N   1      18.238  17.202   2.919  0.00  0.00     0.188 HD
HETATM   26  N   UNK N   1      19.683  19.496   2.416  0.00  0.00    -0.351 N 
HETATM   27  C   UNK N   1      21.234  18.045   3.466  0.00  0.00     0.035 A 
HETATM   28  C   UNK N   1      20.645  20.468   2.335  0.00  0.00     0.090 A 
ATOM     29  HN  UNK N   1      18.743  19.665   2.058  1.00  0.00     0.166 HD
HETATM   30  C   UNK N   1      21.948  20.235   2.837  0.00  0.00     0.018 A 
HETATM   31  C   UNK N   1      22.254  18.994   3.421  0.00  0.00     0.019 A 
ENDBRANCH  19  20
ENDBRANCH  18  19
ENDBRANCH  16  18
ENDBRANCH  10  11
ENDBRANCH   1  10
TORSDOF 5
ENDMDL
MODEL 3
REMARK VINA RESULT:      -8.1      1.828      2.490
REMARK  5 active torsions:
REMARK  status: ('A' for Active; 'I' for Inactive)
REMARK    1  A    between atoms: C_3  and  O_4 
REMARK    2  A    between atoms: O_4  and  C_5 
REMARK    3  A    between atoms: C_16  and  O_18 
REMARK    4  A    between atoms: O_18  and  C_19 
REMARK    5  A    between atoms: C_19  and  C_20 
ROOT
HETATM    1  C   UNK N   1      35.057  12.091  15.206  0.00  0.00     0.079 A 
HETATM    2  C   UNK N   1      35.298  13.120  16.054  0.00  0.00     0.060 A 
HETATM    3  C   UNK N   1      35.297  12.993  17.407  0.00  0.00     0.049 A 
HETATM    4  C   UNK N   1      35.305  14.224  18.137  0.00  0.00     0.099 C 
HETATM    5  N   UNK N   1      35.318  15.269  18.634  0.00  0.00    -0.191 NA
HETATM    6  C   UNK N   1      34.924  10.797  15.729  0.00  0.00     0.061 A 
HETATM    7  C   UNK N   1      34.998  10.612  17.124  0.00  0.00     0.038 A 
HETATM    8 Cl   UNK N   1      34.828   9.012  17.805  0.00  0.00    -0.084 Cl
HETATM    9  C   UNK N   1      35.146  11.727  17.975  0.00  0.00     0.046 A 
ENDROOT
BRANCH   1  10
HETATM   10  O   UNK N   1      34.885  12.345  13.897  0.00  0.00    -0.309 OA
BRANCH  10  11
HETATM   11  C   UNK N   1      35.811  12.528  12.898  0.00  0.00     0.100 A 
HETATM   12  C   UNK N   1      37.154  11.952  12.749  0.00  0.00     0.068 A 
HETATM   13 Cl   UNK N   1      38.142  11.021  13.865  0.00  0.00    -0.081 Cl
HETATM   14  C   UNK N   1      37.899  12.247  11.614  0.00  0.00     0.029 A 
HETATM   15  C   UNK N   1      37.458  13.166  10.700  0.00  0.00     0.038 A 
HETATM   16  C   UNK N   1      36.249  13.795  10.902  0.00  0.00     0.071 A 
HETATM   17  C   UNK N   1      35.417  13.449  11.947  0.00  0.00     0.075 A 
BRANCH  16  18
HETATM   18  O   UNK N   1      35.950  14.828  10.143  0.00  0.00    -0.345 OA
BRANCH  18  19
HETATM   19  C   UNK N   1      35.290  15.920  10.598  0.00  0.00     0.235 C 
BRANCH  19  20
HETATM   20  C   UNK N   1      33.977  15.771   9.968  0.00  0.00     0.064 A 
HETATM   21  N   UNK N   1      32.901  15.204  10.550  0.00  0.00    -0.300 N 
HETATM   22  N   UNK N   1      31.856  15.373   9.742  0.00  0.00    -0.284 N 
ATOM     23  HN  UNK N   1      32.888  14.729  11.452  1.00  0.00     0.186 HD
HETATM   24  C   UNK N   1      32.280  16.061   8.666  0.00  0.00     0.132 A 
HETATM   25  H   UNK N   1      30.939  15.051   9.902  0.00  0.00     0.188 HD
HETATM   26  N   UNK N   1      31.529  16.492   7.626  0.00  0.00    -0.351 N 
HETATM   27  C   UNK N   1      33.598  16.328   8.769  0.00  0.00     0.035 A 
HETATM   28  C   UNK N   1      32.131  17.227   6.639  0.00  0.00     0.090 A 
ATOM     29  HN  UNK N   1      30.534  16.273   7.578  1.00  0.00     0.166 HD
HETATM   30  C   UNK N   1      33.511  17.535   6.710  0.00  0.00     0.018 A 
HETATM   31  C   UNK N   1      34.267  17.078   7.803  0.00  0.00     0.019 A 
ENDBRANCH  19  20
ENDBRANCH  18  19
ENDBRANCH  16  18
ENDBRANCH  10  11
ENDBRANCH   1  10
TORSDOF 5
ENDMDL
MODEL 4
REMARK VINA RESULT:      -7.9     17.070     20.733
REMARK  5 active torsions:
REMARK  status: ('A' for Active; 'I' for Inactive)
REMARK    1  A    between atoms: C_3  and  O_4 
REMARK    2  A    between atoms: O_4  and  C_5 
REMARK    3  A    between atoms: C_16  and  O_18 
REMARK    4  A    between atoms: O_18  and  C_19 
REMARK    5  A    between atoms: C_19  and  C_20 
ROOT
HETATM    1  C   UNK N   1      29.165  22.005  -6.106  0.00  0.00     0.079 A 
HETATM    2  C   UNK N   1      29.460  22.522  -4.888  0.00  0.00     0.060 A 
HETATM    3  C   UNK N   1      30.565  22.181  -4.175  0.00  0.00     0.049 A 
HETATM    4  C   UNK N   1      30.575  22.618  -2.813  0.00  0.00     0.099 C 
HETATM    5  N   UNK N   1      30.489  23.020  -1.731  0.00  0.00    -0.191 NA
HETATM    6  C   UNK N   1      30.100  21.170  -6.733  0.00  0.00     0.061 A 
HETATM    7  C   UNK N   1      31.298  20.857  -6.059  0.00  0.00     0.038 A 
HETATM    8 Cl   UNK N   1      32.479  19.813  -6.813  0.00  0.00    -0.084 Cl
HETATM    9  C   UNK N   1      31.515  21.334  -4.750  0.00  0.00     0.046 A 
ENDROOT
BRANCH   1  10
HETATM   10  O   UNK N   1      27.960  22.250  -6.649  0.00  0.00    -0.309 OA
BRANCH  10  11
HETATM   11  C   UNK N   1      27.402  23.430  -7.080  0.00  0.00     0.100 A 
HETATM   12  C   UNK N   1      27.636  24.178  -8.322  0.00  0.00     0.068 A 
HETATM   13 Cl   UNK N   1      28.841  23.974  -9.584  0.00  0.00    -0.081 Cl
HETATM   14  C   UNK N   1      26.910  25.337  -8.565  0.00  0.00     0.029 A 
HETATM   15  C   UNK N   1      26.081  25.863  -7.611  0.00  0.00     0.038 A 
HETATM   16  C   UNK N   1      25.953  25.223  -6.397  0.00  0.00     0.071 A 
HETATM   17  C   UNK N   1      26.556  24.006  -6.152  0.00  0.00     0.075 A 
BRANCH  16  18
HETATM   18  O   UNK N   1      25.336  25.856  -5.421  0.00  0.00    -0.345 OA
BRANCH  18  19
HETATM   19  C   UNK N   1      24.852  27.115  -5.541  0.00  0.00     0.235 C 
BRANCH  19  20
HETATM   20  C   UNK N   1      25.697  27.860  -4.605  0.00  0.00     0.064 A 
HETATM   21  N   UNK N   1      25.589  27.813  -3.262  0.00  0.00    -0.300 N 
HETATM   22  N   UNK N   1      26.604  28.498  -2.741  0.00  0.00    -0.284 N 
ATOM     23  HN  UNK N   1      24.858  27.335  -2.736  1.00  0.00     0.186 HD
HETATM   24  C   UNK N   1      27.353  28.956  -3.761  0.00  0.00     0.132 A 
HETATM   25  H   UNK N   1      26.776  28.645  -1.782  0.00  0.00     0.188 HD
HETATM   26  N   UNK N   1      28.509  29.655  -3.674  0.00  0.00    -0.351 N 
HETATM   27  C   UNK N   1      26.820  28.579  -4.941  0.00  0.00     0.035 A 
HETATM   28  C   UNK N   1      29.161  29.994  -4.830  0.00  0.00     0.090 A 
ATOM     29  HN  UNK N   1      28.887  29.925  -2.766  1.00  0.00     0.166 HD
HETATM   30  C   UNK N   1      28.639  29.615  -6.090  0.00  0.00     0.018 A 
HETATM   31  C   UNK N   1      27.439  28.886  -6.152  0.00  0.00     0.019 A 
ENDBRANCH  19  20
ENDBRANCH  18  19
ENDBRANCH  16  18
ENDBRANCH  10  11
ENDBRANCH   1  10
TORSDOF 5
ENDMDL
MODEL 5
REMARK VINA RESULT:      -7.8      2.480      3.252
REMARK  5 active torsions:
REMARK  status: ('A' for Active; 'I' for Inactive)
REMARK    1  A    between atoms: C_3  and  O_4 
REMARK    2  A    between atoms: O_4  and  C_5 
REMARK    3  A    between atoms: C_16  and  O_18 
REMARK    4  A    between atoms: O_18  and  C_19 
REMARK    5  A    between atoms: C_19  and  C_20 
ROOT
HETATM    1  C   UNK N   1      34.717  12.214  14.916  0.00  0.00     0.079 A 
HETATM    2  C   UNK N   1      34.779  10.905  15.266  0.00  0.00     0.060 A 
HETATM    3  C   UNK N   1      35.066  10.478  16.523  0.00  0.00     0.049 A 
HETATM    4  C   UNK N   1      35.349   9.080  16.645  0.00  0.00     0.099 C 
HETATM    5  N   UNK N   1      35.557   7.942  16.640  0.00  0.00    -0.191 NA
HETATM    6  C   UNK N   1      34.826  13.190  15.916  0.00  0.00     0.061 A 
HETATM    7  C   UNK N   1      35.044  12.783  17.248  0.00  0.00     0.038 A 
HETATM    8 Cl   UNK N   1      35.192  13.977  18.515  0.00  0.00    -0.084 Cl
HETATM    9  C   UNK N   1      35.206  11.415  17.549  0.00  0.00     0.046 A 
ENDROOT
BRANCH   1  10
HETATM   10  O   UNK N   1      34.620  12.542  13.616  0.00  0.00    -0.309 OA
BRANCH  10  11
HETATM   11  C   UNK N   1      35.600  12.810  12.691  0.00  0.00     0.100 A 
HETATM   12  C   UNK N   1      36.926  12.200  12.527  0.00  0.00     0.068 A 
HETATM   13 Cl   UNK N   1      37.821  11.091  13.555  0.00  0.00    -0.081 Cl
HETATM   14  C   UNK N   1      37.736  12.605  11.475  0.00  0.00     0.029 A 
HETATM   15  C   UNK N   1      37.376  13.652  10.670  0.00  0.00     0.038 A 
HETATM   16  C   UNK N   1      36.183  14.302  10.898  0.00  0.00     0.071 A 
HETATM   17  C   UNK N   1      35.288  13.862  11.852  0.00  0.00     0.075 A 
BRANCH  16  18
HETATM   18  O   UNK N   1      35.961  15.436  10.267  0.00  0.00    -0.345 OA
BRANCH  18  19
HETATM   19  C   UNK N   1      35.231  16.449  10.793  0.00  0.00     0.235 C 
BRANCH  19  20
HETATM   20  C   UNK N   1      34.583  17.009   9.604  0.00  0.00     0.064 A 
HETATM   21  N   UNK N   1      34.936  18.163   9.004  0.00  0.00    -0.300 N 
HETATM   22  N   UNK N   1      34.229  18.280   7.882  0.00  0.00    -0.284 N 
ATOM     23  HN  UNK N   1      35.625  18.832   9.348  1.00  0.00     0.186 HD
HETATM   24  C   UNK N   1      33.449  17.189   7.777  0.00  0.00     0.132 A 
HETATM   25  H   UNK N   1      34.268  19.030   7.245  0.00  0.00     0.188 HD
HETATM   26  N   UNK N   1      32.612  16.880   6.759  0.00  0.00    -0.351 N 
HETATM   27  C   UNK N   1      33.640  16.371   8.833  0.00  0.00     0.035 A 
HETATM   28  C   UNK N   1      31.932  15.691   6.804  0.00  0.00     0.090 A 
ATOM     29  HN  UNK N   1      32.489  17.519   5.975  1.00  0.00     0.166 HD
HETATM   30  C   UNK N   1      32.107  14.801   7.891  0.00  0.00     0.018 A 
HETATM   31  C   UNK N   1      32.985  15.145   8.933  0.00  0.00     0.019 A 
ENDBRANCH  19  20
ENDBRANCH  18  19
ENDBRANCH  16  18
ENDBRANCH  10  11
ENDBRANCH   1  10
TORSDOF 5
ENDMDL
MODEL 6
REMARK VINA RESULT:      -7.8      8.788     13.827
REMARK  5 active torsions:
REMARK  status: ('A' for Active; 'I' for Inactive)
REMARK    1  A    between atoms: C_3  and  O_4 
REMARK    2  A    between atoms: O_4  and  C_5 
REMARK    3  A    between atoms: C_16  and  O_18 
REMARK    4  A    between atoms: O_18  and  C_19 
REMARK    5  A    between atoms: C_19  and  C_20 
ROOT
HETATM    1  C   UNK N   1      21.926  16.310   3.362  0.00  0.00     0.079 A 
HETATM    2  C   UNK N   1      21.511  17.558   3.693  0.00  0.00     0.060 A 
HETATM    3  C   UNK N   1      20.564  18.242   3.000  0.00  0.00     0.049 A 
HETATM    4  C   UNK N   1      20.448  19.630   3.329  0.00  0.00     0.099 C 
HETATM    5  N   UNK N   1      20.428  20.735   3.669  0.00  0.00    -0.191 NA
HETATM    6  C   UNK N   1      21.265  15.626   2.332  0.00  0.00     0.061 A 
HETATM    7  C   UNK N   1      20.221  16.273   1.642  0.00  0.00     0.038 A 
HETATM    8 Cl   UNK N   1      19.384  15.448   0.349  0.00  0.00    -0.084 Cl
HETATM    9  C   UNK N   1      19.893  17.609   1.951  0.00  0.00     0.046 A 
ENDROOT
BRANCH   1  10
HETATM   10  O   UNK N   1      22.999  15.789   3.982  0.00  0.00    -0.309 OA
BRANCH  10  11
HETATM   11  C   UNK N   1      24.339  16.026   3.790  0.00  0.00     0.100 A 
HETATM   12  C   UNK N   1      25.213  15.616   2.683  0.00  0.00     0.068 A 
HETATM   13 Cl   UNK N   1      24.940  14.512   1.343  0.00  0.00    -0.081 Cl
HETATM   14  C   UNK N   1      26.542  16.019   2.680  0.00  0.00     0.029 A 
HETATM   15  C   UNK N   1      27.082  16.678   3.752  0.00  0.00     0.038 A 
HETATM   16  C   UNK N   1      26.288  16.959   4.844  0.00  0.00     0.071 A 
HETATM   17  C   UNK N   1      24.935  16.688   4.845  0.00  0.00     0.075 A 
BRANCH  16  18
HETATM   18  O   UNK N   1      26.871  17.384   5.945  0.00  0.00    -0.345 OA
BRANCH  18  19
HETATM   19  C   UNK N   1      27.461  18.599   6.052  0.00  0.00     0.235 C 
BRANCH  19  20
HETATM   20  C   UNK N   1      28.184  18.479   7.320  0.00  0.00     0.064 A 
HETATM   21  N   UNK N   1      27.705  18.861   8.521  0.00  0.00    -0.300 N 
HETATM   22  N   UNK N   1      28.570  18.471   9.455  0.00  0.00    -0.284 N 
ATOM     23  HN  UNK N   1      26.832  19.361   8.687  1.00  0.00     0.186 HD
HETATM   24  C   UNK N   1      29.578  17.831   8.835  0.00  0.00     0.132 A 
HETATM   25  H   UNK N   1      28.488  18.625  10.424  0.00  0.00     0.188 HD
HETATM   26  N   UNK N   1      30.641  17.229   9.417  0.00  0.00    -0.351 N 
HETATM   27  C   UNK N   1      29.375  17.814   7.502  0.00  0.00     0.035 A 
HETATM   28  C   UNK N   1      31.546  16.578   8.620  0.00  0.00     0.090 A 
ATOM     29  HN  UNK N   1      30.767  17.258  10.428  1.00  0.00     0.166 HD
HETATM   30  C   UNK N   1      31.368  16.532   7.216  0.00  0.00     0.018 A 
HETATM   31  C   UNK N   1      30.254  17.163   6.638  0.00  0.00     0.019 A 
ENDBRANCH  19  20
ENDBRANCH  18  19
ENDBRANCH  16  18
ENDBRANCH  10  11
ENDBRANCH   1  10
TORSDOF 5
ENDMDL
MODEL 7
REMARK VINA RESULT:      -7.7      7.982     11.589
REMARK  5 active torsions:
REMARK  status: ('A' for Active; 'I' for Inactive)
REMARK    1  A    between atoms: C_3  and  O_4 
REMARK    2  A    between atoms: O_4  and  C_5 
REMARK    3  A    between atoms: C_16  and  O_18 
REMARK    4  A    between atoms: O_18  and  C_19 
REMARK    5  A    between atoms: C_19  and  C_20 
ROOT
HETATM    1  C   UNK N   1      29.547  17.183   5.881  0.00  0.00     0.079 A 
HETATM    2  C   UNK N   1      30.902  17.133   5.857  0.00  0.00     0.060 A 
HETATM    3  C   UNK N   1      31.680  17.368   6.945  0.00  0.00     0.049 A 
HETATM    4  C   UNK N   1      33.076  17.534   6.676  0.00  0.00     0.099 C 
HETATM    5  N   UNK N   1      34.182  17.648   6.355  0.00  0.00    -0.191 NA
HETATM    6  C   UNK N   1      28.896  17.358   7.109  0.00  0.00     0.061 A 
HETATM    7  C   UNK N   1      29.669  17.523   8.276  0.00  0.00     0.038 A 
HETATM    8 Cl   UNK N   1      28.885  17.751   9.820  0.00  0.00    -0.084 Cl
HETATM    9  C   UNK N   1      31.076  17.569   8.188  0.00  0.00     0.046 A 
ENDROOT
BRANCH   1  10
HETATM   10  O   UNK N   1      28.868  17.131   4.721  0.00  0.00    -0.309 OA
BRANCH  10  11
HETATM   11  C   UNK N   1      27.698  17.749   4.348  0.00  0.00     0.100 A 
HETATM   12  C   UNK N   1      27.328  19.169   4.409  0.00  0.00     0.068 A 
HETATM   13 Cl   UNK N   1      28.127  20.539   5.166  0.00  0.00    -0.081 Cl
HETATM   14  C   UNK N   1      26.092  19.571   3.921  0.00  0.00     0.029 A 
HETATM   15  C   UNK N   1      25.163  18.654   3.509  0.00  0.00     0.038 A 
HETATM   16  C   UNK N   1      25.468  17.311   3.563  0.00  0.00     0.071 A 
HETATM   17  C   UNK N   1      26.724  16.866   3.923  0.00  0.00     0.075 A 
BRANCH  16  18
HETATM   18  O   UNK N   1      24.495  16.443   3.379  0.00  0.00    -0.345 OA
BRANCH  18  19
HETATM   19  C   UNK N   1      23.476  16.273   4.255  0.00  0.00     0.235 C 
BRANCH  19  20
HETATM   20  C   UNK N   1      22.301  16.408   3.391  0.00  0.00     0.064 A 
HETATM   21  N   UNK N   1      21.715  15.396   2.722  0.00  0.00    -0.300 N 
HETATM   22  N   UNK N   1      20.601  15.861   2.161  0.00  0.00    -0.284 N 
ATOM     23  HN  UNK N   1      22.062  14.440   2.656  1.00  0.00     0.186 HD
HETATM   24  C   UNK N   1      20.486  17.159   2.497  0.00  0.00     0.132 A 
HETATM   25  H   UNK N   1      19.974  15.349   1.600  0.00  0.00     0.188 HD
HETATM   26  N   UNK N   1      19.471  17.997   2.181  0.00  0.00    -0.351 N 
HETATM   27  C   UNK N   1      21.529  17.539   3.264  0.00  0.00     0.035 A 
HETATM   28  C   UNK N   1      19.504  19.280   2.660  0.00  0.00     0.090 A 
ATOM     29  HN  UNK N   1      18.696  17.679   1.600  1.00  0.00     0.166 HD
HETATM   30  C   UNK N   1      20.577  19.719   3.473  0.00  0.00     0.018 A 
HETATM   31  C   UNK N   1      21.617  18.828   3.788  0.00  0.00     0.019 A 
ENDBRANCH  19  20
ENDBRANCH  18  19
ENDBRANCH  16  18
ENDBRANCH  10  11
ENDBRANCH   1  10
TORSDOF 5
ENDMDL
MODEL 8
REMARK VINA RESULT:      -7.7     11.351     14.849
REMARK  5 active torsions:
REMARK  status: ('A' for Active; 'I' for Inactive)
REMARK    1  A    between atoms: C_3  and  O_4 
REMARK    2  A    between atoms: O_4  and  C_5 
REMARK    3  A    between atoms: C_16  and  O_18 
REMARK    4  A    between atoms: O_18  and  C_19 
REMARK    5  A    between atoms: C_19  and  C_20 
ROOT
HETATM    1  C   UNK N   1      22.730  18.190   4.943  0.00  0.00     0.079 A 
HETATM    2  C   UNK N   1      23.679  19.001   4.414  0.00  0.00     0.060 A 
HETATM    3  C   UNK N   1      23.442  19.864   3.392  0.00  0.00     0.049 A 
HETATM    4  C   UNK N   1      24.609  20.438   2.793  0.00  0.00     0.099 C 
HETATM    5  N   UNK N   1      25.609  20.849   2.382  0.00  0.00    -0.191 NA
HETATM    6  C   UNK N   1      21.403  18.327   4.513  0.00  0.00     0.061 A 
HETATM    7  C   UNK N   1      21.103  19.270   3.510  0.00  0.00     0.038 A 
HETATM    8 Cl   UNK N   1      19.460  19.458   2.948  0.00  0.00    -0.084 Cl
HETATM    9  C   UNK N   1      22.139  20.019   2.915  0.00  0.00     0.046 A 
ENDROOT
BRANCH   1  10
HETATM   10  O   UNK N   1      23.095  17.233   5.815  0.00  0.00    -0.309 OA
BRANCH  10  11
HETATM   11  C   UNK N   1      23.220  15.875   5.644  0.00  0.00     0.100 A 
HETATM   12  C   UNK N   1      22.550  14.987   4.686  0.00  0.00     0.068 A 
HETATM   13 Cl   UNK N   1      21.213  15.275   3.583  0.00  0.00    -0.081 Cl
HETATM   14  C   UNK N   1      22.877  13.637   4.666  0.00  0.00     0.029 A 
HETATM   15  C   UNK N   1      23.711  13.099   5.609  0.00  0.00     0.038 A 
HETATM   16  C   UNK N   1      24.248  13.915   6.582  0.00  0.00     0.071 A 
HETATM   17  C   UNK N   1      24.052  15.281   6.572  0.00  0.00     0.075 A 
BRANCH  16  18
HETATM   18  O   UNK N   1      24.858  13.348   7.602  0.00  0.00    -0.345 OA
BRANCH  18  19
HETATM   19  C   UNK N   1      25.149  14.004   8.751  0.00  0.00     0.235 C 
BRANCH  19  20
HETATM   20  C   UNK N   1      24.481  13.174   9.756  0.00  0.00     0.064 A 
HETATM   21  N   UNK N   1      25.107  12.501  10.742  0.00  0.00    -0.300 N 
HETATM   22  N   UNK N   1      24.180  11.980  11.542  0.00  0.00    -0.284 N 
ATOM     23  HN  UNK N   1      26.116  12.407  10.857  1.00  0.00     0.186 HD
HETATM   24  C   UNK N   1      22.976  12.344  11.062  0.00  0.00     0.132 A 
HETATM   25  H   UNK N   1      24.343  11.426  12.339  0.00  0.00     0.188 HD
HETATM   26  N   UNK N   1      21.766  12.073  11.604  0.00  0.00    -0.351 N 
HETATM   27  C   UNK N   1      23.122  13.090   9.948  0.00  0.00     0.035 A 
HETATM   28  C   UNK N   1      20.645  12.575  10.996  0.00  0.00     0.090 A 
ATOM     29  HN  UNK N   1      21.690  11.506  12.448  1.00  0.00     0.166 HD
HETATM   30  C   UNK N   1      20.753  13.367   9.828  0.00  0.00     0.018 A 
HETATM   31  C   UNK N   1      22.022  13.636   9.287  0.00  0.00     0.019 A 
ENDBRANCH  19  20
ENDBRANCH  18  19
ENDBRANCH  16  18
ENDBRANCH  10  11
ENDBRANCH   1  10
TORSDOF 5
ENDMDL
MODEL 9
REMARK VINA RESULT:      -7.7     11.776     15.373
REMARK  5 active torsions:
REMARK  status: ('A' for Active; 'I' for Inactive)
REMARK    1  A    between atoms: C_3  and  O_4 
REMARK    2  A    between atoms: O_4  and  C_5 
REMARK    3  A    between atoms: C_16  and  O_18 
REMARK    4  A    between atoms: O_18  and  C_19 
REMARK    5  A    between atoms: C_19  and  C_20 
ROOT
HETATM    1  C   UNK N   1      22.219  16.251   3.633  0.00  0.00     0.079 A 
HETATM    2  C   UNK N   1      21.536  17.410   3.460  0.00  0.00     0.060 A 
HETATM    3  C   UNK N   1      22.080  18.638   3.665  0.00  0.00     0.049 A 
HETATM    4  C   UNK N   1      21.148  19.723   3.695  0.00  0.00     0.099 C 
HETATM    5  N   UNK N   1      20.318  20.530   3.696  0.00  0.00    -0.191 NA
HETATM    6  C   UNK N   1      23.591  16.307   3.913  0.00  0.00     0.061 A 
HETATM    7  C   UNK N   1      24.210  17.565   4.052  0.00  0.00     0.038 A 
HETATM    8 Cl   UNK N   1      25.918  17.666   4.408  0.00  0.00    -0.084 Cl
HETATM    9  C   UNK N   1      23.439  18.743   3.967  0.00  0.00     0.046 A 
ENDROOT
BRANCH   1  10
HETATM   10  O   UNK N   1      21.551  15.085   3.598  0.00  0.00    -0.309 OA
BRANCH  10  11
HETATM   11  C   UNK N   1      21.539  14.040   4.491  0.00  0.00     0.100 A 
HETATM   12  C   UNK N   1      21.896  12.630   4.287  0.00  0.00     0.068 A 
HETATM   13 Cl   UNK N   1      22.244  11.727   2.821  0.00  0.00    -0.081 Cl
HETATM   14  C   UNK N   1      21.853  11.755   5.365  0.00  0.00     0.029 A 
HETATM   15  C   UNK N   1      21.359  12.153   6.578  0.00  0.00     0.038 A 
HETATM   16  C   UNK N   1      20.913  13.447   6.735  0.00  0.00     0.071 A 
HETATM   17  C   UNK N   1      21.047  14.387   5.734  0.00  0.00     0.075 A 
BRANCH  16  18
HETATM   18  O   UNK N   1      20.239  13.746   7.826  0.00  0.00    -0.345 OA
BRANCH  18  19
HETATM   19  C   UNK N   1      20.705  14.586   8.781  0.00  0.00     0.235 C 
BRANCH  19  20
HETATM   20  C   UNK N   1      21.048  13.661   9.864  0.00  0.00     0.064 A 
HETATM   21  N   UNK N   1      20.154  13.028  10.650  0.00  0.00    -0.300 N 
HETATM   22  N   UNK N   1      20.817  12.167  11.420  0.00  0.00    -0.284 N 
ATOM     23  HN  UNK N   1      19.146  13.180  10.655  1.00  0.00     0.186 HD
HETATM   24  C   UNK N   1      22.121  12.254  11.099  0.00  0.00     0.132 A 
HETATM   25  H   UNK N   1      20.425  11.575  12.102  0.00  0.00     0.188 HD
HETATM   26  N   UNK N   1      23.136  11.514  11.604  0.00  0.00    -0.351 N 
HETATM   27  C   UNK N   1      22.306  13.176  10.132  0.00  0.00     0.035 A 
HETATM   28  C   UNK N   1      24.400  11.711  11.114  0.00  0.00     0.090 A 
ATOM     29  HN  UNK N   1      22.963  10.824  12.334  1.00  0.00     0.166 HD
HETATM   30  C   UNK N   1      24.638  12.664  10.095  0.00  0.00     0.018 A 
HETATM   31  C   UNK N   1      23.566  13.417   9.586  0.00  0.00     0.019 A 
ENDBRANCH  19  20
ENDBRANCH  18  19
ENDBRANCH  16  18
ENDBRANCH  10  11
ENDBRANCH   1  10
TORSDOF 5
ENDMDL
