REMARK  5 active torsions:
REMARK  status: ('A' for Active; 'I' for Inactive)
REMARK    1  A    between atoms: C_3  and  O_4 
REMARK    2  A    between atoms: O_4  and  C_5 
REMARK    3  A    between atoms: C_16  and  O_18 
REMARK    4  A    between atoms: O_18  and  C_19 
REMARK    5  A    between atoms: C_19  and  C_20 
ROOT
HETATM    1  C   UNK N   1      -2.931  -2.478  -0.086  0.00  0.00     0.079 A 
HETATM    2  C   UNK N   1      -2.222  -3.615  -0.292  0.00  0.00     0.060 A 
HETATM    3  C   UNK N   1      -2.774  -4.856  -0.275  0.00  0.00     0.049 A 
HETATM    4  C   UNK N   1      -1.841  -5.941  -0.245  0.00  0.00     0.099 C 
HETATM    5  N   UNK N   1      -1.009  -6.745  -0.227  0.00  0.00    -0.191 NA
HETATM    6  C   UNK N   1      -4.326  -2.558   0.025  0.00  0.00     0.061 A 
HETATM    7  C   UNK N   1      -4.945  -3.823  -0.034  0.00  0.00     0.038 A 
HETATM    8 Cl   UNK N   1      -6.681  -3.955   0.109  0.00  0.00    -0.084 Cl
HETATM    9  C   UNK N   1      -4.158  -4.988  -0.145  0.00  0.00     0.046 A 
ENDROOT
BRANCH   1  10
HETATM   10  O   UNK N   1      -2.275  -1.315   0.073  0.00  0.00    -0.309 OA
BRANCH  10  11
HETATM   11  C   UNK N   1      -0.927  -1.058   0.153  0.00  0.00     0.100 A 
HETATM   12  C   UNK N   1       0.190  -1.982   0.386  0.00  0.00     0.068 A 
HETATM   13 Cl   UNK N   1       0.210  -3.674   0.860  0.00  0.00    -0.081 Cl
HETATM   14  C   UNK N   1       1.490  -1.494   0.376  0.00  0.00     0.029 A 
HETATM   15  C   UNK N   1       1.739  -0.151   0.285  0.00  0.00     0.038 A 
HETATM   16  C   UNK N   1       0.682   0.728   0.185  0.00  0.00     0.071 A 
HETATM   17  C   UNK N   1      -0.620   0.286   0.068  0.00  0.00     0.075 A 
BRANCH  16  18
HETATM   18  O   UNK N   1       0.926   2.014   0.326  0.00  0.00    -0.345 OA
BRANCH  18  19
HETATM   19  C   UNK N   1       0.536   2.948  -0.574  0.00  0.00     0.235 C 
BRANCH  19  20
HETATM   20  C   UNK N   1       1.574   3.971  -0.425  0.00  0.00     0.064 A 
HETATM   21  N   UNK N   1       1.341   5.285  -0.235  0.00  0.00    -0.300 N 
HETATM   22  N   UNK N   1       2.507   5.883  -0.001  0.00  0.00    -0.284 N 
ATOM     23  HN  UNK N   1       0.430   5.743  -0.265  1.00  0.00     0.186 HD
HETATM   24  C   UNK N   1       3.463   4.936  -0.028  0.00  0.00     0.132 A 
HETATM   25  H   UNK N   1       2.646   6.844   0.161  0.00  0.00     0.188 HD
HETATM   26  N   UNK N   1       4.784   5.104   0.214  0.00  0.00    -0.351 N 
HETATM   27  C   UNK N   1       2.921   3.729  -0.290  0.00  0.00     0.035 A 
HETATM   28  C   UNK N   1       5.602   4.005   0.191  0.00  0.00     0.090 A 
ATOM     29  HN  UNK N   1       5.163   6.030   0.410  1.00  0.00     0.166 HD
HETATM   30  C   UNK N   1       5.074   2.719  -0.075  0.00  0.00     0.018 A 
HETATM   31  C   UNK N   1       3.698   2.572  -0.320  0.00  0.00     0.019 A 
ENDBRANCH  19  20
ENDBRANCH  18  19
ENDBRANCH  16  18
ENDBRANCH  10  11
ENDBRANCH   1  10
TORSDOF 5
