MODEL 1
REMARK VINA RESULT:      -8.8      0.000      0.000
REMARK  6 active torsions:
REMARK  status: ('A' for Active; 'I' for Inactive)
REMARK    1  A    between atoms: C_3  and  O_4 
REMARK    2  A    between atoms: O_4  and  C_5 
REMARK    3  A    between atoms: C_16  and  O_18 
REMARK    4  A    between atoms: O_18  and  C_19 
REMARK    5  A    between atoms: C_19  and  C_20 
REMARK    6  A    between atoms: C_27  and  N_28 
ROOT
HETATM    1  C   UNK N   1      35.857  13.714  14.170  0.00  0.00     0.079 A 
HETATM    2  C   UNK N   1      35.936  13.917  15.508  0.00  0.00     0.060 A 
HETATM    3  C   UNK N   1      35.368  13.092  16.426  0.00  0.00     0.049 A 
HETATM    4  C   UNK N   1      35.332  13.600  17.764  0.00  0.00     0.099 C 
HETATM    5  N   UNK N   1      35.358  14.093  18.810  0.00  0.00    -0.191 NA
HETATM    6  C   UNK N   1      35.268  12.534  13.695  0.00  0.00     0.061 A 
HETATM    7  C   UNK N   1      34.736  11.616  14.621  0.00  0.00     0.038 A 
HETATM    8 Cl   UNK N   1      33.982  10.144  14.057  0.00  0.00    -0.084 Cl
HETATM    9  C   UNK N   1      34.751  11.915  15.999  0.00  0.00     0.046 A 
ENDROOT
BRANCH   1  10
HETATM   10  O   UNK N   1      36.277  14.676  13.335  0.00  0.00    -0.309 OA
BRANCH  10  11
HETATM   11  C   UNK N   1      36.174  14.786  11.969  0.00  0.00     0.100 A 
HETATM   12  C   UNK N   1      36.839  14.017  10.909  0.00  0.00     0.068 A 
HETATM   13 Cl   UNK N   1      38.131  12.829  10.972  0.00  0.00    -0.081 Cl
HETATM   14  C   UNK N   1      36.540  14.293   9.581  0.00  0.00     0.029 A 
HETATM   15  C   UNK N   1      35.734  15.345   9.241  0.00  0.00     0.038 A 
HETATM   16  C   UNK N   1      35.194  16.132  10.236  0.00  0.00     0.071 A 
HETATM   17  C   UNK N   1      35.367  15.831  11.571  0.00  0.00     0.075 A 
BRANCH  16  18
HETATM   18  O   UNK N   1      34.581  17.242   9.889  0.00  0.00    -0.345 OA
BRANCH  18  19
HETATM   19  C   UNK N   1      34.579  17.719   8.620  0.00  0.00     0.235 C 
BRANCH  19  20
HETATM   20  C   UNK N   1      33.215  17.431   8.181  0.00  0.00     0.064 A 
HETATM   21  N   UNK N   1      32.140  17.378   8.993  0.00  0.00    -0.300 N 
HETATM   22  N   UNK N   1      31.056  17.243   8.234  0.00  0.00    -0.284 N 
ATOM     23  HN  UNK N   1      32.156  17.433  10.011  1.00  0.00     0.186 HD
HETATM   24  C   UNK N   1      31.456  17.231   6.950  0.00  0.00     0.134 A 
HETATM   25  H   UNK N   1      30.127  17.166   8.555  0.00  0.00     0.188 HD
HETATM   26  N   UNK N   1      30.667  17.172   5.853  0.00  0.00    -0.327 N 
HETATM   27  C   UNK N   1      32.796  17.343   6.873  0.00  0.00     0.036 A 
HETATM   28  C   UNK N   1      31.251  17.226   4.616  0.00  0.00     0.100 A 
ATOM     29  HN  UNK N   1      29.654  17.088   5.945  1.00  0.00     0.169 HD
HETATM   30  C   UNK N   1      32.657  17.346   4.490  0.00  0.00     0.049 A 
HETATM   31  C   UNK N   1      33.453  17.409   5.645  0.00  0.00     0.021 A 
BRANCH  28  32
HETATM   32  N   UNK N   1      30.449  17.174   3.462  0.00  0.00    -0.385 N 
HETATM   33  H   UNK N   1      30.663  16.554   2.727  0.00  0.00     0.157 HD
HETATM   34  H   UNK N   1      29.665  17.764   3.387  0.00  0.00     0.157 HD
ENDBRANCH  28  32
ENDBRANCH  19  20
ENDBRANCH  18  19
ENDBRANCH  16  18
ENDBRANCH  10  11
ENDBRANCH   1  10
TORSDOF 6
ENDMDL
MODEL 2
REMARK VINA RESULT:      -8.4     12.641     14.363
REMARK  6 active torsions:
REMARK  status: ('A' for Active; 'I' for Inactive)
REMARK    1  A    between atoms: C_3  and  O_4 
REMARK    2  A    between atoms: O_4  and  C_5 
REMARK    3  A    between atoms: C_16  and  O_18 
REMARK    4  A    between atoms: O_18  and  C_19 
REMARK    5  A    between atoms: C_19  and  C_20 
REMARK    6  A    between atoms: C_27  and  N_28 
ROOT
HETATM    1  C   UNK N   1      21.140  13.084   8.758  0.00  0.00     0.079 A 
HETATM    2  C   UNK N   1      21.850  12.325   7.888  0.00  0.00     0.060 A 
HETATM    3  C   UNK N   1      22.923  11.574   8.252  0.00  0.00     0.049 A 
HETATM    4  C   UNK N   1      23.699  11.051   7.169  0.00  0.00     0.099 C 
HETATM    5  N   UNK N   1      24.254  10.670   6.228  0.00  0.00    -0.191 NA
HETATM    6  C   UNK N   1      21.436  13.009  10.126  0.00  0.00     0.061 A 
HETATM    7  C   UNK N   1      22.493  12.181  10.551  0.00  0.00     0.038 A 
HETATM    8 Cl   UNK N   1      22.895  12.080  12.249  0.00  0.00    -0.084 Cl
HETATM    9  C   UNK N   1      23.270  11.486   9.602  0.00  0.00     0.046 A 
ENDROOT
BRANCH   1  10
HETATM   10  O   UNK N   1      20.222  13.940   8.283  0.00  0.00    -0.309 OA
BRANCH  10  11
HETATM   11  C   UNK N   1      20.276  15.301   8.099  0.00  0.00     0.100 A 
HETATM   12  C   UNK N   1      19.445  16.363   8.680  0.00  0.00     0.068 A 
HETATM   13 Cl   UNK N   1      17.984  16.294   9.653  0.00  0.00    -0.081 Cl
HETATM   14  C   UNK N   1      19.720  17.688   8.366  0.00  0.00     0.029 A 
HETATM   15  C   UNK N   1      20.667  18.012   7.433  0.00  0.00     0.038 A 
HETATM   16  C   UNK N   1      21.373  17.006   6.810  0.00  0.00     0.071 A 
HETATM   17  C   UNK N   1      21.219  15.683   7.169  0.00  0.00     0.075 A 
BRANCH  16  18
HETATM   18  O   UNK N   1      22.139  17.323   5.789  0.00  0.00    -0.345 OA
BRANCH  18  19
HETATM   19  C   UNK N   1      22.315  16.511   4.717  0.00  0.00     0.235 C 
BRANCH  19  20
HETATM   20  C   UNK N   1      21.336  17.036   3.767  0.00  0.00     0.064 A 
HETATM   21  N   UNK N   1      20.166  16.443   3.459  0.00  0.00    -0.300 N 
HETATM   22  N   UNK N   1      19.473  17.273   2.683  0.00  0.00    -0.284 N 
ATOM     23  HN  UNK N   1      19.864  15.519   3.768  1.00  0.00     0.186 HD
HETATM   24  C   UNK N   1      20.206  18.389   2.524  0.00  0.00     0.134 A 
HETATM   25  H   UNK N   1      18.584  17.100   2.295  0.00  0.00     0.188 HD
HETATM   26  N   UNK N   1      19.846  19.509   1.857  0.00  0.00    -0.327 N 
HETATM   27  C   UNK N   1      21.376  18.281   3.182  0.00  0.00     0.036 A 
HETATM   28  C   UNK N   1      20.705  20.576   1.848  0.00  0.00     0.100 A 
ATOM     29  HN  UNK N   1      18.952  19.559   1.369  1.00  0.00     0.169 HD
HETATM   30  C   UNK N   1      21.945  20.507   2.529  0.00  0.00     0.049 A 
HETATM   31  C   UNK N   1      22.293  19.332   3.217  0.00  0.00     0.021 A 
BRANCH  28  32
HETATM   32  N   UNK N   1      20.348  21.754   1.167  0.00  0.00    -0.385 N 
HETATM   33  H   UNK N   1      19.722  22.399   1.571  0.00  0.00     0.157 HD
HETATM   34  H   UNK N   1      20.726  21.935   0.277  0.00  0.00     0.157 HD
ENDBRANCH  28  32
ENDBRANCH  19  20
ENDBRANCH  18  19
ENDBRANCH  16  18
ENDBRANCH  10  11
ENDBRANCH   1  10
TORSDOF 6
ENDMDL
MODEL 3
REMARK VINA RESULT:      -8.3      2.098      2.728
REMARK  6 active torsions:
REMARK  status: ('A' for Active; 'I' for Inactive)
REMARK    1  A    between atoms: C_3  and  O_4 
REMARK    2  A    between atoms: O_4  and  C_5 
REMARK    3  A    between atoms: C_16  and  O_18 
REMARK    4  A    between atoms: O_18  and  C_19 
REMARK    5  A    between atoms: C_19  and  C_20 
REMARK    6  A    between atoms: C_27  and  N_28 
ROOT
HETATM    1  C   UNK N   1      35.059  12.284  15.040  0.00  0.00     0.079 A 
HETATM    2  C   UNK N   1      35.274  13.259  15.957  0.00  0.00     0.060 A 
HETATM    3  C   UNK N   1      35.275  13.039  17.298  0.00  0.00     0.049 A 
HETATM    4  C   UNK N   1      35.259  14.217  18.111  0.00  0.00     0.099 C 
HETATM    5  N   UNK N   1      35.253  15.226  18.678  0.00  0.00    -0.191 NA
HETATM    6  C   UNK N   1      34.951  10.955  15.472  0.00  0.00     0.061 A 
HETATM    7  C   UNK N   1      35.024  10.677  16.851  0.00  0.00     0.038 A 
HETATM    8 Cl   UNK N   1      34.877   9.032  17.420  0.00  0.00    -0.084 Cl
HETATM    9  C   UNK N   1      35.148  11.734  17.777  0.00  0.00     0.046 A 
ENDROOT
BRANCH   1  10
HETATM   10  O   UNK N   1      34.883  12.622  13.753  0.00  0.00    -0.309 OA
BRANCH  10  11
HETATM   11  C   UNK N   1      35.796  12.839  12.750  0.00  0.00     0.100 A 
HETATM   12  C   UNK N   1      36.992  12.070  12.383  0.00  0.00     0.068 A 
HETATM   13 Cl   UNK N   1      37.801  10.728  13.178  0.00  0.00    -0.081 Cl
HETATM   14  C   UNK N   1      37.749  12.473  11.289  0.00  0.00     0.029 A 
HETATM   15  C   UNK N   1      37.471  13.638  10.628  0.00  0.00     0.038 A 
HETATM   16  C   UNK N   1      36.411  14.414  11.042  0.00  0.00     0.071 A 
HETATM   17  C   UNK N   1      35.560  14.002  12.047  0.00  0.00     0.075 A 
BRANCH  16  18
HETATM   18  O   UNK N   1      36.274  15.613  10.520  0.00  0.00    -0.345 OA
BRANCH  18  19
HETATM   19  C   UNK N   1      35.356  16.509  10.958  0.00  0.00     0.235 C 
BRANCH  19  20
HETATM   20  C   UNK N   1      34.637  16.842   9.729  0.00  0.00     0.064 A 
HETATM   21  N   UNK N   1      34.868  17.935   8.974  0.00  0.00    -0.300 N 
HETATM   22  N   UNK N   1      34.140  17.831   7.865  0.00  0.00    -0.284 N 
ATOM     23  HN  UNK N   1      35.491  18.706   9.213  1.00  0.00     0.186 HD
HETATM   24  C   UNK N   1      33.473  16.665   7.922  0.00  0.00     0.134 A 
HETATM   25  H   UNK N   1      34.099  18.490   7.133  0.00  0.00     0.188 HD
HETATM   26  N   UNK N   1      32.667  16.142   6.970  0.00  0.00    -0.327 N 
HETATM   27  C   UNK N   1      33.753  16.019   9.070  0.00  0.00     0.036 A 
HETATM   28  C   UNK N   1      32.112  14.908   7.181  0.00  0.00     0.100 A 
ATOM     29  HN  UNK N   1      32.476  16.657   6.111  1.00  0.00     0.169 HD
HETATM   30  C   UNK N   1      32.381  14.193   8.373  0.00  0.00     0.049 A 
HETATM   31  C   UNK N   1      33.225  14.757   9.344  0.00  0.00     0.021 A 
BRANCH  28  32
HETATM   32  N   UNK N   1      31.277  14.342   6.201  0.00  0.00    -0.385 N 
HETATM   33  H   UNK N   1      30.729  13.549   6.403  0.00  0.00     0.157 HD
HETATM   34  H   UNK N   1      31.240  14.742   5.302  0.00  0.00     0.157 HD
ENDBRANCH  28  32
ENDBRANCH  19  20
ENDBRANCH  18  19
ENDBRANCH  16  18
ENDBRANCH  10  11
ENDBRANCH   1  10
TORSDOF 6
ENDMDL
MODEL 4
REMARK VINA RESULT:      -8.3     12.341     13.984
REMARK  6 active torsions:
REMARK  status: ('A' for Active; 'I' for Inactive)
REMARK    1  A    between atoms: C_3  and  O_4 
REMARK    2  A    between atoms: O_4  and  C_5 
REMARK    3  A    between atoms: C_16  and  O_18 
REMARK    4  A    between atoms: O_18  and  C_19 
REMARK    5  A    between atoms: C_19  and  C_20 
REMARK    6  A    between atoms: C_27  and  N_28 
ROOT
HETATM    1  C   UNK N   1      21.445  13.128   9.143  0.00  0.00     0.079 A 
HETATM    2  C   UNK N   1      22.006  13.032  10.372  0.00  0.00     0.060 A 
HETATM    3  C   UNK N   1      22.918  12.082  10.707  0.00  0.00     0.049 A 
HETATM    4  C   UNK N   1      23.203  11.974  12.106  0.00  0.00     0.099 C 
HETATM    5  N   UNK N   1      23.369  11.969  13.251  0.00  0.00    -0.191 NA
HETATM    6  C   UNK N   1      21.905  12.291   8.117  0.00  0.00     0.061 A 
HETATM    7  C   UNK N   1      22.906  11.344   8.406  0.00  0.00     0.038 A 
HETATM    8 Cl   UNK N   1      23.488  10.277   7.151  0.00  0.00    -0.084 Cl
HETATM    9  C   UNK N   1      23.391  11.211   9.724  0.00  0.00     0.046 A 
ENDROOT
BRANCH   1  10
HETATM   10  O   UNK N   1      20.416  13.969   8.956  0.00  0.00    -0.309 OA
BRANCH  10  11
HETATM   11  C   UNK N   1      20.388  15.265   8.499  0.00  0.00     0.100 A 
HETATM   12  C   UNK N   1      19.440  16.347   8.792  0.00  0.00     0.068 A 
HETATM   13 Cl   UNK N   1      17.913  16.351   9.660  0.00  0.00    -0.081 Cl
HETATM   14  C   UNK N   1      19.646  17.601   8.229  0.00  0.00     0.029 A 
HETATM   15  C   UNK N   1      20.641  17.810   7.314  0.00  0.00     0.038 A 
HETATM   16  C   UNK N   1      21.465  16.764   6.959  0.00  0.00     0.071 A 
HETATM   17  C   UNK N   1      21.375  15.532   7.573  0.00  0.00     0.075 A 
BRANCH  16  18
HETATM   18  O   UNK N   1      22.287  16.933   5.948  0.00  0.00    -0.345 OA
BRANCH  18  19
HETATM   19  C   UNK N   1      22.476  15.997   4.984  0.00  0.00     0.235 C 
BRANCH  19  20
HETATM   20  C   UNK N   1      21.522  16.414   3.957  0.00  0.00     0.064 A 
HETATM   21  N   UNK N   1      20.447  15.700   3.570  0.00  0.00    -0.300 N 
HETATM   22  N   UNK N   1      19.732  16.450   2.734  0.00  0.00    -0.284 N 
ATOM     23  HN  UNK N   1      20.220  14.751   3.867  1.00  0.00     0.186 HD
HETATM   24  C   UNK N   1      20.355  17.636   2.617  0.00  0.00     0.134 A 
HETATM   25  H   UNK N   1      18.898  16.184   2.283  0.00  0.00     0.188 HD
HETATM   26  N   UNK N   1      19.933  18.710   1.912  0.00  0.00    -0.327 N 
HETATM   27  C   UNK N   1      21.477  17.654   3.362  0.00  0.00     0.036 A 
HETATM   28  C   UNK N   1      20.674  19.860   1.954  0.00  0.00     0.100 A 
ATOM     29  HN  UNK N   1      19.077  18.664   1.358  1.00  0.00     0.169 HD
HETATM   30  C   UNK N   1      21.860  19.924   2.726  0.00  0.00     0.049 A 
HETATM   31  C   UNK N   1      22.274  18.795   3.452  0.00  0.00     0.021 A 
BRANCH  28  32
HETATM   32  N   UNK N   1      20.249  20.991   1.234  0.00  0.00    -0.385 N 
HETATM   33  H   UNK N   1      20.290  21.889   1.636  0.00  0.00     0.157 HD
HETATM   34  H   UNK N   1      19.907  20.885   0.317  0.00  0.00     0.157 HD
ENDBRANCH  28  32
ENDBRANCH  19  20
ENDBRANCH  18  19
ENDBRANCH  16  18
ENDBRANCH  10  11
ENDBRANCH   1  10
TORSDOF 6
ENDMDL
MODEL 5
REMARK VINA RESULT:      -8.2      2.581      3.013
REMARK  6 active torsions:
REMARK  status: ('A' for Active; 'I' for Inactive)
REMARK    1  A    between atoms: C_3  and  O_4 
REMARK    2  A    between atoms: O_4  and  C_5 
REMARK    3  A    between atoms: C_16  and  O_18 
REMARK    4  A    between atoms: O_18  and  C_19 
REMARK    5  A    between atoms: C_19  and  C_20 
REMARK    6  A    between atoms: C_27  and  N_28 
ROOT
HETATM    1  C   UNK N   1      35.586  13.917  12.523  0.00  0.00     0.079 A 
HETATM    2  C   UNK N   1      36.378  14.453  13.483  0.00  0.00     0.060 A 
HETATM    3  C   UNK N   1      36.406  14.006  14.766  0.00  0.00     0.049 A 
HETATM    4  C   UNK N   1      37.099  14.850  15.692  0.00  0.00     0.099 C 
HETATM    5  N   UNK N   1      37.685  15.594  16.358  0.00  0.00    -0.191 NA
HETATM    6  C   UNK N   1      34.843  12.766  12.817  0.00  0.00     0.061 A 
HETATM    7  C   UNK N   1      34.906  12.226  14.117  0.00  0.00     0.038 A 
HETATM    8 Cl   UNK N   1      33.978  10.801  14.518  0.00  0.00    -0.084 Cl
HETATM    9  C   UNK N   1      35.665  12.875  15.113  0.00  0.00     0.046 A 
ENDROOT
BRANCH   1  10
HETATM   10  O   UNK N   1      35.478  14.540  11.339  0.00  0.00    -0.309 OA
BRANCH  10  11
HETATM   11  C   UNK N   1      34.712  14.244  10.237  0.00  0.00     0.100 A 
HETATM   12  C   UNK N   1      34.987  13.339   9.114  0.00  0.00     0.068 A 
HETATM   13 Cl   UNK N   1      36.438  12.460   8.659  0.00  0.00    -0.081 Cl
HETATM   14  C   UNK N   1      34.028  13.177   8.122  0.00  0.00     0.029 A 
HETATM   15  C   UNK N   1      32.889  13.935   8.109  0.00  0.00     0.038 A 
HETATM   16  C   UNK N   1      32.682  14.861   9.109  0.00  0.00     0.071 A 
HETATM   17  C   UNK N   1      33.547  14.980  10.176  0.00  0.00     0.075 A 
BRANCH  16  18
HETATM   18  O   UNK N   1      31.683  15.706   8.979  0.00  0.00    -0.345 OA
BRANCH  18  19
HETATM   19  C   UNK N   1      31.828  16.947   8.453  0.00  0.00     0.235 C 
BRANCH  19  20
HETATM   20  C   UNK N   1      30.505  17.531   8.668  0.00  0.00     0.064 A 
HETATM   21  N   UNK N   1      30.064  18.028   9.840  0.00  0.00    -0.300 N 
HETATM   22  N   UNK N   1      28.885  18.608   9.626  0.00  0.00    -0.284 N 
ATOM     23  HN  UNK N   1      30.550  17.970  10.735  1.00  0.00     0.186 HD
HETATM   24  C   UNK N   1      28.604  18.487   8.317  0.00  0.00     0.134 A 
HETATM   25  H   UNK N   1      28.321  19.046  10.305  0.00  0.00     0.188 HD
HETATM   26  N   UNK N   1      27.530  18.990   7.666  0.00  0.00    -0.327 N 
HETATM   27  C   UNK N   1      29.587  17.819   7.683  0.00  0.00     0.036 A 
HETATM   28  C   UNK N   1      27.437  18.814   6.312  0.00  0.00     0.100 A 
ATOM     29  HN  UNK N   1      26.802  19.492   8.176  1.00  0.00     0.169 HD
HETATM   30  C   UNK N   1      28.450  18.120   5.605  0.00  0.00     0.049 A 
HETATM   31  C   UNK N   1      29.556  17.610   6.305  0.00  0.00     0.021 A 
BRANCH  28  32
HETATM   32  N   UNK N   1      26.332  19.336   5.614  0.00  0.00    -0.385 N 
HETATM   33  H   UNK N   1      25.826  20.101   5.973  0.00  0.00     0.157 HD
HETATM   34  H   UNK N   1      26.062  18.933   4.758  0.00  0.00     0.157 HD
ENDBRANCH  28  32
ENDBRANCH  19  20
ENDBRANCH  18  19
ENDBRANCH  16  18
ENDBRANCH  10  11
ENDBRANCH   1  10
TORSDOF 6
ENDMDL
MODEL 6
REMARK VINA RESULT:      -8.2      1.856      2.588
REMARK  6 active torsions:
REMARK  status: ('A' for Active; 'I' for Inactive)
REMARK    1  A    between atoms: C_3  and  O_4 
REMARK    2  A    between atoms: O_4  and  C_5 
REMARK    3  A    between atoms: C_16  and  O_18 
REMARK    4  A    between atoms: O_18  and  C_19 
REMARK    5  A    between atoms: C_19  and  C_20 
REMARK    6  A    between atoms: C_27  and  N_28 
ROOT
HETATM    1  C   UNK N   1      35.085  12.921  13.660  0.00  0.00     0.079 A 
HETATM    2  C   UNK N   1      35.978  13.812  14.154  0.00  0.00     0.060 A 
HETATM    3  C   UNK N   1      36.458  13.766  15.424  0.00  0.00     0.049 A 
HETATM    4  C   UNK N   1      37.183  14.926  15.847  0.00  0.00     0.099 C 
HETATM    5  N   UNK N   1      37.757  15.901  16.090  0.00  0.00    -0.191 NA
HETATM    6  C   UNK N   1      34.719  11.818  14.444  0.00  0.00     0.061 A 
HETATM    7  C   UNK N   1      35.256  11.694  15.740  0.00  0.00     0.038 A 
HETATM    8 Cl   UNK N   1      34.806  10.338  16.746  0.00  0.00    -0.084 Cl
HETATM    9  C   UNK N   1      36.105  12.698  16.251  0.00  0.00     0.046 A 
ENDROOT
BRANCH   1  10
HETATM   10  O   UNK N   1      34.520  13.153  12.465  0.00  0.00    -0.309 OA
BRANCH  10  11
HETATM   11  C   UNK N   1      35.035  13.721  11.325  0.00  0.00     0.100 A 
HETATM   12  C   UNK N   1      36.327  13.501  10.663  0.00  0.00     0.068 A 
HETATM   13 Cl   UNK N   1      37.750  12.599  11.163  0.00  0.00    -0.081 Cl
HETATM   14  C   UNK N   1      36.609  14.176   9.482  0.00  0.00     0.029 A 
HETATM   15  C   UNK N   1      35.759  15.130   8.993  0.00  0.00     0.038 A 
HETATM   16  C   UNK N   1      34.595  15.411   9.674  0.00  0.00     0.071 A 
HETATM   17  C   UNK N   1      34.214  14.690  10.787  0.00  0.00     0.075 A 
BRANCH  16  18
HETATM   18  O   UNK N   1      33.888  16.454   9.297  0.00  0.00    -0.345 OA
BRANCH  18  19
HETATM   19  C   UNK N   1      33.949  16.975   8.046  0.00  0.00     0.235 C 
BRANCH  19  20
HETATM   20  C   UNK N   1      32.586  16.770   7.558  0.00  0.00     0.064 A 
HETATM   21  N   UNK N   1      32.209  15.788   6.716  0.00  0.00    -0.300 N 
HETATM   22  N   UNK N   1      30.883  15.819   6.612  0.00  0.00    -0.284 N 
ATOM     23  HN  UNK N   1      32.833  15.135   6.241  1.00  0.00     0.186 HD
HETATM   24  C   UNK N   1      30.435  16.808   7.406  0.00  0.00     0.134 A 
HETATM   25  H   UNK N   1      30.329  15.224   6.055  0.00  0.00     0.188 HD
HETATM   26  N   UNK N   1      29.146  17.141   7.641  0.00  0.00    -0.327 N 
HETATM   27  C   UNK N   1      31.466  17.428   8.012  0.00  0.00     0.036 A 
HETATM   28  C   UNK N   1      28.876  18.149   8.528  0.00  0.00     0.100 A 
ATOM     29  HN  UNK N   1      28.388  16.651   7.165  1.00  0.00     0.169 HD
HETATM   30  C   UNK N   1      29.929  18.826   9.189  0.00  0.00     0.049 A 
HETATM   31  C   UNK N   1      31.260  18.458   8.929  0.00  0.00     0.021 A 
BRANCH  28  32
HETATM   32  N   UNK N   1      27.541  18.506   8.793  0.00  0.00    -0.385 N 
HETATM   33  H   UNK N   1      27.197  19.392   8.535  0.00  0.00     0.157 HD
HETATM   34  H   UNK N   1      26.945  17.864   9.241  0.00  0.00     0.157 HD
ENDBRANCH  28  32
ENDBRANCH  19  20
ENDBRANCH  18  19
ENDBRANCH  16  18
ENDBRANCH  10  11
ENDBRANCH   1  10
TORSDOF 6
ENDMDL
MODEL 7
REMARK VINA RESULT:      -8.0      7.481     12.338
REMARK  6 active torsions:
REMARK  status: ('A' for Active; 'I' for Inactive)
REMARK    1  A    between atoms: C_3  and  O_4 
REMARK    2  A    between atoms: O_4  and  C_5 
REMARK    3  A    between atoms: C_16  and  O_18 
REMARK    4  A    between atoms: O_18  and  C_19 
REMARK    5  A    between atoms: C_19  and  C_20 
REMARK    6  A    between atoms: C_27  and  N_28 
ROOT
HETATM    1  C   UNK N   1      24.281  19.230   3.970  0.00  0.00     0.079 A 
HETATM    2  C   UNK N   1      23.639  18.422   4.848  0.00  0.00     0.060 A 
HETATM    3  C   UNK N   1      22.287  18.376   4.972  0.00  0.00     0.049 A 
HETATM    4  C   UNK N   1      21.802  17.665   6.117  0.00  0.00     0.099 C 
HETATM    5  N   UNK N   1      21.511  17.067   7.063  0.00  0.00    -0.191 NA
HETATM    6  C   UNK N   1      23.527  19.973   3.051  0.00  0.00     0.061 A 
HETATM    7  C   UNK N   1      22.121  19.891   3.097  0.00  0.00     0.038 A 
HETATM    8 Cl   UNK N   1      21.154  20.818   1.975  0.00  0.00    -0.084 Cl
HETATM    9  C   UNK N   1      21.493  19.115   4.093  0.00  0.00     0.046 A 
ENDROOT
BRANCH   1  10
HETATM   10  O   UNK N   1      25.615  19.355   4.048  0.00  0.00    -0.309 OA
BRANCH  10  11
HETATM   11  C   UNK N   1      26.477  19.123   5.092  0.00  0.00     0.100 A 
HETATM   12  C   UNK N   1      26.927  20.024   6.161  0.00  0.00     0.068 A 
HETATM   13 Cl   UNK N   1      26.696  21.749   6.400  0.00  0.00    -0.081 Cl
HETATM   14  C   UNK N   1      27.787  19.541   7.139  0.00  0.00     0.029 A 
HETATM   15  C   UNK N   1      28.316  18.282   7.056  0.00  0.00     0.038 A 
HETATM   16  C   UNK N   1      27.975  17.474   5.993  0.00  0.00     0.071 A 
HETATM   17  C   UNK N   1      27.039  17.864   5.059  0.00  0.00     0.075 A 
BRANCH  16  18
HETATM   18  O   UNK N   1      28.634  16.348   5.830  0.00  0.00    -0.345 OA
BRANCH  18  19
HETATM   19  C   UNK N   1      29.792  16.264   5.130  0.00  0.00     0.235 C 
BRANCH  19  20
HETATM   20  C   UNK N   1      30.683  15.603   6.082  0.00  0.00     0.064 A 
HETATM   21  N   UNK N   1      30.975  14.288   6.078  0.00  0.00    -0.300 N 
HETATM   22  N   UNK N   1      31.926  14.073   6.985  0.00  0.00    -0.284 N 
ATOM     23  HN  UNK N   1      30.543  13.581   5.484  1.00  0.00     0.186 HD
HETATM   24  C   UNK N   1      32.237  15.259   7.537  0.00  0.00     0.134 A 
HETATM   25  H   UNK N   1      32.329  13.203   7.209  0.00  0.00     0.188 HD
HETATM   26  N   UNK N   1      33.197  15.499   8.459  0.00  0.00    -0.327 N 
HETATM   27  C   UNK N   1      31.482  16.239   7.005  0.00  0.00     0.036 A 
HETATM   28  C   UNK N   1      33.410  16.788   8.869  0.00  0.00     0.100 A 
ATOM     29  HN  UNK N   1      33.752  14.734   8.843  1.00  0.00     0.169 HD
HETATM   30  C   UNK N   1      32.641  17.850   8.333  0.00  0.00     0.049 A 
HETATM   31  C   UNK N   1      31.653  17.573   7.375  0.00  0.00     0.021 A 
BRANCH  28  32
HETATM   32  N   UNK N   1      34.409  17.062   9.821  0.00  0.00    -0.385 N 
HETATM   33  H   UNK N   1      34.664  17.990  10.032  0.00  0.00     0.157 HD
HETATM   34  H   UNK N   1      34.860  16.317  10.282  0.00  0.00     0.157 HD
ENDBRANCH  28  32
ENDBRANCH  19  20
ENDBRANCH  18  19
ENDBRANCH  16  18
ENDBRANCH  10  11
ENDBRANCH   1  10
TORSDOF 6
ENDMDL
MODEL 8
REMARK VINA RESULT:      -8.0      2.482      3.244
REMARK  6 active torsions:
REMARK  status: ('A' for Active; 'I' for Inactive)
REMARK    1  A    between atoms: C_3  and  O_4 
REMARK    2  A    between atoms: O_4  and  C_5 
REMARK    3  A    between atoms: C_16  and  O_18 
REMARK    4  A    between atoms: O_18  and  C_19 
REMARK    5  A    between atoms: C_19  and  C_20 
REMARK    6  A    between atoms: C_27  and  N_28 
ROOT
HETATM    1  C   UNK N   1      34.757  12.265  14.937  0.00  0.00     0.079 A 
HETATM    2  C   UNK N   1      34.783  10.965  15.318  0.00  0.00     0.060 A 
HETATM    3  C   UNK N   1      35.052  10.562  16.587  0.00  0.00     0.049 A 
HETATM    4  C   UNK N   1      35.291   9.159  16.745  0.00  0.00     0.099 C 
HETATM    5  N   UNK N   1      35.461   8.015  16.770  0.00  0.00    -0.191 NA
HETATM    6  C   UNK N   1      34.892  13.263  15.912  0.00  0.00     0.061 A 
HETATM    7  C   UNK N   1      35.096  12.884  17.253  0.00  0.00     0.038 A 
HETATM    8 Cl   UNK N   1      35.283  14.106  18.488  0.00  0.00    -0.084 Cl
HETATM    9  C   UNK N   1      35.216  11.520  17.590  0.00  0.00     0.046 A 
ENDROOT
BRANCH   1  10
HETATM   10  O   UNK N   1      34.675  12.565  13.632  0.00  0.00    -0.309 OA
BRANCH  10  11
HETATM   11  C   UNK N   1      35.659  12.804  12.703  0.00  0.00     0.100 A 
HETATM   12  C   UNK N   1      36.933  12.108  12.479  0.00  0.00     0.068 A 
HETATM   13 Cl   UNK N   1      37.754  10.862  13.406  0.00  0.00    -0.081 Cl
HETATM   14  C   UNK N   1      37.757  12.518  11.438  0.00  0.00     0.029 A 
HETATM   15  C   UNK N   1      37.462  13.631  10.700  0.00  0.00     0.038 A 
HETATM   16  C   UNK N   1      36.319  14.346  10.982  0.00  0.00     0.071 A 
HETATM   17  C   UNK N   1      35.410  13.917  11.927  0.00  0.00     0.075 A 
BRANCH  16  18
HETATM   18  O   UNK N   1      36.150  15.510  10.394  0.00  0.00    -0.345 OA
BRANCH  18  19
HETATM   19  C   UNK N   1      35.326  16.471  10.880  0.00  0.00     0.235 C 
BRANCH  19  20
HETATM   20  C   UNK N   1      34.629  16.919   9.675  0.00  0.00     0.064 A 
HETATM   21  N   UNK N   1      34.913  18.048   8.996  0.00  0.00    -0.300 N 
HETATM   22  N   UNK N   1      34.185  18.053   7.881  0.00  0.00    -0.284 N 
ATOM     23  HN  UNK N   1      35.571  18.771   9.286  1.00  0.00     0.186 HD
HETATM   24  C   UNK N   1      33.464  16.918   7.860  0.00  0.00     0.134 A 
HETATM   25  H   UNK N   1      34.178  18.761   7.196  0.00  0.00     0.188 HD
HETATM   26  N   UNK N   1      32.638  16.499   6.875  0.00  0.00    -0.327 N 
HETATM   27  C   UNK N   1      33.709  16.184   8.962  0.00  0.00     0.036 A 
HETATM   28  C   UNK N   1      32.025  15.281   7.002  0.00  0.00     0.100 A 
ATOM     29  HN  UNK N   1      32.474  17.079   6.052  1.00  0.00     0.169 HD
HETATM   30  C   UNK N   1      32.256  14.475   8.143  0.00  0.00     0.049 A 
HETATM   31  C   UNK N   1      33.121  14.933   9.150  0.00  0.00     0.021 A 
BRANCH  28  32
HETATM   32  N   UNK N   1      31.168  14.822   5.985  0.00  0.00    -0.385 N 
HETATM   33  H   UNK N   1      31.532  14.478   5.137  0.00  0.00     0.157 HD
HETATM   34  H   UNK N   1      30.193  14.845   6.122  0.00  0.00     0.157 HD
ENDBRANCH  28  32
ENDBRANCH  19  20
ENDBRANCH  18  19
ENDBRANCH  16  18
ENDBRANCH  10  11
ENDBRANCH   1  10
TORSDOF 6
ENDMDL
MODEL 9
REMARK VINA RESULT:      -7.8      3.273      9.856
REMARK  6 active torsions:
REMARK  status: ('A' for Active; 'I' for Inactive)
REMARK    1  A    between atoms: C_3  and  O_4 
REMARK    2  A    between atoms: O_4  and  C_5 
REMARK    3  A    between atoms: C_16  and  O_18 
REMARK    4  A    between atoms: O_18  and  C_19 
REMARK    5  A    between atoms: C_19  and  C_20 
REMARK    6  A    between atoms: C_27  and  N_28 
ROOT
HETATM    1  C   UNK N   1      31.647  15.902   6.960  0.00  0.00     0.079 A 
HETATM    2  C   UNK N   1      30.465  16.561   6.890  0.00  0.00     0.060 A 
HETATM    3  C   UNK N   1      30.065  17.269   5.801  0.00  0.00     0.049 A 
HETATM    4  C   UNK N   1      28.919  18.104   6.002  0.00  0.00     0.099 C 
HETATM    5  N   UNK N   1      27.987  18.739   6.262  0.00  0.00    -0.191 NA
HETATM    6  C   UNK N   1      32.457  15.834   5.818  0.00  0.00     0.061 A 
HETATM    7  C   UNK N   1      32.038  16.492   4.644  0.00  0.00     0.038 A 
HETATM    8 Cl   UNK N   1      33.035  16.438   3.210  0.00  0.00    -0.084 Cl
HETATM    9  C   UNK N   1      30.849  17.250   4.647  0.00  0.00     0.046 A 
ENDROOT
BRANCH   1  10
HETATM   10  O   UNK N   1      32.046  15.394   8.136  0.00  0.00    -0.309 OA
BRANCH  10  11
HETATM   11  C   UNK N   1      33.068  15.768   8.974  0.00  0.00     0.100 A 
HETATM   12  C   UNK N   1      34.017  16.884   8.862  0.00  0.00     0.068 A 
HETATM   13 Cl   UNK N   1      34.327  18.019   7.559  0.00  0.00    -0.081 Cl
HETATM   14  C   UNK N   1      34.952  17.082   9.871  0.00  0.00     0.029 A 
HETATM   15  C   UNK N   1      35.084  16.189  10.899  0.00  0.00     0.038 A 
HETATM   16  C   UNK N   1      34.262  15.084  10.944  0.00  0.00     0.071 A 
HETATM   17  C   UNK N   1      33.243  14.902  10.032  0.00  0.00     0.075 A 
BRANCH  16  18
HETATM   18  O   UNK N   1      34.527  14.146  11.826  0.00  0.00    -0.345 OA
BRANCH  18  19
HETATM   19  C   UNK N   1      35.343  13.095  11.565  0.00  0.00     0.235 C 
BRANCH  19  20
HETATM   20  C   UNK N   1      35.977  12.865  12.862  0.00  0.00     0.064 A 
HETATM   21  N   UNK N   1      37.041  13.546  13.331  0.00  0.00    -0.300 N 
HETATM   22  N   UNK N   1      37.247  13.175  14.592  0.00  0.00    -0.284 N 
ATOM     23  HN  UNK N   1      37.593  14.226  12.808  1.00  0.00     0.186 HD
HETATM   24  C   UNK N   1      36.297  12.278  14.913  0.00  0.00     0.134 A 
HETATM   25  H   UNK N   1      37.965  13.499  15.184  0.00  0.00     0.188 HD
HETATM   26  N   UNK N   1      36.104  11.694  16.117  0.00  0.00    -0.327 N 
HETATM   27  C   UNK N   1      35.486  12.055  13.861  0.00  0.00     0.036 A 
HETATM   28  C   UNK N   1      35.045  10.841  16.275  0.00  0.00     0.100 A 
ATOM     29  HN  UNK N   1      36.737  11.885  16.895  1.00  0.00     0.169 HD
HETATM   30  C   UNK N   1      34.166  10.580  15.196  0.00  0.00     0.049 A 
HETATM   31  C   UNK N   1      34.387  11.202  13.956  0.00  0.00     0.021 A 
BRANCH  28  32
HETATM   32  N   UNK N   1      34.822  10.229  17.522  0.00  0.00    -0.385 N 
HETATM   33  H   UNK N   1      34.512   9.296  17.576  0.00  0.00     0.157 HD
HETATM   34  H   UNK N   1      34.976  10.739  18.349  0.00  0.00     0.157 HD
ENDBRANCH  28  32
ENDBRANCH  19  20
ENDBRANCH  18  19
ENDBRANCH  16  18
ENDBRANCH  10  11
ENDBRANCH   1  10
TORSDOF 6
ENDMDL
