MODEL 1
REMARK VINA RESULT:      -7.1      0.000      0.000
REMARK  5 active torsions:
REMARK  status: ('A' for Active; 'I' for Inactive)
REMARK    1  A    between atoms: C_2  and  N_5 
REMARK    2  A    between atoms: C_14  and  N_15 
REMARK    3  A    between atoms: C_17  and  C_18 
REMARK    4  A    between atoms: C_18  and  C_19 
REMARK    5  A    between atoms: C_24  and  O_25 
ROOT
HETATM    1  N   UNK N   1      29.768  17.558   5.419  0.00  0.00    -0.267 N 
HETATM    2  N   UNK N   1      29.177  18.174   4.404  0.00  0.00    -0.299 N 
ATOM      3  HN  UNK N   1      29.422  18.059   3.420  1.00  0.00     0.187 HD
HETATM    4  C   UNK N   1      29.160  17.944   6.558  0.00  0.00     0.140 A 
HETATM    5  N   UNK N   1      29.451  17.529   7.814  0.00  0.00    -0.336 N 
ATOM      6  HN  UNK N   1      30.191  16.846   7.977  1.00  0.00     0.168 HD
HETATM    7  C   UNK N   1      28.740  18.040   8.855  0.00  0.00     0.183 A 
HETATM    8  N   UNK N   1      27.777  18.982   8.632  0.00  0.00    -0.338 N 
ATOM      9  HN  UNK N   1      27.269  19.371   9.427  1.00  0.00     0.168 HD
HETATM   10  C   UNK N   1      27.478  19.416   7.374  0.00  0.00     0.116 A 
HETATM   11  C   UNK N   1      28.178  18.860   6.284  0.00  0.00     0.077 A 
HETATM   12  C   UNK N   1      28.197  18.981   4.880  0.00  0.00     0.048 A 
ENDROOT
BRANCH  12  13
HETATM   13  C   UNK N   1      27.382  19.797   3.900  0.00  0.00     0.098 C 
BRANCH  13  14
HETATM   14  C   UNK N   1      25.916  19.574   3.802  0.00  0.00    -0.050 A 
HETATM   15  C   UNK N   1      25.064  20.578   3.321  0.00  0.00     0.044 A 
HETATM   16  C   UNK N   1      23.691  20.331   3.213  0.00  0.00     0.066 A 
HETATM   17  C   UNK N   1      23.167  19.100   3.623  0.00  0.00     0.036 A 
HETATM   18  C   UNK N   1      24.012  18.116   4.143  0.00  0.00     0.003 A 
HETATM   19  C   UNK N   1      25.385  18.353   4.228  0.00  0.00     0.007 A 
BRANCH  16  20
HETATM   20  O   UNK N   1      22.879  21.264   2.693  0.00  0.00    -0.361 OA
HETATM   21  H   UNK N   1      22.185  21.317   2.067  0.00  0.00     0.217 HD
ENDBRANCH  16  20
ENDBRANCH  13  14
ENDBRANCH  12  13
BRANCH   1  22
HETATM   22  C   UNK N   1      30.920  16.653   5.236  0.00  0.00     0.044 C 
HETATM   23  C   UNK N   1      30.573  15.271   5.751  0.00  0.00     0.039 C 
HETATM   24  C   UNK N   1      31.244  16.555   3.755  0.00  0.00     0.039 C 
HETATM   25  C   UNK N   1      32.179  17.124   5.945  0.00  0.00     0.039 C 
ENDBRANCH   1  22
BRANCH  10  26
HETATM   26  N   UNK N   1      26.528  20.436   7.225  0.00  0.00    -0.385 N 
HETATM   27  H   UNK N   1      26.526  21.204   7.840  0.00  0.00     0.157 HD
HETATM   28  H   UNK N   1      25.862  20.383   6.502  0.00  0.00     0.157 HD
ENDBRANCH  10  26
TORSDOF 5
ENDMDL
MODEL 2
REMARK VINA RESULT:      -6.7      7.888     10.843
REMARK  5 active torsions:
REMARK  status: ('A' for Active; 'I' for Inactive)
REMARK    1  A    between atoms: C_2  and  N_5 
REMARK    2  A    between atoms: C_14  and  N_15 
REMARK    3  A    between atoms: C_17  and  C_18 
REMARK    4  A    between atoms: C_18  and  C_19 
REMARK    5  A    between atoms: C_24  and  O_25 
ROOT
HETATM    1  N   UNK N   1      35.905  13.575  12.403  0.00  0.00    -0.267 N 
HETATM    2  N   UNK N   1      34.724  13.995  11.973  0.00  0.00    -0.299 N 
ATOM      3  HN  UNK N   1      33.892  14.110  12.553  1.00  0.00     0.187 HD
HETATM    4  C   UNK N   1      36.758  13.575  11.358  0.00  0.00     0.140 A 
HETATM    5  N   UNK N   1      38.067  13.232  11.380  0.00  0.00    -0.336 N 
ATOM      6  HN  UNK N   1      38.514  12.943  12.250  1.00  0.00     0.168 HD
HETATM    7  C   UNK N   1      38.776  13.276  10.220  0.00  0.00     0.183 A 
HETATM    8  N   UNK N   1      38.162  13.626   9.052  0.00  0.00    -0.338 N 
ATOM      9  HN  UNK N   1      38.704  13.633   8.188  1.00  0.00     0.168 HD
HETATM   10  C   UNK N   1      36.842  13.967   9.013  0.00  0.00     0.116 A 
HETATM   11  C   UNK N   1      36.109  13.968  10.217  0.00  0.00     0.077 A 
HETATM   12  C   UNK N   1      34.795  14.250  10.644  0.00  0.00     0.048 A 
ENDROOT
BRANCH  12  13
HETATM   13  C   UNK N   1      33.557  14.741   9.925  0.00  0.00     0.098 C 
BRANCH  13  14
HETATM   14  C   UNK N   1      33.667  15.859   8.953  0.00  0.00    -0.050 A 
HETATM   15  C   UNK N   1      34.400  17.013   9.260  0.00  0.00     0.044 A 
HETATM   16  C   UNK N   1      34.510  18.038   8.314  0.00  0.00     0.066 A 
HETATM   17  C   UNK N   1      33.855  17.928   7.083  0.00  0.00     0.036 A 
HETATM   18  C   UNK N   1      33.088  16.795   6.795  0.00  0.00     0.003 A 
HETATM   19  C   UNK N   1      32.998  15.761   7.729  0.00  0.00     0.007 A 
BRANCH  16  20
HETATM   20  O   UNK N   1      35.263  19.118   8.576  0.00  0.00    -0.361 OA
HETATM   21  H   UNK N   1      35.366  19.751   9.259  0.00  0.00     0.217 HD
ENDBRANCH  16  20
ENDBRANCH  13  14
ENDBRANCH  12  13
BRANCH   1  22
HETATM   22  C   UNK N   1      36.140  13.157  13.799  0.00  0.00     0.044 C 
HETATM   23  C   UNK N   1      36.662  14.329  14.604  0.00  0.00     0.039 C 
HETATM   24  C   UNK N   1      34.827  12.692  14.406  0.00  0.00     0.039 C 
HETATM   25  C   UNK N   1      37.130  12.010  13.929  0.00  0.00     0.039 C 
ENDBRANCH   1  22
BRANCH  10  26
HETATM   26  N   UNK N   1      36.258  14.248   7.770  0.00  0.00    -0.385 N 
HETATM   27  H   UNK N   1      36.710  14.850   7.136  0.00  0.00     0.157 HD
HETATM   28  H   UNK N   1      35.394  13.841   7.531  0.00  0.00     0.157 HD
ENDBRANCH  10  26
TORSDOF 5
ENDMDL
MODEL 3
REMARK VINA RESULT:      -6.5      2.469      3.747
REMARK  5 active torsions:
REMARK  status: ('A' for Active; 'I' for Inactive)
REMARK    1  A    between atoms: C_2  and  N_5 
REMARK    2  A    between atoms: C_14  and  N_15 
REMARK    3  A    between atoms: C_17  and  C_18 
REMARK    4  A    between atoms: C_18  and  C_19 
REMARK    5  A    between atoms: C_24  and  O_25 
ROOT
HETATM    1  N   UNK N   1      31.560  16.238   5.249  0.00  0.00    -0.267 N 
HETATM    2  N   UNK N   1      30.253  16.463   5.249  0.00  0.00    -0.299 N 
ATOM      3  HN  UNK N   1      29.618  16.250   4.479  1.00  0.00     0.187 HD
HETATM    4  C   UNK N   1      32.054  16.626   6.442  0.00  0.00     0.140 A 
HETATM    5  N   UNK N   1      33.342  16.545   6.852  0.00  0.00    -0.336 N 
ATOM      6  HN  UNK N   1      34.057  16.150   6.241  1.00  0.00     0.168 HD
HETATM    7  C   UNK N   1      33.666  17.002   8.091  0.00  0.00     0.183 A 
HETATM    8  N   UNK N   1      32.710  17.564   8.887  0.00  0.00    -0.338 N 
ATOM      9  HN  UNK N   1      32.975  17.921   9.806  1.00  0.00     0.168 HD
HETATM   10  C   UNK N   1      31.410  17.659   8.486  0.00  0.00     0.116 A 
HETATM   11  C   UNK N   1      31.055  17.148   7.221  0.00  0.00     0.077 A 
HETATM   12  C   UNK N   1      29.894  17.017   6.432  0.00  0.00     0.048 A 
ENDROOT
BRANCH  12  13
HETATM   13  C   UNK N   1      28.440  17.369   6.664  0.00  0.00     0.098 C 
BRANCH  13  14
HETATM   14  C   UNK N   1      27.924  18.687   6.215  0.00  0.00    -0.050 A 
HETATM   15  C   UNK N   1      27.624  18.924   4.867  0.00  0.00     0.044 A 
HETATM   16  C   UNK N   1      27.112  20.167   4.476  0.00  0.00     0.066 A 
HETATM   17  C   UNK N   1      26.940  21.181   5.423  0.00  0.00     0.036 A 
HETATM   18  C   UNK N   1      27.281  20.958   6.760  0.00  0.00     0.003 A 
HETATM   19  C   UNK N   1      27.769  19.711   7.155  0.00  0.00     0.007 A 
BRANCH  16  20
HETATM   20  O   UNK N   1      26.762  20.378   3.198  0.00  0.00    -0.361 OA
HETATM   21  H   UNK N   1      26.291  19.937   2.519  0.00  0.00     0.217 HD
ENDBRANCH  16  20
ENDBRANCH  13  14
ENDBRANCH  12  13
BRANCH   1  22
HETATM   22  C   UNK N   1      32.272  15.693   4.076  0.00  0.00     0.044 C 
HETATM   23  C   UNK N   1      31.291  14.984   3.165  0.00  0.00     0.039 C 
HETATM   24  C   UNK N   1      32.913  16.836   3.308  0.00  0.00     0.039 C 
HETATM   25  C   UNK N   1      33.377  14.715   4.440  0.00  0.00     0.039 C 
ENDBRANCH   1  22
BRANCH  10  26
HETATM   26  N   UNK N   1      30.495  18.311   9.325  0.00  0.00    -0.385 N 
HETATM   27  H   UNK N   1      30.153  17.860  10.129  0.00  0.00     0.157 HD
HETATM   28  H   UNK N   1      30.194  19.223   9.108  0.00  0.00     0.157 HD
ENDBRANCH  10  26
TORSDOF 5
ENDMDL
MODEL 4
REMARK VINA RESULT:      -6.5      3.623      6.874
REMARK  5 active torsions:
REMARK  status: ('A' for Active; 'I' for Inactive)
REMARK    1  A    between atoms: C_2  and  N_5 
REMARK    2  A    between atoms: C_14  and  N_15 
REMARK    3  A    between atoms: C_17  and  C_18 
REMARK    4  A    between atoms: C_18  and  C_19 
REMARK    5  A    between atoms: C_24  and  O_25 
ROOT
HETATM    1  N   UNK N   1      30.158  16.813   4.818  0.00  0.00    -0.267 N 
HETATM    2  N   UNK N   1      30.792  16.578   5.960  0.00  0.00    -0.299 N 
ATOM      3  HN  UNK N   1      31.628  16.002   6.063  1.00  0.00     0.187 HD
HETATM    4  C   UNK N   1      29.118  17.631   5.074  0.00  0.00     0.140 A 
HETATM    5  N   UNK N   1      28.234  18.125   4.175  0.00  0.00    -0.336 N 
ATOM      6  HN  UNK N   1      28.319  17.897   3.184  1.00  0.00     0.168 HD
HETATM    7  C   UNK N   1      27.230  18.929   4.617  0.00  0.00     0.183 A 
HETATM    8  N   UNK N   1      27.101  19.199   5.948  0.00  0.00    -0.338 N 
ATOM      9  HN  UNK N   1      26.329  19.786   6.264  1.00  0.00     0.168 HD
HETATM   10  C   UNK N   1      27.978  18.703   6.867  0.00  0.00     0.116 A 
HETATM   11  C   UNK N   1      29.049  17.905   6.415  0.00  0.00     0.077 A 
HETATM   12  C   UNK N   1      30.154  17.224   6.967  0.00  0.00     0.048 A 
ENDROOT
BRANCH  12  13
HETATM   13  C   UNK N   1      30.695  17.099   8.374  0.00  0.00     0.098 C 
BRANCH  13  14
HETATM   14  C   UNK N   1      32.161  17.004   8.591  0.00  0.00    -0.050 A 
HETATM   15  C   UNK N   1      33.003  18.093   8.324  0.00  0.00     0.044 A 
HETATM   16  C   UNK N   1      34.377  17.984   8.564  0.00  0.00     0.066 A 
HETATM   17  C   UNK N   1      34.913  16.779   9.030  0.00  0.00     0.036 A 
HETATM   18  C   UNK N   1      34.079  15.681   9.254  0.00  0.00     0.003 A 
HETATM   19  C   UNK N   1      32.704  15.795   9.038  0.00  0.00     0.007 A 
BRANCH  16  20
HETATM   20  O   UNK N   1      35.179  19.043   8.372  0.00  0.00    -0.361 OA
HETATM   21  H   UNK N   1      35.918  19.445   8.784  0.00  0.00     0.217 HD
ENDBRANCH  16  20
ENDBRANCH  13  14
ENDBRANCH  12  13
BRANCH   1  22
HETATM   22  C   UNK N   1      30.572  16.200   3.541  0.00  0.00     0.044 C 
HETATM   23  C   UNK N   1      31.604  17.078   2.862  0.00  0.00     0.039 C 
HETATM   24  C   UNK N   1      31.193  14.842   3.818  0.00  0.00     0.039 C 
HETATM   25  C   UNK N   1      29.420  15.983   2.573  0.00  0.00     0.039 C 
ENDBRANCH   1  22
BRANCH  10  26
HETATM   26  N   UNK N   1      27.746  18.962   8.225  0.00  0.00    -0.385 N 
HETATM   27  H   UNK N   1      27.579  18.219   8.848  0.00  0.00     0.157 HD
HETATM   28  H   UNK N   1      27.750  19.889   8.556  0.00  0.00     0.157 HD
ENDBRANCH  10  26
TORSDOF 5
ENDMDL
MODEL 5
REMARK VINA RESULT:      -6.4      2.532      4.551
REMARK  5 active torsions:
REMARK  status: ('A' for Active; 'I' for Inactive)
REMARK    1  A    between atoms: C_2  and  N_5 
REMARK    2  A    between atoms: C_14  and  N_15 
REMARK    3  A    between atoms: C_17  and  C_18 
REMARK    4  A    between atoms: C_18  and  C_19 
REMARK    5  A    between atoms: C_24  and  O_25 
ROOT
HETATM    1  N   UNK N   1      32.218  17.014   6.621  0.00  0.00    -0.267 N 
HETATM    2  N   UNK N   1      30.969  17.176   7.034  0.00  0.00    -0.299 N 
ATOM      3  HN  UNK N   1      30.677  17.277   8.006  1.00  0.00     0.187 HD
HETATM    4  C   UNK N   1      32.212  16.941   5.275  0.00  0.00     0.140 A 
HETATM    5  N   UNK N   1      33.286  16.796   4.465  0.00  0.00    -0.336 N 
ATOM      6  HN  UNK N   1      34.227  16.740   4.856  1.00  0.00     0.168 HD
HETATM    7  C   UNK N   1      33.090  16.725   3.121  0.00  0.00     0.183 A 
HETATM    8  N   UNK N   1      31.826  16.762   2.609  0.00  0.00    -0.338 N 
ATOM      9  HN  UNK N   1      31.695  16.685   1.600  1.00  0.00     0.168 HD
HETATM   10  C   UNK N   1      30.732  16.900   3.412  0.00  0.00     0.116 A 
HETATM   11  C   UNK N   1      30.927  17.020   4.803  0.00  0.00     0.077 A 
HETATM   12  C   UNK N   1      30.140  17.188   5.961  0.00  0.00     0.048 A 
ENDROOT
BRANCH  12  13
HETATM   13  C   UNK N   1      28.654  17.357   6.186  0.00  0.00     0.098 C 
BRANCH  13  14
HETATM   14  C   UNK N   1      28.017  18.672   5.921  0.00  0.00    -0.050 A 
HETATM   15  C   UNK N   1      27.607  19.029   4.629  0.00  0.00     0.044 A 
HETATM   16  C   UNK N   1      26.984  20.264   4.414  0.00  0.00     0.066 A 
HETATM   17  C   UNK N   1      26.809  21.155   5.478  0.00  0.00     0.036 A 
HETATM   18  C   UNK N   1      27.258  20.816   6.758  0.00  0.00     0.003 A 
HETATM   19  C   UNK N   1      27.858  19.574   6.978  0.00  0.00     0.007 A 
BRANCH  16  20
HETATM   20  O   UNK N   1      26.530  20.584   3.192  0.00  0.00    -0.361 OA
HETATM   21  H   UNK N   1      26.878  20.852   2.365  0.00  0.00     0.217 HD
ENDBRANCH  16  20
ENDBRANCH  13  14
ENDBRANCH  12  13
BRANCH   1  22
HETATM   22  C   UNK N   1      33.355  16.899   7.557  0.00  0.00     0.044 C 
HETATM   23  C   UNK N   1      33.921  18.274   7.847  0.00  0.00     0.039 C 
HETATM   24  C   UNK N   1      32.867  16.286   8.858  0.00  0.00     0.039 C 
HETATM   25  C   UNK N   1      34.481  16.020   7.036  0.00  0.00     0.039 C 
ENDBRANCH   1  22
BRANCH  10  26
HETATM   26  N   UNK N   1      29.459  16.860   2.826  0.00  0.00    -0.385 N 
HETATM   27  H   UNK N   1      28.669  16.653   3.374  0.00  0.00     0.157 HD
HETATM   28  H   UNK N   1      29.357  17.038   1.863  0.00  0.00     0.157 HD
ENDBRANCH  10  26
TORSDOF 5
ENDMDL
MODEL 6
REMARK VINA RESULT:      -6.4      2.865      5.023
REMARK  5 active torsions:
REMARK  status: ('A' for Active; 'I' for Inactive)
REMARK    1  A    between atoms: C_2  and  N_5 
REMARK    2  A    between atoms: C_14  and  N_15 
REMARK    3  A    between atoms: C_17  and  C_18 
REMARK    4  A    between atoms: C_18  and  C_19 
REMARK    5  A    between atoms: C_24  and  O_25 
ROOT
HETATM    1  N   UNK N   1      26.146  18.755   5.151  0.00  0.00    -0.267 N 
HETATM    2  N   UNK N   1      24.861  18.955   5.407  0.00  0.00    -0.299 N 
ATOM      3  HN  UNK N   1      24.485  19.702   5.991  1.00  0.00     0.187 HD
HETATM    4  C   UNK N   1      26.252  17.693   4.327  0.00  0.00     0.140 A 
HETATM    5  N   UNK N   1      27.392  17.175   3.814  0.00  0.00    -0.336 N 
ATOM      6  HN  UNK N   1      28.297  17.595   4.029  1.00  0.00     0.168 HD
HETATM    7  C   UNK N   1      27.312  16.083   3.006  0.00  0.00     0.183 A 
HETATM    8  N   UNK N   1      26.102  15.504   2.754  0.00  0.00    -0.338 N 
ATOM      9  HN  UNK N   1      26.062  14.672   2.164  1.00  0.00     0.168 HD
HETATM   10  C   UNK N   1      24.945  16.009   3.270  0.00  0.00     0.116 A 
HETATM   11  C   UNK N   1      25.013  17.167   4.071  0.00  0.00     0.077 A 
HETATM   12  C   UNK N   1      24.125  18.012   4.769  0.00  0.00     0.048 A 
ENDROOT
BRANCH  12  13
HETATM   13  C   UNK N   1      22.619  18.034   4.918  0.00  0.00     0.098 C 
BRANCH  13  14
HETATM   14  C   UNK N   1      21.792  18.732   3.902  0.00  0.00    -0.050 A 
HETATM   15  C   UNK N   1      20.483  18.314   3.625  0.00  0.00     0.044 A 
HETATM   16  C   UNK N   1      19.717  19.009   2.682  0.00  0.00     0.066 A 
HETATM   17  C   UNK N   1      20.270  20.091   1.990  0.00  0.00     0.036 A 
HETATM   18  C   UNK N   1      21.590  20.480   2.236  0.00  0.00     0.003 A 
HETATM   19  C   UNK N   1      22.348  19.803   3.194  0.00  0.00     0.007 A 
BRANCH  16  20
HETATM   20  O   UNK N   1      18.442  18.654   2.459  0.00  0.00    -0.361 OA
HETATM   21  H   UNK N   1      17.643  19.053   2.176  0.00  0.00     0.217 HD
ENDBRANCH  16  20
ENDBRANCH  13  14
ENDBRANCH  12  13
BRANCH   1  22
HETATM   22  C   UNK N   1      27.213  19.582   5.749  0.00  0.00     0.044 C 
HETATM   23  C   UNK N   1      28.140  20.087   4.663  0.00  0.00     0.039 C 
HETATM   24  C   UNK N   1      26.583  20.775   6.448  0.00  0.00     0.039 C 
HETATM   25  C   UNK N   1      28.047  18.840   6.781  0.00  0.00     0.039 C 
ENDBRANCH   1  22
BRANCH  10  26
HETATM   26  N   UNK N   1      23.747  15.323   3.028  0.00  0.00    -0.385 N 
HETATM   27  H   UNK N   1      23.250  15.476   2.192  0.00  0.00     0.157 HD
HETATM   28  H   UNK N   1      23.401  14.689   3.696  0.00  0.00     0.157 HD
ENDBRANCH  10  26
TORSDOF 5
ENDMDL
MODEL 7
REMARK VINA RESULT:      -6.4     14.385     17.215
REMARK  5 active torsions:
REMARK  status: ('A' for Active; 'I' for Inactive)
REMARK    1  A    between atoms: C_2  and  N_5 
REMARK    2  A    between atoms: C_14  and  N_15 
REMARK    3  A    between atoms: C_17  and  C_18 
REMARK    4  A    between atoms: C_18  and  C_19 
REMARK    5  A    between atoms: C_24  and  O_25 
ROOT
HETATM    1  N   UNK N   1      35.302  10.771  16.124  0.00  0.00    -0.267 N 
HETATM    2  N   UNK N   1      35.216   9.810  17.033  0.00  0.00    -0.299 N 
ATOM      3  HN  UNK N   1      35.157   8.811  16.832  1.00  0.00     0.187 HD
HETATM    4  C   UNK N   1      35.386  11.953  16.767  0.00  0.00     0.140 A 
HETATM    5  N   UNK N   1      35.508  13.177  16.202  0.00  0.00    -0.336 N 
ATOM      6  HN  UNK N   1      35.557  13.278  15.187  1.00  0.00     0.168 HD
HETATM    7  C   UNK N   1      35.562  14.270  17.009  0.00  0.00     0.183 A 
HETATM    8  N   UNK N   1      35.458  14.130  18.363  0.00  0.00    -0.338 N 
ATOM      9  HN  UNK N   1      35.479  14.962  18.952  1.00  0.00     0.168 HD
HETATM   10  C   UNK N   1      35.327  12.904  18.947  0.00  0.00     0.116 A 
HETATM   11  C   UNK N   1      35.315  11.761  18.122  0.00  0.00     0.077 A 
HETATM   12  C   UNK N   1      35.221  10.362  18.271  0.00  0.00     0.048 A 
ENDROOT
BRANCH  12  13
HETATM   13  C   UNK N   1      35.125   9.454  19.478  0.00  0.00     0.098 C 
BRANCH  13  14
HETATM   14  C   UNK N   1      33.832   9.321  20.195  0.00  0.00    -0.050 A 
HETATM   15  C   UNK N   1      33.646   9.893  21.461  0.00  0.00     0.044 A 
HETATM   16  C   UNK N   1      32.407   9.775  22.102  0.00  0.00     0.066 A 
HETATM   17  C   UNK N   1      31.372   9.054  21.498  0.00  0.00     0.036 A 
HETATM   18  C   UNK N   1      31.573   8.447  20.255  0.00  0.00     0.003 A 
HETATM   19  C   UNK N   1      32.800   8.584  19.604  0.00  0.00     0.007 A 
BRANCH  16  20
HETATM   20  O   UNK N   1      32.203  10.375  23.285  0.00  0.00    -0.361 OA
HETATM   21  H   UNK N   1      32.255  10.163  24.196  0.00  0.00     0.217 HD
ENDBRANCH  16  20
ENDBRANCH  13  14
ENDBRANCH  12  13
BRANCH   1  22
HETATM   22  C   UNK N   1      35.261  10.498  14.674  0.00  0.00     0.044 C 
HETATM   23  C   UNK N   1      35.493   9.021  14.423  0.00  0.00     0.039 C 
HETATM   24  C   UNK N   1      33.893  10.876  14.135  0.00  0.00     0.039 C 
HETATM   25  C   UNK N   1      36.294  11.283  13.881  0.00  0.00     0.039 C 
ENDBRANCH   1  22
BRANCH  10  26
HETATM   26  N   UNK N   1      35.154  12.838  20.337  0.00  0.00    -0.385 N 
HETATM   27  H   UNK N   1      35.937  12.818  20.932  0.00  0.00     0.157 HD
HETATM   28  H   UNK N   1      34.247  12.812  20.717  0.00  0.00     0.157 HD
ENDBRANCH  10  26
TORSDOF 5
ENDMDL
MODEL 8
REMARK VINA RESULT:      -6.3     10.640     12.757
REMARK  5 active torsions:
REMARK  status: ('A' for Active; 'I' for Inactive)
REMARK    1  A    between atoms: C_2  and  N_5 
REMARK    2  A    between atoms: C_14  and  N_15 
REMARK    3  A    between atoms: C_17  and  C_18 
REMARK    4  A    between atoms: C_18  and  C_19 
REMARK    5  A    between atoms: C_24  and  O_25 
ROOT
HETATM    1  N   UNK N   1      29.182  23.212  -4.357  0.00  0.00    -0.267 N 
HETATM    2  N   UNK N   1      28.450  24.141  -3.758  0.00  0.00    -0.299 N 
ATOM      3  HN  UNK N   1      28.655  24.561  -2.851  1.00  0.00     0.187 HD
HETATM    4  C   UNK N   1      28.611  22.924  -5.543  0.00  0.00     0.140 A 
HETATM    5  N   UNK N   1      29.059  22.042  -6.467  0.00  0.00    -0.336 N 
ATOM      6  HN  UNK N   1      29.920  21.517  -6.309  1.00  0.00     0.168 HD
HETATM    7  C   UNK N   1      28.341  21.866  -7.609  0.00  0.00     0.183 A 
HETATM    8  N   UNK N   1      27.172  22.543  -7.796  0.00  0.00    -0.338 N 
ATOM      9  HN  UNK N   1      26.634  22.382  -8.648  1.00  0.00     0.168 HD
HETATM   10  C   UNK N   1      26.702  23.429  -6.871  0.00  0.00     0.116 A 
HETATM   11  C   UNK N   1      27.462  23.653  -5.705  0.00  0.00     0.077 A 
HETATM   12  C   UNK N   1      27.386  24.446  -4.541  0.00  0.00     0.048 A 
ENDROOT
BRANCH  12  13
HETATM   13  C   UNK N   1      26.398  25.486  -4.060  0.00  0.00     0.098 C 
BRANCH  13  14
HETATM   14  C   UNK N   1      26.616  26.916  -4.395  0.00  0.00    -0.050 A 
HETATM   15  C   UNK N   1      26.191  27.933  -3.529  0.00  0.00     0.044 A 
HETATM   16  C   UNK N   1      26.435  29.272  -3.857  0.00  0.00     0.066 A 
HETATM   17  C   UNK N   1      27.065  29.594  -5.064  0.00  0.00     0.036 A 
HETATM   18  C   UNK N   1      27.449  28.580  -5.946  0.00  0.00     0.003 A 
HETATM   19  C   UNK N   1      27.228  27.243  -5.609  0.00  0.00     0.007 A 
BRANCH  16  20
HETATM   20  O   UNK N   1      26.088  30.247  -3.003  0.00  0.00    -0.361 OA
HETATM   21  H   UNK N   1      25.309  30.598  -2.620  0.00  0.00     0.217 HD
ENDBRANCH  16  20
ENDBRANCH  13  14
ENDBRANCH  12  13
BRANCH   1  22
HETATM   22  C   UNK N   1      30.382  22.622  -3.730  0.00  0.00     0.044 C 
HETATM   23  C   UNK N   1      31.630  23.210  -4.357  0.00  0.00     0.039 C 
HETATM   24  C   UNK N   1      30.380  22.948  -2.247  0.00  0.00     0.039 C 
HETATM   25  C   UNK N   1      30.450  21.109  -3.861  0.00  0.00     0.039 C 
ENDBRANCH   1  22
BRANCH  10  26
HETATM   26  N   UNK N   1      25.459  24.037  -7.094  0.00  0.00    -0.385 N 
HETATM   27  H   UNK N   1      25.259  24.448  -7.966  0.00  0.00     0.157 HD
HETATM   28  H   UNK N   1      24.784  24.052  -6.378  0.00  0.00     0.157 HD
ENDBRANCH  10  26
TORSDOF 5
ENDMDL
MODEL 9
REMARK VINA RESULT:      -6.3      3.586      6.988
REMARK  5 active torsions:
REMARK  status: ('A' for Active; 'I' for Inactive)
REMARK    1  A    between atoms: C_2  and  N_5 
REMARK    2  A    between atoms: C_14  and  N_15 
REMARK    3  A    between atoms: C_17  and  C_18 
REMARK    4  A    between atoms: C_18  and  C_19 
REMARK    5  A    between atoms: C_24  and  O_25 
ROOT
HETATM    1  N   UNK N   1      27.623  18.505   4.202  0.00  0.00    -0.267 N 
HETATM    2  N   UNK N   1      28.917  18.429   4.479  0.00  0.00    -0.299 N 
ATOM      3  HN  UNK N   1      29.460  19.146   4.960  1.00  0.00     0.187 HD
HETATM    4  C   UNK N   1      27.256  17.364   3.584  0.00  0.00     0.140 A 
HETATM    5  N   UNK N   1      26.015  17.037   3.155  0.00  0.00    -0.336 N 
ATOM      6  HN  UNK N   1      25.232  17.676   3.295  1.00  0.00     0.168 HD
HETATM    7  C   UNK N   1      25.830  15.841   2.533  0.00  0.00     0.183 A 
HETATM    8  N   UNK N   1      26.889  15.009   2.316  0.00  0.00    -0.338 N 
ATOM      9  HN  UNK N   1      26.737  14.126   1.829  1.00  0.00     0.168 HD
HETATM   10  C   UNK N   1      28.148  15.328   2.736  0.00  0.00     0.116 A 
HETATM   11  C   UNK N   1      28.342  16.544   3.421  0.00  0.00     0.077 A 
HETATM   12  C   UNK N   1      29.404  17.249   4.023  0.00  0.00     0.048 A 
ENDROOT
BRANCH  12  13
HETATM   13  C   UNK N   1      30.872  16.938   4.222  0.00  0.00     0.098 C 
BRANCH  13  14
HETATM   14  C   UNK N   1      31.490  17.136   5.558  0.00  0.00    -0.050 A 
HETATM   15  C   UNK N   1      32.835  17.506   5.683  0.00  0.00     0.044 A 
HETATM   16  C   UNK N   1      33.384  17.712   6.954  0.00  0.00     0.066 A 
HETATM   17  C   UNK N   1      32.601  17.509   8.096  0.00  0.00     0.036 A 
HETATM   18  C   UNK N   1      31.272  17.097   7.970  0.00  0.00     0.003 A 
HETATM   19  C   UNK N   1      30.717  16.914   6.702  0.00  0.00     0.007 A 
BRANCH  16  20
HETATM   20  O   UNK N   1      34.653  18.130   7.079  0.00  0.00    -0.361 OA
HETATM   21  H   UNK N   1      35.143  18.732   7.603  0.00  0.00     0.217 HD
ENDBRANCH  16  20
ENDBRANCH  13  14
ENDBRANCH  12  13
BRANCH   1  22
HETATM   22  C   UNK N   1      26.812  19.698   4.517  0.00  0.00     0.044 C 
HETATM   23  C   UNK N   1      27.598  20.629   5.418  0.00  0.00     0.039 C 
HETATM   24  C   UNK N   1      26.481  20.429   3.228  0.00  0.00     0.039 C 
HETATM   25  C   UNK N   1      25.495  19.370   5.203  0.00  0.00     0.039 C 
ENDBRANCH   1  22
BRANCH  10  26
HETATM   26  N   UNK N   1      29.201  14.460   2.418  0.00  0.00    -0.385 N 
HETATM   27  H   UNK N   1      29.602  13.892   3.115  0.00  0.00     0.157 HD
HETATM   28  H   UNK N   1      29.541  14.418   1.495  0.00  0.00     0.157 HD
ENDBRANCH  10  26
TORSDOF 5
ENDMDL
