REMARK  4 active torsions:
REMARK  status: ('A' for Active; 'I' for Inactive)
REMARK    1  A    between atoms: C_2  and  C_3 
REMARK       I    between atoms: C_2  and  N_5 
REMARK    2  A    between atoms: N_5  and  C_6 
REMARK    3  A    between atoms: C_12  and  N_18 
REMARK    4  A    between atoms: N_18  and  C_19 
ROOT
HETATM    1  C   UNK N   1      -1.139  -0.934  -0.000  0.00  0.00     0.036 A 
HETATM    2  C   UNK N   1       0.074  -0.261  -0.000  0.00  0.00     0.047 A 
HETATM    3  C   UNK N   1      -1.143  -2.344  -0.000  0.00  0.00     0.032 A 
HETATM    4  C   UNK N   1       0.072  -3.053  -0.000  0.00  0.00     0.033 A 
HETATM    5  C   UNK N   1       1.290  -2.356   0.000  0.00  0.00     0.047 A 
HETATM    6  C   UNK N   1       1.280  -0.953   0.000  0.00  0.00     0.037 A 
HETATM    7  C   UNK N   1       2.491  -0.264   0.000  0.00  0.00     0.119 A 
HETATM    8  N   UNK N   1       3.658  -0.963   0.000  0.00  0.00    -0.338 N 
ATOM      9  HN  UNK N   1       4.546  -0.462   0.000  1.00  0.00     0.168 HD
HETATM   10  C   UNK N   1       3.654  -2.329   0.000  0.00  0.00     0.182 A 
HETATM   11  N   UNK N   1       2.476  -3.016   0.000  0.00  0.00    -0.352 N 
ATOM     12  HN  UNK N   1       2.486  -4.036   0.000  1.00  0.00     0.166 HD
ENDROOT
BRANCH   7  13
HETATM   13  N   UNK N   1       2.459   1.160   0.000  0.00  0.00    -0.342 N 
HETATM   14  H   UNK N   1       1.562   1.566   0.000  0.00  0.00     0.167 HD
BRANCH  13  15
HETATM   15  C   UNK N   1       3.543   2.070   0.000  0.00  0.00     0.033 A 
HETATM   16  C   UNK N   1       3.251   3.439   0.000  0.00  0.00     0.029 A 
HETATM   17  C   UNK N   1       4.278   4.382   0.000  0.00  0.00     0.002 A 
HETATM   18  C   UNK N   1       5.609   3.960  -0.000  0.00  0.00     0.000 A 
HETATM   19  C   UNK N   1       5.910   2.594  -0.000  0.00  0.00     0.002 A 
HETATM   20  C   UNK N   1       4.879   1.648  -0.000  0.00  0.00     0.029 A 
ENDBRANCH  13  15
ENDBRANCH   7  13
BRANCH   1  21
HETATM   21  N   UNK N   1      -2.321  -0.144  -0.000  0.00  0.00    -0.324 N 
HETATM   22  C   UNK N   1      -3.605  -0.576  -0.000  0.00  0.00     0.244 C 
HETATM   23  O   UNK N   1      -3.872  -1.769  -0.000  0.00  0.00    -0.268 OA
HETATM   24  H   UNK N   1      -2.191   0.832  -0.000  0.00  0.00     0.169 HD
BRANCH  22  25
HETATM   25  C   UNK N   1      -4.678   0.434  -0.000  0.00  0.00     0.064 C 
HETATM   26  C   UNK N   1      -5.966   0.101   0.000  0.00  0.00     0.017 C 
ENDBRANCH  22  25
ENDBRANCH   1  21
TORSDOF 4
