MODEL 1
REMARK VINA RESULT:      -6.8      0.000      0.000
REMARK  4 active torsions:
REMARK  status: ('A' for Active; 'I' for Inactive)
REMARK    1  A    between atoms: C_2  and  C_3 
REMARK       I    between atoms: C_2  and  N_5 
REMARK    2  A    between atoms: N_5  and  C_6 
REMARK    3  A    between atoms: C_12  and  N_18 
REMARK    4  A    between atoms: N_18  and  C_19 
ROOT
HETATM    1  C   UNK N   1      26.454  27.873  -3.416  0.00  0.00     0.036 A 
HETATM    2  C   UNK N   1      26.948  26.577  -3.402  0.00  0.00     0.047 A 
HETATM    3  C   UNK N   1      25.552  28.254  -4.431  0.00  0.00     0.032 A 
HETATM    4  C   UNK N   1      25.163  27.326  -5.414  0.00  0.00     0.033 A 
HETATM    5  C   UNK N   1      25.673  26.019  -5.384  0.00  0.00     0.047 A 
HETATM    6  C   UNK N   1      26.570  25.653  -4.369  0.00  0.00     0.037 A 
HETATM    7  C   UNK N   1      27.075  24.355  -4.343  0.00  0.00     0.119 A 
HETATM    8  N   UNK N   1      26.690  23.468  -5.300  0.00  0.00    -0.338 N 
ATOM      9  HN  UNK N   1      27.057  22.517  -5.283  1.00  0.00     0.168 HD
HETATM   10  C   UNK N   1      25.816  23.837  -6.283  0.00  0.00     0.182 A 
HETATM   11  N   UNK N   1      25.314  25.104  -6.321  0.00  0.00    -0.352 N 
ATOM     12  HN  UNK N   1      24.663  25.368  -7.060  1.00  0.00     0.166 HD
ENDROOT
BRANCH   7  13
HETATM   13  N   UNK N   1      27.983  24.003  -3.304  0.00  0.00    -0.342 N 
HETATM   14  H   UNK N   1      27.631  24.073  -2.387  0.00  0.00     0.167 HD
BRANCH  13  15
HETATM   15  C   UNK N   1      29.325  23.567  -3.411  0.00  0.00     0.033 A 
HETATM   16  C   UNK N   1      30.201  24.323  -4.199  0.00  0.00     0.029 A 
HETATM   17  C   UNK N   1      31.534  23.942  -4.342  0.00  0.00     0.002 A 
HETATM   18  C   UNK N   1      32.003  22.796  -3.695  0.00  0.00     0.000 A 
HETATM   19  C   UNK N   1      31.135  22.034  -2.905  0.00  0.00     0.002 A 
HETATM   20  C   UNK N   1      29.797  22.418  -2.762  0.00  0.00     0.029 A 
ENDBRANCH  13  15
ENDBRANCH   7  13
BRANCH   1  21
HETATM   21  N   UNK N   1      26.896  28.749  -2.387  0.00  0.00    -0.324 N 
HETATM   22  C   UNK N   1      27.964  29.583  -2.413  0.00  0.00     0.244 C 
HETATM   23  O   UNK N   1      28.688  29.654  -3.395  0.00  0.00    -0.268 OA
HETATM   24  H   UNK N   1      26.364  28.751  -1.559  0.00  0.00     0.169 HD
BRANCH  22  25
HETATM   25  C   UNK N   1      28.232  30.405  -1.220  0.00  0.00     0.064 C 
HETATM   26  C   UNK N   1      28.302  29.882   0.002  0.00  0.00     0.017 C 
ENDBRANCH  22  25
ENDBRANCH   1  21
TORSDOF 4
ENDMDL
MODEL 2
REMARK VINA RESULT:      -6.8     16.475     17.853
REMARK  4 active torsions:
REMARK  status: ('A' for Active; 'I' for Inactive)
REMARK    1  A    between atoms: C_2  and  C_3 
REMARK       I    between atoms: C_2  and  N_5 
REMARK    2  A    between atoms: N_5  and  C_6 
REMARK    3  A    between atoms: C_12  and  N_18 
REMARK    4  A    between atoms: N_18  and  C_19 
ROOT
HETATM    1  C   UNK N   1      20.316  17.095   8.094  0.00  0.00     0.036 A 
HETATM    2  C   UNK N   1      20.859  15.820   8.165  0.00  0.00     0.047 A 
HETATM    3  C   UNK N   1      20.761  17.977   7.089  0.00  0.00     0.032 A 
HETATM    4  C   UNK N   1      21.744  17.563   6.172  0.00  0.00     0.033 A 
HETATM    5  C   UNK N   1      22.283  16.270   6.258  0.00  0.00     0.047 A 
HETATM    6  C   UNK N   1      21.831  15.402   7.263  0.00  0.00     0.037 A 
HETATM    7  C   UNK N   1      22.367  14.119   7.345  0.00  0.00     0.119 A 
HETATM    8  N   UNK N   1      23.317  13.733   6.452  0.00  0.00    -0.338 N 
ATOM      9  HN  UNK N   1      23.712  12.794   6.509  1.00  0.00     0.168 HD
HETATM   10  C   UNK N   1      23.749  14.588   5.478  0.00  0.00     0.182 A 
HETATM   11  N   UNK N   1      23.232  15.846   5.385  0.00  0.00    -0.352 N 
ATOM     12  HN  UNK N   1      23.562  16.476   4.654  1.00  0.00     0.166 HD
ENDROOT
BRANCH   7  13
HETATM   13  N   UNK N   1      21.895  13.253   8.373  0.00  0.00    -0.342 N 
HETATM   14  H   UNK N   1      20.976  12.919   8.260  0.00  0.00     0.167 HD
BRANCH  13  15
HETATM   15  C   UNK N   1      22.569  12.808   9.535  0.00  0.00     0.033 A 
HETATM   16  C   UNK N   1      21.798  12.468  10.652  0.00  0.00     0.029 A 
HETATM   17  C   UNK N   1      22.407  12.024  11.825  0.00  0.00     0.002 A 
HETATM   18  C   UNK N   1      23.798  11.915  11.888  0.00  0.00     0.000 A 
HETATM   19  C   UNK N   1      24.577  12.252  10.776  0.00  0.00     0.002 A 
HETATM   20  C   UNK N   1      23.965  12.698   9.599  0.00  0.00     0.029 A 
ENDBRANCH  13  15
ENDBRANCH   7  13
BRANCH   1  21
HETATM   21  N   UNK N   1      19.327  17.435   9.058  0.00  0.00    -0.324 N 
HETATM   22  C   UNK N   1      17.991  17.222   8.984  0.00  0.00     0.244 C 
HETATM   23  O   UNK N   1      17.489  16.680   8.010  0.00  0.00    -0.268 OA
HETATM   24  H   UNK N   1      19.652  17.877   9.876  0.00  0.00     0.169 HD
BRANCH  22  25
HETATM   25  C   UNK N   1      17.154  17.662  10.113  0.00  0.00     0.064 C 
HETATM   26  C   UNK N   1      17.495  18.685  10.893  0.00  0.00     0.017 C 
ENDBRANCH  22  25
ENDBRANCH   1  21
TORSDOF 4
ENDMDL
MODEL 3
REMARK VINA RESULT:      -6.5      2.878      5.699
REMARK  4 active torsions:
REMARK  status: ('A' for Active; 'I' for Inactive)
REMARK    1  A    between atoms: C_2  and  C_3 
REMARK       I    between atoms: C_2  and  N_5 
REMARK    2  A    between atoms: N_5  and  C_6 
REMARK    3  A    between atoms: C_12  and  N_18 
REMARK    4  A    between atoms: N_18  and  C_19 
ROOT
HETATM    1  C   UNK N   1      26.007  24.455  -7.280  0.00  0.00     0.036 A 
HETATM    2  C   UNK N   1      26.342  24.460  -5.934  0.00  0.00     0.047 A 
HETATM    3  C   UNK N   1      25.471  25.624  -7.859  0.00  0.00     0.032 A 
HETATM    4  C   UNK N   1      25.282  26.776  -7.075  0.00  0.00     0.033 A 
HETATM    5  C   UNK N   1      25.626  26.764  -5.715  0.00  0.00     0.047 A 
HETATM    6  C   UNK N   1      26.158  25.594  -5.151  0.00  0.00     0.037 A 
HETATM    7  C   UNK N   1      26.500  25.585  -3.800  0.00  0.00     0.119 A 
HETATM    8  N   UNK N   1      26.311  26.707  -3.055  0.00  0.00    -0.338 N 
ATOM      9  HN  UNK N   1      26.559  26.704  -2.066  1.00  0.00     0.168 HD
HETATM   10  C   UNK N   1      25.792  27.839  -3.616  0.00  0.00     0.182 A 
HETATM   11  N   UNK N   1      25.453  27.862  -4.937  0.00  0.00    -0.352 N 
ATOM     12  HN  UNK N   1      25.067  28.714  -5.345  1.00  0.00     0.166 HD
ENDROOT
BRANCH   7  13
HETATM   13  N   UNK N   1      27.038  24.388  -3.247  0.00  0.00    -0.342 N 
HETATM   14  H   UNK N   1      26.378  23.736  -2.917  0.00  0.00     0.167 HD
BRANCH  13  15
HETATM   15  C   UNK N   1      28.395  24.009  -3.108  0.00  0.00     0.033 A 
HETATM   16  C   UNK N   1      29.347  24.681  -3.883  0.00  0.00     0.029 A 
HETATM   17  C   UNK N   1      30.698  24.351  -3.789  0.00  0.00     0.002 A 
HETATM   18  C   UNK N   1      31.108  23.342  -2.914  0.00  0.00     0.000 A 
HETATM   19  C   UNK N   1      30.163  22.665  -2.136  0.00  0.00     0.002 A 
HETATM   20  C   UNK N   1      28.807  22.997  -2.231  0.00  0.00     0.029 A 
ENDBRANCH  13  15
ENDBRANCH   7  13
BRANCH   1  21
HETATM   21  N   UNK N   1      26.229  23.250  -8.001  0.00  0.00    -0.324 N 
HETATM   22  C   UNK N   1      25.315  22.314  -8.350  0.00  0.00     0.244 C 
HETATM   23  O   UNK N   1      24.136  22.438  -8.052  0.00  0.00    -0.268 OA
HETATM   24  H   UNK N   1      27.158  23.076  -8.279  0.00  0.00     0.169 HD
BRANCH  22  25
HETATM   25  C   UNK N   1      25.779  21.136  -9.104  0.00  0.00     0.064 C 
HETATM   26  C   UNK N   1      26.161  21.212 -10.376  0.00  0.00     0.017 C 
ENDBRANCH  22  25
ENDBRANCH   1  21
TORSDOF 4
ENDMDL
MODEL 4
REMARK VINA RESULT:      -6.5      2.431      6.033
REMARK  4 active torsions:
REMARK  status: ('A' for Active; 'I' for Inactive)
REMARK    1  A    between atoms: C_2  and  C_3 
REMARK       I    between atoms: C_2  and  N_5 
REMARK    2  A    between atoms: N_5  and  C_6 
REMARK    3  A    between atoms: C_12  and  N_18 
REMARK    4  A    between atoms: N_18  and  C_19 
ROOT
HETATM    1  C   UNK N   1      30.162  25.105  -3.762  0.00  0.00     0.036 A 
HETATM    2  C   UNK N   1      28.812  25.235  -4.052  0.00  0.00     0.047 A 
HETATM    3  C   UNK N   1      30.916  26.260  -3.466  0.00  0.00     0.032 A 
HETATM    4  C   UNK N   1      30.299  27.524  -3.466  0.00  0.00     0.033 A 
HETATM    5  C   UNK N   1      28.932  27.637  -3.761  0.00  0.00     0.047 A 
HETATM    6  C   UNK N   1      28.194  26.480  -4.055  0.00  0.00     0.037 A 
HETATM    7  C   UNK N   1      26.837  26.596  -4.348  0.00  0.00     0.119 A 
HETATM    8  N   UNK N   1      26.254  27.825  -4.344  0.00  0.00    -0.338 N 
ATOM      9  HN  UNK N   1      25.261  27.913  -4.558  1.00  0.00     0.168 HD
HETATM   10  C   UNK N   1      26.984  28.943  -4.057  0.00  0.00     0.182 A 
HETATM   11  N   UNK N   1      28.313  28.845  -3.768  0.00  0.00    -0.352 N 
ATOM     12  HN  UNK N   1      28.848  29.687  -3.555  1.00  0.00     0.166 HD
ENDROOT
BRANCH   7  13
HETATM   13  N   UNK N   1      26.105  25.410  -4.642  0.00  0.00    -0.342 N 
HETATM   14  H   UNK N   1      25.664  24.980  -3.875  0.00  0.00     0.167 HD
BRANCH  13  15
HETATM   15  C   UNK N   1      25.927  24.767  -5.891  0.00  0.00     0.033 A 
HETATM   16  C   UNK N   1      25.852  23.369  -5.904  0.00  0.00     0.029 A 
HETATM   17  C   UNK N   1      25.678  22.681  -7.104  0.00  0.00     0.002 A 
HETATM   18  C   UNK N   1      25.577  23.389  -8.303  0.00  0.00     0.000 A 
HETATM   19  C   UNK N   1      25.651  24.786  -8.299  0.00  0.00     0.002 A 
HETATM   20  C   UNK N   1      25.826  25.476  -7.094  0.00  0.00     0.029 A 
ENDBRANCH  13  15
ENDBRANCH   7  13
BRANCH   1  21
HETATM   21  N   UNK N   1      30.709  23.793  -3.783  0.00  0.00    -0.324 N 
HETATM   22  C   UNK N   1      30.850  22.939  -2.741  0.00  0.00     0.244 C 
HETATM   23  O   UNK N   1      30.492  23.249  -1.615  0.00  0.00    -0.268 OA
HETATM   24  H   UNK N   1      31.022  23.467  -4.658  0.00  0.00     0.169 HD
BRANCH  22  25
HETATM   25  C   UNK N   1      31.449  21.618  -3.002  0.00  0.00     0.064 C 
HETATM   26  C   UNK N   1      30.963  20.788  -3.921  0.00  0.00     0.017 C 
ENDBRANCH  22  25
ENDBRANCH   1  21
TORSDOF 4
ENDMDL
MODEL 5
REMARK VINA RESULT:      -6.4      3.088      6.595
REMARK  4 active torsions:
REMARK  status: ('A' for Active; 'I' for Inactive)
REMARK    1  A    between atoms: C_2  and  C_3 
REMARK       I    between atoms: C_2  and  N_5 
REMARK    2  A    between atoms: N_5  and  C_6 
REMARK    3  A    between atoms: C_12  and  N_18 
REMARK    4  A    between atoms: N_18  and  C_19 
ROOT
HETATM    1  C   UNK N   1      29.803  22.321  -5.945  0.00  0.00     0.036 A 
HETATM    2  C   UNK N   1      28.545  22.849  -5.694  0.00  0.00     0.047 A 
HETATM    3  C   UNK N   1      30.054  21.705  -7.188  0.00  0.00     0.032 A 
HETATM    4  C   UNK N   1      29.037  21.630  -8.157  0.00  0.00     0.033 A 
HETATM    5  C   UNK N   1      27.770  22.169  -7.886  0.00  0.00     0.047 A 
HETATM    6  C   UNK N   1      27.533  22.779  -6.645  0.00  0.00     0.037 A 
HETATM    7  C   UNK N   1      26.274  23.314  -6.379  0.00  0.00     0.119 A 
HETATM    8  N   UNK N   1      25.301  23.234  -7.326  0.00  0.00    -0.338 N 
ATOM      9  HN  UNK N   1      24.378  23.624  -7.135  1.00  0.00     0.168 HD
HETATM   10  C   UNK N   1      25.544  22.637  -8.530  0.00  0.00     0.182 A 
HETATM   11  N   UNK N   1      26.772  22.109  -8.803  0.00  0.00    -0.352 N 
ATOM     12  HN  UNK N   1      26.941  21.666  -9.706  1.00  0.00     0.166 HD
ENDROOT
BRANCH   7  13
HETATM   13  N   UNK N   1      26.054  23.929  -5.114  0.00  0.00    -0.342 N 
HETATM   14  H   UNK N   1      26.018  23.318  -4.343  0.00  0.00     0.167 HD
BRANCH  13  15
HETATM   15  C   UNK N   1      25.881  25.302  -4.815  0.00  0.00     0.033 A 
HETATM   16  C   UNK N   1      26.472  25.799  -3.648  0.00  0.00     0.029 A 
HETATM   17  C   UNK N   1      26.335  27.143  -3.302  0.00  0.00     0.002 A 
HETATM   18  C   UNK N   1      25.603  28.001  -4.125  0.00  0.00     0.000 A 
HETATM   19  C   UNK N   1      25.010  27.513  -5.294  0.00  0.00     0.002 A 
HETATM   20  C   UNK N   1      25.147  26.164  -5.640  0.00  0.00     0.029 A 
ENDBRANCH  13  15
ENDBRANCH   7  13
BRANCH   1  21
HETATM   21  N   UNK N   1      30.775  22.438  -4.914  0.00  0.00    -0.324 N 
HETATM   22  C   UNK N   1      31.022  21.566  -3.907  0.00  0.00     0.244 C 
HETATM   23  O   UNK N   1      30.381  20.531  -3.794  0.00  0.00    -0.268 OA
HETATM   24  H   UNK N   1      31.335  23.248  -4.935  0.00  0.00     0.169 HD
BRANCH  22  25
HETATM   25  C   UNK N   1      32.088  21.899  -2.946  0.00  0.00     0.064 C 
HETATM   26  C   UNK N   1      33.186  21.160  -2.820  0.00  0.00     0.017 C 
ENDBRANCH  22  25
ENDBRANCH   1  21
TORSDOF 4
ENDMDL
MODEL 6
REMARK VINA RESULT:      -6.4     11.022     14.431
REMARK  4 active torsions:
REMARK  status: ('A' for Active; 'I' for Inactive)
REMARK    1  A    between atoms: C_2  and  C_3 
REMARK       I    between atoms: C_2  and  N_5 
REMARK    2  A    between atoms: N_5  and  C_6 
REMARK    3  A    between atoms: C_12  and  N_18 
REMARK    4  A    between atoms: N_18  and  C_19 
ROOT
HETATM    1  C   UNK N   1      31.625  16.580   6.165  0.00  0.00     0.036 A 
HETATM    2  C   UNK N   1      30.270  16.853   6.279  0.00  0.00     0.047 A 
HETATM    3  C   UNK N   1      32.468  16.805   7.273  0.00  0.00     0.032 A 
HETATM    4  C   UNK N   1      31.934  17.301   8.476  0.00  0.00     0.033 A 
HETATM    5  C   UNK N   1      30.560  17.572   8.574  0.00  0.00     0.047 A 
HETATM    6  C   UNK N   1      29.733  17.344   7.464  0.00  0.00     0.037 A 
HETATM    7  C   UNK N   1      28.370  17.614   7.564  0.00  0.00     0.119 A 
HETATM    8  N   UNK N   1      27.868  18.094   8.734  0.00  0.00    -0.338 N 
ATOM      9  HN  UNK N   1      26.871  18.293   8.811  1.00  0.00     0.168 HD
HETATM   10  C   UNK N   1      28.684  18.312   9.807  0.00  0.00     0.182 A 
HETATM   11  N   UNK N   1      30.020  18.051   9.723  0.00  0.00    -0.352 N 
ATOM     12  HN  UNK N   1      30.619  18.218  10.532  1.00  0.00     0.166 HD
ENDROOT
BRANCH   7  13
HETATM   13  N   UNK N   1      27.547  17.376   6.426  0.00  0.00    -0.342 N 
HETATM   14  H   UNK N   1      27.245  16.447   6.306  0.00  0.00     0.167 HD
BRANCH  13  15
HETATM   15  C   UNK N   1      27.106  18.295   5.444  0.00  0.00     0.033 A 
HETATM   16  C   UNK N   1      27.569  19.613   5.524  0.00  0.00     0.029 A 
HETATM   17  C   UNK N   1      27.169  20.562   4.584  0.00  0.00     0.002 A 
HETATM   18  C   UNK N   1      26.299  20.197   3.555  0.00  0.00     0.000 A 
HETATM   19  C   UNK N   1      25.832  18.882   3.467  0.00  0.00     0.002 A 
HETATM   20  C   UNK N   1      26.234  17.929   4.410  0.00  0.00     0.029 A 
ENDBRANCH  13  15
ENDBRANCH   7  13
BRANCH   1  21
HETATM   21  N   UNK N   1      32.085  16.081   4.916  0.00  0.00    -0.324 N 
HETATM   22  C   UNK N   1      32.755  16.756   3.951  0.00  0.00     0.244 C 
HETATM   23  O   UNK N   1      33.039  17.938   4.086  0.00  0.00    -0.268 OA
HETATM   24  H   UNK N   1      31.895  15.133   4.730  0.00  0.00     0.169 HD
BRANCH  22  25
HETATM   25  C   UNK N   1      33.134  16.027   2.728  0.00  0.00     0.064 C 
HETATM   26  C   UNK N   1      33.798  14.875   2.766  0.00  0.00     0.017 C 
ENDBRANCH  22  25
ENDBRANCH   1  21
TORSDOF 4
ENDMDL
MODEL 7
REMARK VINA RESULT:      -6.3     12.663     14.500
REMARK  4 active torsions:
REMARK  status: ('A' for Active; 'I' for Inactive)
REMARK    1  A    between atoms: C_2  and  C_3 
REMARK       I    between atoms: C_2  and  N_5 
REMARK    2  A    between atoms: N_5  and  C_6 
REMARK    3  A    between atoms: C_12  and  N_18 
REMARK    4  A    between atoms: N_18  and  C_19 
ROOT
HETATM    1  C   UNK N   1      31.100  17.452   8.551  0.00  0.00     0.036 A 
HETATM    2  C   UNK N   1      30.669  16.801   7.404  0.00  0.00     0.047 A 
HETATM    3  C   UNK N   1      30.276  18.437   9.133  0.00  0.00     0.032 A 
HETATM    4  C   UNK N   1      29.033  18.750   8.553  0.00  0.00     0.033 A 
HETATM    5  C   UNK N   1      28.613  18.082   7.393  0.00  0.00     0.047 A 
HETATM    6  C   UNK N   1      29.442  17.104   6.824  0.00  0.00     0.037 A 
HETATM    7  C   UNK N   1      29.022  16.442   5.672  0.00  0.00     0.119 A 
HETATM    8  N   UNK N   1      27.818  16.756   5.122  0.00  0.00    -0.338 N 
ATOM      9  HN  UNK N   1      27.507  16.273   4.279  1.00  0.00     0.168 HD
HETATM   10  C   UNK N   1      27.020  17.710   5.686  0.00  0.00     0.182 A 
HETATM   11  N   UNK N   1      27.419  18.365   6.814  0.00  0.00    -0.352 N 
ATOM     12  HN  UNK N   1      26.814  19.076   7.226  1.00  0.00     0.166 HD
ENDROOT
BRANCH   7  13
HETATM   13  N   UNK N   1      29.879  15.453   5.110  0.00  0.00    -0.342 N 
HETATM   14  H   UNK N   1      29.620  14.518   5.280  0.00  0.00     0.167 HD
BRANCH  13  15
HETATM   15  C   UNK N   1      31.052  15.632   4.339  0.00  0.00     0.033 A 
HETATM   16  C   UNK N   1      31.946  14.559   4.245  0.00  0.00     0.029 A 
HETATM   17  C   UNK N   1      33.119  14.678   3.499  0.00  0.00     0.002 A 
HETATM   18  C   UNK N   1      33.405  15.875   2.840  0.00  0.00     0.000 A 
HETATM   19  C   UNK N   1      32.517  16.952   2.928  0.00  0.00     0.002 A 
HETATM   20  C   UNK N   1      31.341  16.833   3.677  0.00  0.00     0.029 A 
ENDBRANCH  13  15
ENDBRANCH   7  13
BRANCH   1  21
HETATM   21  N   UNK N   1      32.368  17.077   9.074  0.00  0.00    -0.324 N 
HETATM   22  C   UNK N   1      33.584  17.554   8.717  0.00  0.00     0.244 C 
HETATM   23  O   UNK N   1      33.700  18.410   7.851  0.00  0.00    -0.268 OA
HETATM   24  H   UNK N   1      32.361  16.389   9.779  0.00  0.00     0.169 HD
BRANCH  22  25
HETATM   25  C   UNK N   1      34.771  17.013   9.402  0.00  0.00     0.064 C 
HETATM   26  C   UNK N   1      34.707  15.954  10.204  0.00  0.00     0.017 C 
ENDBRANCH  22  25
ENDBRANCH   1  21
TORSDOF 4
ENDMDL
MODEL 8
REMARK VINA RESULT:      -6.3     19.564     23.097
REMARK  4 active torsions:
REMARK  status: ('A' for Active; 'I' for Inactive)
REMARK    1  A    between atoms: C_2  and  C_3 
REMARK       I    between atoms: C_2  and  N_5 
REMARK    2  A    between atoms: N_5  and  C_6 
REMARK    3  A    between atoms: C_12  and  N_18 
REMARK    4  A    between atoms: N_18  and  C_19 
ROOT
HETATM    1  C   UNK N   1      34.142  10.997  13.153  0.00  0.00     0.036 A 
HETATM    2  C   UNK N   1      35.063  11.986  12.837  0.00  0.00     0.047 A 
HETATM    3  C   UNK N   1      33.771  10.810  14.501  0.00  0.00     0.032 A 
HETATM    4  C   UNK N   1      34.330  11.619  15.506  0.00  0.00     0.033 A 
HETATM    5  C   UNK N   1      35.260  12.614  15.168  0.00  0.00     0.047 A 
HETATM    6  C   UNK N   1      35.621  12.791  13.824  0.00  0.00     0.037 A 
HETATM    7  C   UNK N   1      36.544  13.780  13.491  0.00  0.00     0.119 A 
HETATM    8  N   UNK N   1      37.077  14.555  14.474  0.00  0.00    -0.338 N 
ATOM      9  HN  UNK N   1      37.753  15.279  14.234  1.00  0.00     0.168 HD
HETATM   10  C   UNK N   1      36.717  14.373  15.779  0.00  0.00     0.182 A 
HETATM   11  N   UNK N   1      35.815  13.409  16.119  0.00  0.00    -0.352 N 
ATOM     12  HN  UNK N   1      35.554  13.283  17.097  1.00  0.00     0.166 HD
ENDROOT
BRANCH   7  13
HETATM   13  N   UNK N   1      36.898  13.942  12.121  0.00  0.00    -0.342 N 
HETATM   14  H   UNK N   1      37.711  13.469  11.832  0.00  0.00     0.167 HD
BRANCH  13  15
HETATM   15  C   UNK N   1      36.236  14.692  11.119  0.00  0.00     0.033 A 
HETATM   16  C   UNK N   1      36.091  14.112   9.853  0.00  0.00     0.029 A 
HETATM   17  C   UNK N   1      35.448  14.803   8.827  0.00  0.00     0.002 A 
HETATM   18  C   UNK N   1      34.945  16.084   9.061  0.00  0.00     0.000 A 
HETATM   19  C   UNK N   1      35.085  16.671  10.323  0.00  0.00     0.002 A 
HETATM   20  C   UNK N   1      35.730  15.977  11.352  0.00  0.00     0.029 A 
ENDBRANCH  13  15
ENDBRANCH   7  13
BRANCH   1  21
HETATM   21  N   UNK N   1      33.624  10.223  12.079  0.00  0.00    -0.324 N 
HETATM   22  C   UNK N   1      34.093   9.042  11.609  0.00  0.00     0.244 C 
HETATM   23  O   UNK N   1      35.073   8.506  12.106  0.00  0.00    -0.268 OA
HETATM   24  H   UNK N   1      32.831  10.588  11.624  0.00  0.00     0.169 HD
BRANCH  22  25
HETATM   25  C   UNK N   1      33.389   8.417  10.476  0.00  0.00     0.064 C 
HETATM   26  C   UNK N   1      32.251   8.906   9.990  0.00  0.00     0.017 C 
ENDBRANCH  22  25
ENDBRANCH   1  21
TORSDOF 4
ENDMDL
MODEL 9
REMARK VINA RESULT:      -6.3     16.813     19.887
REMARK  4 active torsions:
REMARK  status: ('A' for Active; 'I' for Inactive)
REMARK    1  A    between atoms: C_2  and  C_3 
REMARK       I    between atoms: C_2  and  N_5 
REMARK    2  A    between atoms: N_5  and  C_6 
REMARK    3  A    between atoms: C_12  and  N_18 
REMARK    4  A    between atoms: N_18  and  C_19 
ROOT
HETATM    1  C   UNK N   1      33.583  15.396   8.857  0.00  0.00     0.036 A 
HETATM    2  C   UNK N   1      34.478  15.278   9.910  0.00  0.00     0.047 A 
HETATM    3  C   UNK N   1      33.980  14.986   7.568  0.00  0.00     0.032 A 
HETATM    4  C   UNK N   1      35.269  14.464   7.359  0.00  0.00     0.033 A 
HETATM    5  C   UNK N   1      36.162  14.351   8.436  0.00  0.00     0.047 A 
HETATM    6  C   UNK N   1      35.755  14.763   9.714  0.00  0.00     0.037 A 
HETATM    7  C   UNK N   1      36.644  14.650  10.780  0.00  0.00     0.119 A 
HETATM    8  N   UNK N   1      37.888  14.144  10.563  0.00  0.00    -0.338 N 
ATOM      9  HN  UNK N   1      38.541  14.059  11.342  1.00  0.00     0.168 HD
HETATM   10  C   UNK N   1      38.272  13.746   9.314  0.00  0.00     0.182 A 
HETATM   11  N   UNK N   1      37.412  13.851   8.261  0.00  0.00    -0.352 N 
ATOM     12  HN  UNK N   1      37.711  13.551   7.333  1.00  0.00     0.166 HD
ENDROOT
BRANCH   7  13
HETATM   13  N   UNK N   1      36.211  15.074  12.069  0.00  0.00    -0.342 N 
HETATM   14  H   UNK N   1      36.012  16.034  12.158  0.00  0.00     0.167 HD
BRANCH  13  15
HETATM   15  C   UNK N   1      36.029  14.300  13.241  0.00  0.00     0.033 A 
HETATM   16  C   UNK N   1      35.171  13.196  13.172  0.00  0.00     0.029 A 
HETATM   17  C   UNK N   1      34.953  12.398  14.294  0.00  0.00     0.002 A 
HETATM   18  C   UNK N   1      35.594  12.700  15.497  0.00  0.00     0.000 A 
HETATM   19  C   UNK N   1      36.453  13.801  15.575  0.00  0.00     0.002 A 
HETATM   20  C   UNK N   1      36.672  14.602  14.448  0.00  0.00     0.029 A 
ENDBRANCH  13  15
ENDBRANCH   7  13
BRANCH   1  21
HETATM   21  N   UNK N   1      32.300  15.933   9.152  0.00  0.00    -0.324 N 
HETATM   22  C   UNK N   1      31.743  17.064   8.657  0.00  0.00     0.244 C 
HETATM   23  O   UNK N   1      32.342  17.768   7.856  0.00  0.00    -0.268 OA
HETATM   24  H   UNK N   1      31.752  15.422   9.791  0.00  0.00     0.169 HD
BRANCH  22  25
HETATM   25  C   UNK N   1      30.388  17.427   9.109  0.00  0.00     0.064 C 
HETATM   26  C   UNK N   1      30.045  18.682   9.387  0.00  0.00     0.017 C 
ENDBRANCH  22  25
ENDBRANCH   1  21
TORSDOF 4
ENDMDL
