MODEL 1
REMARK VINA RESULT:      -7.9      0.000      0.000
REMARK  9 active torsions:
REMARK  status: ('A' for Active; 'I' for Inactive)
REMARK       I    between atoms: N_13  and  C_1 
REMARK    1  A    between atoms: C_4  and  N_22 
REMARK    2  A    between atoms: C_6  and  N_16 
REMARK    3  A    between atoms: C_8  and  C_11 
REMARK    4  A    between atoms: C_8  and  N_13 
REMARK    5  A    between atoms: C_12  and  C_8 
REMARK    6  A    between atoms: C_11  and  O_10 
REMARK    7  A    between atoms: C_23  and  N_22 
REMARK    8  A    between atoms: C_23  and  C_24 
REMARK    9  A    between atoms: C_27  and  C_30 
ROOT
HETATM    1  C   UNK N   1      35.810  15.346  11.305  0.00  0.00     0.681 A 
HETATM    2  C   UNK N   1      36.136  14.612   9.102  0.00  0.00     0.155 A 
HETATM    3  C   UNK N   1      34.987  15.191   8.721  0.00  0.00     0.123 A 
HETATM    4  C   UNK N   1      34.190  15.831   9.654  0.00  0.00     0.148 A 
HETATM    5  C   UNK N   1      35.793  14.149   7.039  0.00  0.00     0.185 A 
HETATM    6  N   UNK N   1      36.074  15.259  12.684  0.00  0.00    -0.219 N 
HETATM    7  N   UNK N   1      34.627  15.900  10.933  0.00  0.00    -0.175 N 
ATOM      8  HN  UNK N   1      34.056  16.378  11.631  1.00  0.00     0.186 HD
HETATM    9  N   UNK N   1      36.652  13.926   8.069  0.00  0.00    -0.323 N 
HETATM   10  N   UNK N   1      34.752  14.933   7.420  0.00  0.00    -0.346 N 
ATOM     11  HN  UNK N   1      33.969  15.253   6.851  1.00  0.00     0.167 HD
HETATM   12  N   UNK N   1      36.573  14.661  10.392  0.00  0.00    -0.174 N 
ATOM     13  HN  UNK N   1      37.440  14.202  10.671  1.00  0.00     0.186 HD
HETATM   14  H   UNK N   1      35.989  16.067  13.240  0.00  0.00     0.178 HD
ENDROOT
BRANCH   4  15
HETATM   15  N   UNK N   1      32.910  16.295   9.350  0.00  0.00    -0.370 N 
HETATM   16  H   UNK N   1      32.122  15.773   9.629  0.00  0.00     0.161 HD
BRANCH  15  17
HETATM   17  C   UNK N   1      32.734  17.512   8.642  0.00  0.00     0.160 C 
BRANCH  17  18
HETATM   18  C   UNK N   1      31.304  17.585   8.302  0.00  0.00    -0.041 C 
HETATM   19  C   UNK N   1      30.840  16.878   7.188  0.00  0.00     0.010 C 
HETATM   20  C   UNK N   1      29.582  17.133   6.689  0.00  0.00     0.014 C 
HETATM   21  C   UNK N   1      28.791  18.112   7.288  0.00  0.00    -0.009 C 
HETATM   22  C   UNK N   1      29.198  18.711   8.493  0.00  0.00     0.014 C 
HETATM   23  C   UNK N   1      30.458  18.433   9.010  0.00  0.00     0.010 C 
BRANCH  21  24
HETATM   24  C   UNK N   1      27.916  18.860   6.390  0.00  0.00     0.042 A 
HETATM   25  N   UNK N   1      27.806  18.449   5.093  0.00  0.00    -0.365 N 
HETATM   26  C   UNK N   1      27.351  19.273   4.118  0.00  0.00     0.088 A 
ATOM     27  HN  UNK N   1      28.074  17.494   4.851  1.00  0.00     0.165 HD
HETATM   28  C   UNK N   1      27.011  20.591   4.424  0.00  0.00     0.017 A 
HETATM   29  C   UNK N   1      27.094  21.033   5.743  0.00  0.00     0.004 A 
HETATM   30  C   UNK N   1      27.557  20.171   6.730  0.00  0.00     0.030 A 
ENDBRANCH  21  24
ENDBRANCH  17  18
ENDBRANCH  15  17
ENDBRANCH   4  15
BRANCH   9  31
HETATM   31  C   UNK N   1      37.795  13.009   8.008  0.00  0.00     0.084 C 
HETATM   32  C   UNK N   1      39.105  13.735   8.230  0.00  0.00     0.032 C 
HETATM   33  C   UNK N   1      37.679  11.831   8.961  0.00  0.00     0.032 C 
ENDBRANCH   9  31
BRANCH   6  34
HETATM   34  C   UNK N   1      36.466  14.021  13.308  0.00  0.00     0.122 C 
BRANCH  34  35
HETATM   35  C   UNK N   1      35.313  13.005  13.237  0.00  0.00     0.189 C 
BRANCH  35  36
HETATM   36  O   UNK N   1      35.451  12.141  12.148  0.00  0.00    -0.399 OA
HETATM   37  H   UNK N   1      36.310  12.015  11.714  0.00  0.00     0.209 HD
ENDBRANCH  35  36
ENDBRANCH  34  35
BRANCH  34  38
HETATM   38  C   UNK N   1      36.745  14.333  14.773  0.00  0.00     0.023 C 
HETATM   39  C   UNK N   1      36.095  13.325  15.708  0.00  0.00     0.007 C 
ENDBRANCH  34  38
ENDBRANCH   6  34
TORSDOF 9
ENDMDL
MODEL 2
REMARK VINA RESULT:      -7.7      4.302     10.659
REMARK  9 active torsions:
REMARK  status: ('A' for Active; 'I' for Inactive)
REMARK       I    between atoms: N_13  and  C_1 
REMARK    1  A    between atoms: C_4  and  N_22 
REMARK    2  A    between atoms: C_6  and  N_16 
REMARK    3  A    between atoms: C_8  and  C_11 
REMARK    4  A    between atoms: C_8  and  N_13 
REMARK    5  A    between atoms: C_12  and  C_8 
REMARK    6  A    between atoms: C_11  and  O_10 
REMARK    7  A    between atoms: C_23  and  N_22 
REMARK    8  A    between atoms: C_23  and  C_24 
REMARK    9  A    between atoms: C_27  and  C_30 
ROOT
HETATM    1  C   UNK N   1      34.683  13.778  10.792  0.00  0.00     0.681 A 
HETATM    2  C   UNK N   1      36.391  12.173  10.835  0.00  0.00     0.155 A 
HETATM    3  C   UNK N   1      36.096  11.868  12.108  0.00  0.00     0.123 A 
HETATM    4  C   UNK N   1      35.099  12.560  12.773  0.00  0.00     0.148 A 
HETATM    5  C   UNK N   1      37.810  10.728  11.534  0.00  0.00     0.185 A 
HETATM    6  N   UNK N   1      34.080  14.921  10.234  0.00  0.00    -0.219 N 
HETATM    7  N   UNK N   1      34.405  13.501  12.092  0.00  0.00    -0.175 N 
ATOM      8  HN  UNK N   1      33.659  14.012  12.565  1.00  0.00     0.186 HD
HETATM    9  N   UNK N   1      37.484  11.490  10.456  0.00  0.00    -0.323 N 
HETATM   10  N   UNK N   1      36.961  10.946  12.572  0.00  0.00    -0.346 N 
ATOM     11  HN  UNK N   1      36.976  10.511  13.494  1.00  0.00     0.167 HD
HETATM   12  N   UNK N   1      35.711  13.133  10.149  0.00  0.00    -0.174 N 
ATOM     13  HN  UNK N   1      35.957  13.366   9.186  1.00  0.00     0.186 HD
HETATM   14  H   UNK N   1      33.105  15.035  10.313  0.00  0.00     0.178 HD
ENDROOT
BRANCH   4  15
HETATM   15  N   UNK N   1      34.868  12.407  14.141  0.00  0.00    -0.370 N 
HETATM   16  H   UNK N   1      34.337  11.643  14.464  0.00  0.00     0.161 HD
BRANCH  15  17
HETATM   17  C   UNK N   1      35.393  13.343  15.069  0.00  0.00     0.160 C 
BRANCH  17  18
HETATM   18  C   UNK N   1      35.593  12.605  16.327  0.00  0.00    -0.041 C 
HETATM   19  C   UNK N   1      35.978  11.262  16.265  0.00  0.00     0.010 C 
HETATM   20  C   UNK N   1      35.916  10.478  17.395  0.00  0.00     0.014 C 
HETATM   21  C   UNK N   1      35.445  11.027  18.586  0.00  0.00    -0.009 C 
HETATM   22  C   UNK N   1      35.202  12.409  18.681  0.00  0.00     0.014 C 
HETATM   23  C   UNK N   1      35.292  13.204  17.545  0.00  0.00     0.010 C 
BRANCH  21  24
HETATM   24  C   UNK N   1      34.699  10.120  19.454  0.00  0.00     0.042 A 
HETATM   25  N   UNK N   1      33.927   9.153  18.878  0.00  0.00    -0.365 N 
HETATM   26  C   UNK N   1      32.927   8.539  19.556  0.00  0.00     0.088 A 
ATOM     27  HN  UNK N   1      34.110   8.884  17.911  1.00  0.00     0.165 HD
HETATM   28  C   UNK N   1      32.642   8.916  20.868  0.00  0.00     0.017 A 
HETATM   29  C   UNK N   1      33.426   9.887  21.489  0.00  0.00     0.004 A 
HETATM   30  C   UNK N   1      34.453  10.500  20.780  0.00  0.00     0.030 A 
ENDBRANCH  21  24
ENDBRANCH  17  18
ENDBRANCH  15  17
ENDBRANCH   4  15
BRANCH   9  31
HETATM   31  C   UNK N   1      38.290  11.580   9.234  0.00  0.00     0.084 C 
HETATM   32  C   UNK N   1      39.269  12.734   9.296  0.00  0.00     0.032 C 
HETATM   33  C   UNK N   1      39.019  10.291   8.891  0.00  0.00     0.032 C 
ENDBRANCH   9  31
BRANCH   6  34
HETATM   34  C   UNK N   1      34.848  15.930   9.551  0.00  0.00     0.122 C 
BRANCH  34  35
HETATM   35  C   UNK N   1      35.673  16.743  10.563  0.00  0.00     0.189 C 
BRANCH  35  36
HETATM   36  O   UNK N   1      36.890  16.123  10.856  0.00  0.00    -0.399 OA
HETATM   37  H   UNK N   1      37.346  15.579  10.194  0.00  0.00     0.209 HD
ENDBRANCH  35  36
ENDBRANCH  34  35
BRANCH  34  38
HETATM   38  C   UNK N   1      33.850  16.866   8.880  0.00  0.00     0.023 C 
HETATM   39  C   UNK N   1      34.518  18.110   8.317  0.00  0.00     0.007 C 
ENDBRANCH  34  38
ENDBRANCH   6  34
TORSDOF 9
ENDMDL
MODEL 3
REMARK VINA RESULT:      -7.6      8.943     13.739
REMARK  9 active torsions:
REMARK  status: ('A' for Active; 'I' for Inactive)
REMARK       I    between atoms: N_13  and  C_1 
REMARK    1  A    between atoms: C_4  and  N_22 
REMARK    2  A    between atoms: C_6  and  N_16 
REMARK    3  A    between atoms: C_8  and  C_11 
REMARK    4  A    between atoms: C_8  and  N_13 
REMARK    5  A    between atoms: C_12  and  C_8 
REMARK    6  A    between atoms: C_11  and  O_10 
REMARK    7  A    between atoms: C_23  and  N_22 
REMARK    8  A    between atoms: C_23  and  C_24 
REMARK    9  A    between atoms: C_27  and  C_30 
ROOT
HETATM    1  C   UNK N   1      21.785  18.003   5.089  0.00  0.00     0.681 A 
HETATM    2  C   UNK N   1      20.976  17.115   7.102  0.00  0.00     0.155 A 
HETATM    3  C   UNK N   1      21.710  16.006   6.927  0.00  0.00     0.123 A 
HETATM    4  C   UNK N   1      22.474  15.853   5.783  0.00  0.00     0.148 A 
HETATM    5  C   UNK N   1      20.535  15.750   8.694  0.00  0.00     0.185 A 
HETATM    6  N   UNK N   1      21.681  18.898   4.008  0.00  0.00    -0.219 N 
HETATM    7  N   UNK N   1      22.499  16.865   4.887  0.00  0.00    -0.175 N 
ATOM      8  HN  UNK N   1      23.066  16.773   4.044  1.00  0.00     0.186 HD
HETATM    9  N   UNK N   1      20.206  16.971   8.193  0.00  0.00    -0.323 N 
HETATM   10  N   UNK N   1      21.468  15.133   7.924  0.00  0.00    -0.346 N 
ATOM     11  HN  UNK N   1      21.890  14.215   8.068  1.00  0.00     0.167 HD
HETATM   12  N   UNK N   1      20.981  18.131   6.195  0.00  0.00    -0.174 N 
ATOM     13  HN  UNK N   1      20.406  18.962   6.333  1.00  0.00     0.186 HD
HETATM   14  H   UNK N   1      22.502  19.195   3.552  0.00  0.00     0.178 HD
ENDROOT
BRANCH   4  15
HETATM   15  N   UNK N   1      23.114  14.654   5.468  0.00  0.00    -0.370 N 
HETATM   16  H   UNK N   1      23.099  13.907   6.110  0.00  0.00     0.161 HD
BRANCH  15  17
HETATM   17  C   UNK N   1      23.789  14.502   4.229  0.00  0.00     0.160 C 
BRANCH  17  18
HETATM   18  C   UNK N   1      25.055  15.243   4.358  0.00  0.00    -0.041 C 
HETATM   19  C   UNK N   1      25.726  15.219   5.584  0.00  0.00     0.010 C 
HETATM   20  C   UNK N   1      26.755  16.102   5.820  0.00  0.00     0.014 C 
HETATM   21  C   UNK N   1      27.102  17.030   4.838  0.00  0.00    -0.009 C 
HETATM   22  C   UNK N   1      26.529  16.952   3.557  0.00  0.00     0.014 C 
HETATM   23  C   UNK N   1      25.508  16.041   3.313  0.00  0.00     0.010 C 
BRANCH  21  24
HETATM   24  C   UNK N   1      27.568  18.326   5.325  0.00  0.00     0.042 A 
HETATM   25  N   UNK N   1      27.629  18.535   6.672  0.00  0.00    -0.365 N 
HETATM   26  C   UNK N   1      27.666  19.782   7.201  0.00  0.00     0.088 A 
ATOM     27  HN  UNK N   1      27.647  17.729   7.298  1.00  0.00     0.165 HD
HETATM   28  C   UNK N   1      27.609  20.895   6.363  0.00  0.00     0.017 A 
HETATM   29  C   UNK N   1      27.567  20.713   4.982  0.00  0.00     0.004 A 
HETATM   30  C   UNK N   1      27.536  19.426   4.457  0.00  0.00     0.030 A 
ENDBRANCH  21  24
ENDBRANCH  17  18
ENDBRANCH  15  17
ENDBRANCH   4  15
BRANCH   9  31
HETATM   31  C   UNK N   1      19.131  17.818   8.722  0.00  0.00     0.084 C 
HETATM   32  C   UNK N   1      18.032  16.993   9.356  0.00  0.00     0.032 C 
HETATM   33  C   UNK N   1      19.618  18.881   9.693  0.00  0.00     0.032 C 
ENDBRANCH   9  31
BRANCH   6  34
HETATM   34  C   UNK N   1      20.410  19.396   3.549  0.00  0.00     0.122 C 
BRANCH  34  35
HETATM   35  C   UNK N   1      19.749  18.372   2.610  0.00  0.00     0.189 C 
BRANCH  35  36
HETATM   36  O   UNK N   1      18.381  18.614   2.462  0.00  0.00    -0.399 OA
HETATM   37  H   UNK N   1      18.055  19.473   2.150  0.00  0.00     0.209 HD
ENDBRANCH  35  36
ENDBRANCH  34  35
BRANCH  34  38
HETATM   38  C   UNK N   1      20.692  20.665   2.755  0.00  0.00     0.023 C 
HETATM   39  C   UNK N   1      21.069  20.368   1.313  0.00  0.00     0.007 C 
ENDBRANCH  34  38
ENDBRANCH   6  34
TORSDOF 9
ENDMDL
MODEL 4
REMARK VINA RESULT:      -7.5      2.236      3.001
REMARK  9 active torsions:
REMARK  status: ('A' for Active; 'I' for Inactive)
REMARK       I    between atoms: N_13  and  C_1 
REMARK    1  A    between atoms: C_4  and  N_22 
REMARK    2  A    between atoms: C_6  and  N_16 
REMARK    3  A    between atoms: C_8  and  C_11 
REMARK    4  A    between atoms: C_8  and  N_13 
REMARK    5  A    between atoms: C_12  and  C_8 
REMARK    6  A    between atoms: C_11  and  O_10 
REMARK    7  A    between atoms: C_23  and  N_22 
REMARK    8  A    between atoms: C_23  and  C_24 
REMARK    9  A    between atoms: C_27  and  C_30 
ROOT
HETATM    1  C   UNK N   1      36.315  15.042  11.916  0.00  0.00     0.681 A 
HETATM    2  C   UNK N   1      36.740  14.148   9.790  0.00  0.00     0.155 A 
HETATM    3  C   UNK N   1      35.807  14.947   9.249  0.00  0.00     0.123 A 
HETATM    4  C   UNK N   1      35.065  15.790  10.056  0.00  0.00     0.148 A 
HETATM    5  C   UNK N   1      36.561  13.672   7.709  0.00  0.00     0.185 A 
HETATM    6  N   UNK N   1      36.379  14.965  13.319  0.00  0.00    -0.219 N 
HETATM    7  N   UNK N   1      35.343  15.824  11.379  0.00  0.00    -0.175 N 
ATOM      8  HN  UNK N   1      34.812  16.449  11.986  1.00  0.00     0.186 HD
HETATM    9  N   UNK N   1      37.213  13.315   8.848  0.00  0.00    -0.323 N 
HETATM   10  N   UNK N   1      35.684  14.683   7.934  0.00  0.00    -0.346 N 
ATOM     11  HN  UNK N   1      35.070  15.140   7.260  1.00  0.00     0.167 HD
HETATM   12  N   UNK N   1      37.012  14.161  11.125  0.00  0.00    -0.174 N 
ATOM     13  HN  UNK N   1      37.713  13.537  11.525  1.00  0.00     0.186 HD
HETATM   14  H   UNK N   1      36.410  15.799  13.843  0.00  0.00     0.178 HD
ENDROOT
BRANCH   4  15
HETATM   15  N   UNK N   1      33.969  16.510   9.576  0.00  0.00    -0.370 N 
HETATM   16  H   UNK N   1      33.056  16.201   9.777  0.00  0.00     0.161 HD
BRANCH  15  17
HETATM   17  C   UNK N   1      34.161  17.683   8.802  0.00  0.00     0.160 C 
BRANCH  17  18
HETATM   18  C   UNK N   1      33.120  17.662   7.761  0.00  0.00    -0.041 C 
HETATM   19  C   UNK N   1      31.780  17.576   8.152  0.00  0.00     0.010 C 
HETATM   20  C   UNK N   1      30.810  17.288   7.219  0.00  0.00     0.014 C 
HETATM   21  C   UNK N   1      31.179  17.062   5.893  0.00  0.00    -0.009 C 
HETATM   22  C   UNK N   1      32.501  17.296   5.477  0.00  0.00     0.014 C 
HETATM   23  C   UNK N   1      33.474  17.613   6.417  0.00  0.00     0.010 C 
BRANCH  21  24
HETATM   24  C   UNK N   1      30.375  16.082   5.168  0.00  0.00     0.042 A 
HETATM   25  N   UNK N   1      30.330  14.800   5.635  0.00  0.00    -0.365 N 
HETATM   26  C   UNK N   1      29.951  13.765   4.846  0.00  0.00     0.088 A 
ATOM     27  HN  UNK N   1      30.589  14.616   6.605  1.00  0.00     0.165 HD
HETATM   28  C   UNK N   1      29.625  13.992   3.509  0.00  0.00     0.017 A 
HETATM   29  C   UNK N   1      29.642  15.293   3.010  0.00  0.00     0.004 A 
HETATM   30  C   UNK N   1      30.027  16.343   3.837  0.00  0.00     0.030 A 
ENDBRANCH  21  24
ENDBRANCH  17  18
ENDBRANCH  15  17
ENDBRANCH   4  15
BRANCH   9  31
HETATM   31  C   UNK N   1      38.119  12.167   8.957  0.00  0.00     0.084 C 
HETATM   32  C   UNK N   1      37.648  11.003   8.110  0.00  0.00     0.032 C 
HETATM   33  C   UNK N   1      39.565  12.502   8.631  0.00  0.00     0.032 C 
ENDBRANCH   9  31
BRANCH   6  34
HETATM   34  C   UNK N   1      36.403  13.703  14.013  0.00  0.00     0.122 C 
BRANCH  34  35
HETATM   35  C   UNK N   1      35.000  13.071  14.007  0.00  0.00     0.189 C 
BRANCH  35  36
HETATM   36  O   UNK N   1      34.470  13.002  12.716  0.00  0.00    -0.399 OA
HETATM   37  H   UNK N   1      33.657  12.504  12.535  0.00  0.00     0.209 HD
ENDBRANCH  35  36
ENDBRANCH  34  35
BRANCH  34  38
HETATM   38  C   UNK N   1      36.791  13.999  15.456  0.00  0.00     0.023 C 
HETATM   39  C   UNK N   1      35.765  13.471  16.447  0.00  0.00     0.007 C 
ENDBRANCH  34  38
ENDBRANCH   6  34
TORSDOF 9
ENDMDL
MODEL 5
REMARK VINA RESULT:      -7.4      2.471      5.160
REMARK  9 active torsions:
REMARK  status: ('A' for Active; 'I' for Inactive)
REMARK       I    between atoms: N_13  and  C_1 
REMARK    1  A    between atoms: C_4  and  N_22 
REMARK    2  A    between atoms: C_6  and  N_16 
REMARK    3  A    between atoms: C_8  and  C_11 
REMARK    4  A    between atoms: C_8  and  N_13 
REMARK    5  A    between atoms: C_12  and  C_8 
REMARK    6  A    between atoms: C_11  and  O_10 
REMARK    7  A    between atoms: C_23  and  N_22 
REMARK    8  A    between atoms: C_23  and  C_24 
REMARK    9  A    between atoms: C_27  and  C_30 
ROOT
HETATM    1  C   UNK N   1      34.257  12.024  11.471  0.00  0.00     0.681 A 
HETATM    2  C   UNK N   1      35.347  13.292  13.115  0.00  0.00     0.155 A 
HETATM    3  C   UNK N   1      35.586  14.269  12.227  0.00  0.00     0.123 A 
HETATM    4  C   UNK N   1      35.199  14.117  10.907  0.00  0.00     0.148 A 
HETATM    5  C   UNK N   1      36.520  14.807  14.072  0.00  0.00     0.185 A 
HETATM    6  N   UNK N   1      33.774  10.797  10.980  0.00  0.00    -0.219 N 
HETATM    7  N   UNK N   1      34.532  12.993  10.558  0.00  0.00    -0.175 N 
ATOM      8  HN  UNK N   1      34.229  12.871   9.592  1.00  0.00     0.186 HD
HETATM    9  N   UNK N   1      35.946  13.592  14.279  0.00  0.00    -0.323 N 
HETATM   10  N   UNK N   1      36.309  15.248  12.805  0.00  0.00    -0.346 N 
ATOM     11  HN  UNK N   1      36.626  16.122  12.386  1.00  0.00     0.167 HD
HETATM   12  N   UNK N   1      34.693  12.149  12.767  0.00  0.00    -0.174 N 
ATOM     13  HN  UNK N   1      34.532  11.407  13.449  1.00  0.00     0.186 HD
HETATM   14  H   UNK N   1      33.000  10.797  10.372  0.00  0.00     0.178 HD
ENDROOT
BRANCH   4  15
HETATM   15  N   UNK N   1      35.575  15.018   9.910  0.00  0.00    -0.370 N 
HETATM   16  H   UNK N   1      35.983  15.879  10.158  0.00  0.00     0.161 HD
BRANCH  15  17
HETATM   17  C   UNK N   1      35.374  14.703   8.542  0.00  0.00     0.160 C 
BRANCH  17  18
HETATM   18  C   UNK N   1      34.346  15.637   8.053  0.00  0.00    -0.041 C 
HETATM   19  C   UNK N   1      34.327  16.940   8.558  0.00  0.00     0.010 C 
HETATM   20  C   UNK N   1      33.237  17.749   8.330  0.00  0.00     0.014 C 
HETATM   21  C   UNK N   1      32.149  17.249   7.615  0.00  0.00    -0.009 C 
HETATM   22  C   UNK N   1      32.234  15.996   6.982  0.00  0.00     0.014 C 
HETATM   23  C   UNK N   1      33.348  15.192   7.193  0.00  0.00     0.010 C 
BRANCH  21  24
HETATM   24  C   UNK N   1      30.837  17.745   8.023  0.00  0.00     0.042 A 
HETATM   25  N   UNK N   1      30.711  18.321   9.253  0.00  0.00    -0.365 N 
HETATM   26  C   UNK N   1      29.506  18.449   9.862  0.00  0.00     0.088 A 
ATOM     27  HN  UNK N   1      31.546  18.665   9.728  1.00  0.00     0.165 HD
HETATM   28  C   UNK N   1      28.358  17.956   9.243  0.00  0.00     0.017 A 
HETATM   29  C   UNK N   1      28.454  17.381   7.977  0.00  0.00     0.004 A 
HETATM   30  C   UNK N   1      29.698  17.264   7.365  0.00  0.00     0.030 A 
ENDBRANCH  21  24
ENDBRANCH  17  18
ENDBRANCH  15  17
ENDBRANCH   4  15
BRANCH   9  31
HETATM   31  C   UNK N   1      36.115  12.795  15.499  0.00  0.00     0.084 C 
HETATM   32  C   UNK N   1      34.810  12.645  16.252  0.00  0.00     0.032 C 
HETATM   33  C   UNK N   1      36.740  11.432  15.252  0.00  0.00     0.032 C 
ENDBRANCH   9  31
BRANCH   6  34
HETATM   34  C   UNK N   1      34.378   9.541  11.344  0.00  0.00     0.122 C 
BRANCH  34  35
HETATM   35  C   UNK N   1      35.827   9.483  10.830  0.00  0.00     0.189 C 
BRANCH  35  36
HETATM   36  O   UNK N   1      36.742   9.849  11.821  0.00  0.00    -0.399 OA
HETATM   37  H   UNK N   1      37.052   9.206  12.479  0.00  0.00     0.209 HD
ENDBRANCH  35  36
ENDBRANCH  34  35
BRANCH  34  38
HETATM   38  C   UNK N   1      33.577   8.448  10.648  0.00  0.00     0.023 C 
HETATM   39  C   UNK N   1      32.347   8.997   9.943  0.00  0.00     0.007 C 
ENDBRANCH  34  38
ENDBRANCH   6  34
TORSDOF 9
ENDMDL
MODEL 6
REMARK VINA RESULT:      -7.3      2.527      4.146
REMARK  9 active torsions:
REMARK  status: ('A' for Active; 'I' for Inactive)
REMARK       I    between atoms: N_13  and  C_1 
REMARK    1  A    between atoms: C_4  and  N_22 
REMARK    2  A    between atoms: C_6  and  N_16 
REMARK    3  A    between atoms: C_8  and  C_11 
REMARK    4  A    between atoms: C_8  and  N_13 
REMARK    5  A    between atoms: C_12  and  C_8 
REMARK    6  A    between atoms: C_11  and  O_10 
REMARK    7  A    between atoms: C_23  and  N_22 
REMARK    8  A    between atoms: C_23  and  C_24 
REMARK    9  A    between atoms: C_27  and  C_30 
ROOT
HETATM    1  C   UNK N   1      36.387  13.664  14.236  0.00  0.00     0.681 A 
HETATM    2  C   UNK N   1      36.386  12.254  12.363  0.00  0.00     0.155 A 
HETATM    3  C   UNK N   1      36.009  13.273  11.575  0.00  0.00     0.123 A 
HETATM    4  C   UNK N   1      35.764  14.519  12.124  0.00  0.00     0.148 A 
HETATM    5  C   UNK N   1      36.075  11.502  10.382  0.00  0.00     0.185 A 
HETATM    6  N   UNK N   1      36.346  13.863  15.629  0.00  0.00    -0.219 N 
HETATM    7  N   UNK N   1      35.967  14.689  13.450  0.00  0.00    -0.175 N 
ATOM      8  HN  UNK N   1      35.802  15.606  13.868  1.00  0.00     0.186 HD
HETATM    9  N   UNK N   1      36.410  11.120  11.643  0.00  0.00    -0.323 N 
HETATM   10  N   UNK N   1      35.822  12.834  10.316  0.00  0.00    -0.346 N 
ATOM     11  HN  UNK N   1      35.552  13.380   9.497  1.00  0.00     0.167 HD
HETATM   12  N   UNK N   1      36.574  12.413  13.703  0.00  0.00    -0.174 N 
ATOM     13  HN  UNK N   1      36.845  11.626  14.293  1.00  0.00     0.186 HD
HETATM   14  H   UNK N   1      36.774  14.663  16.011  0.00  0.00     0.178 HD
ENDROOT
BRANCH   4  15
HETATM   15  N   UNK N   1      35.204  15.563  11.386  0.00  0.00    -0.370 N 
HETATM   16  H   UNK N   1      34.429  16.053  11.744  0.00  0.00     0.161 HD
BRANCH  15  17
HETATM   17  C   UNK N   1      35.743  15.923  10.123  0.00  0.00     0.160 C 
BRANCH  17  18
HETATM   18  C   UNK N   1      34.592  16.242   9.262  0.00  0.00    -0.041 C 
HETATM   19  C   UNK N   1      34.491  17.529   8.726  0.00  0.00     0.010 C 
HETATM   20  C   UNK N   1      33.312  17.939   8.145  0.00  0.00     0.014 C 
HETATM   21  C   UNK N   1      32.221  17.072   8.120  0.00  0.00    -0.009 C 
HETATM   22  C   UNK N   1      32.372  15.734   8.523  0.00  0.00     0.014 C 
HETATM   23  C   UNK N   1      33.572  15.314   9.085  0.00  0.00     0.010 C 
BRANCH  21  24
HETATM   24  C   UNK N   1      30.907  17.699   8.236  0.00  0.00     0.042 A 
HETATM   25  N   UNK N   1      30.538  18.224   9.440  0.00  0.00    -0.365 N 
HETATM   26  C   UNK N   1      29.240  18.464   9.749  0.00  0.00     0.088 A 
ATOM     27  HN  UNK N   1      31.260  18.443  10.128  1.00  0.00     0.165 HD
HETATM   28  C   UNK N   1      28.237  18.140   8.835  0.00  0.00     0.017 A 
HETATM   29  C   UNK N   1      28.585  17.621   7.589  0.00  0.00     0.004 A 
HETATM   30  C   UNK N   1      29.923  17.389   7.289  0.00  0.00     0.030 A 
ENDBRANCH  21  24
ENDBRANCH  17  18
ENDBRANCH  15  17
ENDBRANCH   4  15
BRANCH   9  31
HETATM   31  C   UNK N   1      36.605   9.728  12.061  0.00  0.00     0.084 C 
HETATM   32  C   UNK N   1      35.330   9.129  12.616  0.00  0.00     0.032 C 
HETATM   33  C   UNK N   1      37.171   8.839  10.966  0.00  0.00     0.032 C 
ENDBRANCH   9  31
BRANCH   6  34
HETATM   34  C   UNK N   1      35.699  12.927  16.513  0.00  0.00     0.122 C 
BRANCH  34  35
HETATM   35  C   UNK N   1      34.423  12.376  15.856  0.00  0.00     0.189 C 
BRANCH  35  36
HETATM   36  O   UNK N   1      34.535  11.012  15.572  0.00  0.00    -0.399 OA
HETATM   37  H   UNK N   1      35.160  10.689  14.904  0.00  0.00     0.209 HD
ENDBRANCH  35  36
ENDBRANCH  34  35
BRANCH  34  38
HETATM   38  C   UNK N   1      35.301  13.703  17.762  0.00  0.00     0.023 C 
HETATM   39  C   UNK N   1      35.196  12.807  18.986  0.00  0.00     0.007 C 
ENDBRANCH  34  38
ENDBRANCH   6  34
TORSDOF 9
ENDMDL
MODEL 7
REMARK VINA RESULT:      -7.3      2.058      3.928
REMARK  9 active torsions:
REMARK  status: ('A' for Active; 'I' for Inactive)
REMARK       I    between atoms: N_13  and  C_1 
REMARK    1  A    between atoms: C_4  and  N_22 
REMARK    2  A    between atoms: C_6  and  N_16 
REMARK    3  A    between atoms: C_8  and  C_11 
REMARK    4  A    between atoms: C_8  and  N_13 
REMARK    5  A    between atoms: C_12  and  C_8 
REMARK    6  A    between atoms: C_11  and  O_10 
REMARK    7  A    between atoms: C_23  and  N_22 
REMARK    8  A    between atoms: C_23  and  C_24 
REMARK    9  A    between atoms: C_27  and  C_30 
ROOT
HETATM    1  C   UNK N   1      33.200  13.325   9.060  0.00  0.00     0.681 A 
HETATM    2  C   UNK N   1      34.468  14.493  10.649  0.00  0.00     0.155 A 
HETATM    3  C   UNK N   1      34.249  15.647  10.000  0.00  0.00     0.123 A 
HETATM    4  C   UNK N   1      33.526  15.653   8.821  0.00  0.00     0.148 A 
HETATM    5  C   UNK N   1      35.567  16.046  11.635  0.00  0.00     0.185 A 
HETATM    6  N   UNK N   1      32.832  12.130   8.414  0.00  0.00    -0.219 N 
HETATM    7  N   UNK N   1      33.008  14.484   8.378  0.00  0.00    -0.175 N 
ATOM      8  HN  UNK N   1      32.463  14.474   7.516  1.00  0.00     0.186 HD
HETATM    9  N   UNK N   1      35.317  14.709  11.667  0.00  0.00    -0.323 N 
HETATM   10  N   UNK N   1      34.914  16.649  10.608  0.00  0.00    -0.346 N 
ATOM     11  HN  UNK N   1      34.924  17.637  10.355  1.00  0.00     0.167 HD
HETATM   12  N   UNK N   1      33.967  13.309  10.199  0.00  0.00    -0.174 N 
ATOM     13  HN  UNK N   1      34.155  12.436  10.693  1.00  0.00     0.186 HD
HETATM   14  H   UNK N   1      31.927  12.051   8.033  0.00  0.00     0.178 HD
ENDROOT
BRANCH   4  15
HETATM   15  N   UNK N   1      33.417  16.789   8.017  0.00  0.00    -0.370 N 
HETATM   16  H   UNK N   1      33.773  16.774   7.099  0.00  0.00     0.161 HD
BRANCH  15  17
HETATM   17  C   UNK N   1      32.798  17.965   8.513  0.00  0.00     0.160 C 
BRANCH  17  18
HETATM   18  C   UNK N   1      31.375  17.864   8.152  0.00  0.00    -0.041 C 
HETATM   19  C   UNK N   1      31.029  17.247   6.945  0.00  0.00     0.010 C 
HETATM   20  C   UNK N   1      29.749  17.369   6.454  0.00  0.00     0.014 C 
HETATM   21  C   UNK N   1      28.814  18.130   7.155  0.00  0.00    -0.009 C 
HETATM   22  C   UNK N   1      29.120  18.621   8.436  0.00  0.00     0.014 C 
HETATM   23  C   UNK N   1      30.406  18.473   8.943  0.00  0.00     0.010 C 
BRANCH  21  24
HETATM   24  C   UNK N   1      27.838  18.847   6.340  0.00  0.00     0.042 A 
HETATM   25  N   UNK N   1      27.640  18.443   5.051  0.00  0.00    -0.365 N 
HETATM   26  C   UNK N   1      27.072  19.256   4.127  0.00  0.00     0.088 A 
ATOM     27  HN  UNK N   1      27.928  17.504   4.777  1.00  0.00     0.165 HD
HETATM   28  C   UNK N   1      26.702  20.554   4.476  0.00  0.00     0.017 A 
HETATM   29  C   UNK N   1      26.873  20.987   5.789  0.00  0.00     0.004 A 
HETATM   30  C   UNK N   1      27.451  20.137   6.725  0.00  0.00     0.030 A 
ENDBRANCH  21  24
ENDBRANCH  17  18
ENDBRANCH  15  17
ENDBRANCH   4  15
BRANCH   9  31
HETATM   31  C   UNK N   1      35.983  13.766  12.572  0.00  0.00     0.084 C 
HETATM   32  C   UNK N   1      37.157  13.085  11.901  0.00  0.00     0.032 C 
HETATM   33  C   UNK N   1      36.419  14.391  13.887  0.00  0.00     0.032 C 
ENDBRANCH   9  31
BRANCH   6  34
HETATM   34  C   UNK N   1      33.740  11.018   8.295  0.00  0.00     0.122 C 
BRANCH  34  35
HETATM   35  C   UNK N   1      35.027  11.461   7.578  0.00  0.00     0.189 C 
BRANCH  35  36
HETATM   36  O   UNK N   1      36.085  11.634   8.475  0.00  0.00    -0.399 OA
HETATM   37  H   UNK N   1      36.420  10.891   9.002  0.00  0.00     0.209 HD
ENDBRANCH  35  36
ENDBRANCH  34  35
BRANCH  34  38
HETATM   38  C   UNK N   1      33.045   9.971   7.433  0.00  0.00     0.023 C 
HETATM   39  C   UNK N   1      34.033   9.015   6.784  0.00  0.00     0.007 C 
ENDBRANCH  34  38
ENDBRANCH   6  34
TORSDOF 9
ENDMDL
MODEL 8
REMARK VINA RESULT:      -7.2      5.515     11.081
REMARK  9 active torsions:
REMARK  status: ('A' for Active; 'I' for Inactive)
REMARK       I    between atoms: N_13  and  C_1 
REMARK    1  A    between atoms: C_4  and  N_22 
REMARK    2  A    between atoms: C_6  and  N_16 
REMARK    3  A    between atoms: C_8  and  C_11 
REMARK    4  A    between atoms: C_8  and  N_13 
REMARK    5  A    between atoms: C_12  and  C_8 
REMARK    6  A    between atoms: C_11  and  O_10 
REMARK    7  A    between atoms: C_23  and  N_22 
REMARK    8  A    between atoms: C_23  and  C_24 
REMARK    9  A    between atoms: C_27  and  C_30 
ROOT
HETATM    1  C   UNK N   1      24.116  13.884   7.451  0.00  0.00     0.681 A 
HETATM    2  C   UNK N   1      22.940  15.714   6.576  0.00  0.00     0.155 A 
HETATM    3  C   UNK N   1      24.044  16.144   5.946  0.00  0.00     0.123 A 
HETATM    4  C   UNK N   1      25.239  15.463   6.100  0.00  0.00     0.148 A 
HETATM    5  C   UNK N   1      22.494  17.577   5.617  0.00  0.00     0.185 A 
HETATM    6  N   UNK N   1      24.259  12.849   8.393  0.00  0.00    -0.219 N 
HETATM    7  N   UNK N   1      25.246  14.337   6.849  0.00  0.00    -0.175 N 
ATOM      8  HN  UNK N   1      26.117  13.817   6.962  1.00  0.00     0.186 HD
HETATM    9  N   UNK N   1      21.954  16.611   6.408  0.00  0.00    -0.323 N 
HETATM   10  N   UNK N   1      23.791  17.308   5.318  0.00  0.00    -0.346 N 
ATOM     11  HN  UNK N   1      24.428  17.862   4.746  1.00  0.00     0.167 HD
HETATM   12  N   UNK N   1      22.943  14.591   7.347  0.00  0.00    -0.174 N 
ATOM     13  HN  UNK N   1      22.100  14.284   7.833  1.00  0.00     0.186 HD
HETATM   14  H   UNK N   1      24.752  12.035   8.138  0.00  0.00     0.178 HD
ENDROOT
BRANCH   4  15
HETATM   15  N   UNK N   1      26.450  15.960   5.615  0.00  0.00    -0.370 N 
HETATM   16  H   UNK N   1      26.512  16.901   5.330  0.00  0.00     0.161 HD
BRANCH  15  17
HETATM   17  C   UNK N   1      27.590  15.121   5.527  0.00  0.00     0.160 C 
BRANCH  17  18
HETATM   18  C   UNK N   1      28.747  15.964   5.873  0.00  0.00    -0.041 C 
HETATM   19  C   UNK N   1      30.006  15.613   5.376  0.00  0.00     0.010 C 
HETATM   20  C   UNK N   1      31.136  16.212   5.887  0.00  0.00     0.014 C 
HETATM   21  C   UNK N   1      31.013  17.146   6.914  0.00  0.00    -0.009 C 
HETATM   22  C   UNK N   1      29.742  17.605   7.305  0.00  0.00     0.014 C 
HETATM   23  C   UNK N   1      28.603  17.018   6.769  0.00  0.00     0.010 C 
BRANCH  21  24
HETATM   24  C   UNK N   1      32.100  17.167   7.889  0.00  0.00     0.042 A 
HETATM   25  N   UNK N   1      33.064  18.125   7.772  0.00  0.00    -0.365 N 
HETATM   26  C   UNK N   1      34.278  17.995   8.361  0.00  0.00     0.088 A 
ATOM     27  HN  UNK N   1      32.865  18.965   7.226  1.00  0.00     0.165 HD
HETATM   28  C   UNK N   1      34.579  16.841   9.084  0.00  0.00     0.017 A 
HETATM   29  C   UNK N   1      33.607  15.854   9.237  0.00  0.00     0.004 A 
HETATM   30  C   UNK N   1      32.366  16.009   8.632  0.00  0.00     0.030 A 
ENDBRANCH  21  24
ENDBRANCH  17  18
ENDBRANCH  15  17
ENDBRANCH   4  15
BRANCH   9  31
HETATM   31  C   UNK N   1      20.619  16.686   7.011  0.00  0.00     0.084 C 
HETATM   32  C   UNK N   1      19.638  15.773   6.308  0.00  0.00     0.032 C 
HETATM   33  C   UNK N   1      20.613  16.415   8.506  0.00  0.00     0.032 C 
ENDBRANCH   9  31
BRANCH   6  34
HETATM   34  C   UNK N   1      23.706  12.944   9.720  0.00  0.00     0.122 C 
BRANCH  34  35
HETATM   35  C   UNK N   1      24.592  12.179  10.718  0.00  0.00     0.189 C 
BRANCH  35  36
HETATM   36  O   UNK N   1      25.486  13.029  11.373  0.00  0.00    -0.399 OA
HETATM   37  H   UNK N   1      26.012  12.719  12.127  0.00  0.00     0.209 HD
ENDBRANCH  35  36
ENDBRANCH  34  35
BRANCH  34  38
HETATM   38  C   UNK N   1      22.339  12.272   9.677  0.00  0.00     0.023 C 
HETATM   39  C   UNK N   1      21.775  12.027  11.068  0.00  0.00     0.007 C 
ENDBRANCH  34  38
ENDBRANCH   6  34
TORSDOF 9
ENDMDL
MODEL 9
REMARK VINA RESULT:      -7.2     15.015     18.336
REMARK  9 active torsions:
REMARK  status: ('A' for Active; 'I' for Inactive)
REMARK       I    between atoms: N_13  and  C_1 
REMARK    1  A    between atoms: C_4  and  N_22 
REMARK    2  A    between atoms: C_6  and  N_16 
REMARK    3  A    between atoms: C_8  and  C_11 
REMARK    4  A    between atoms: C_8  and  N_13 
REMARK    5  A    between atoms: C_12  and  C_8 
REMARK    6  A    between atoms: C_11  and  O_10 
REMARK    7  A    between atoms: C_23  and  N_22 
REMARK    8  A    between atoms: C_23  and  C_24 
REMARK    9  A    between atoms: C_27  and  C_30 
ROOT
HETATM    1  C   UNK N   1      28.849  23.809  -5.400  0.00  0.00     0.681 A 
HETATM    2  C   UNK N   1      27.530  22.893  -7.108  0.00  0.00     0.155 A 
HETATM    3  C   UNK N   1      26.490  23.655  -6.736  0.00  0.00     0.123 A 
HETATM    4  C   UNK N   1      26.599  24.490  -5.638  0.00  0.00     0.148 A 
HETATM    5  C   UNK N   1      25.841  22.378  -8.322  0.00  0.00     0.185 A 
HETATM    6  N   UNK N   1      29.964  23.757  -4.543  0.00  0.00    -0.219 N 
HETATM    7  N   UNK N   1      27.788  24.553  -4.994  0.00  0.00    -0.175 N 
ATOM      8  HN  UNK N   1      27.888  25.173  -4.190  1.00  0.00     0.186 HD
HETATM    9  N   UNK N   1      27.142  22.059  -8.087  0.00  0.00    -0.323 N 
HETATM   10  N   UNK N   1      25.414  23.367  -7.494  0.00  0.00    -0.346 N 
ATOM     11  HN  UNK N   1      24.489  23.795  -7.456  1.00  0.00     0.167 HD
HETATM   12  N   UNK N   1      28.723  22.937  -6.453  0.00  0.00    -0.174 N 
ATOM     13  HN  UNK N   1      29.501  22.340  -6.737  1.00  0.00     0.186 HD
HETATM   14  H   UNK N   1      30.357  24.600  -4.218  0.00  0.00     0.178 HD
ENDROOT
BRANCH   4  15
HETATM   15  N   UNK N   1      25.504  25.169  -5.103  0.00  0.00    -0.370 N 
HETATM   16  H   UNK N   1      25.054  24.816  -4.301  0.00  0.00     0.161 HD
BRANCH  15  17
HETATM   17  C   UNK N   1      25.032  26.363  -5.706  0.00  0.00     0.160 C 
BRANCH  17  18
HETATM   18  C   UNK N   1      25.833  27.457  -5.133  0.00  0.00    -0.041 C 
HETATM   19  C   UNK N   1      26.780  28.093  -5.942  0.00  0.00     0.010 C 
HETATM   20  C   UNK N   1      27.719  28.924  -5.375  0.00  0.00     0.014 C 
HETATM   21  C   UNK N   1      27.731  29.105  -3.993  0.00  0.00    -0.009 C 
HETATM   22  C   UNK N   1      26.690  28.587  -3.203  0.00  0.00     0.014 C 
HETATM   23  C   UNK N   1      25.727  27.769  -3.782  0.00  0.00     0.010 C 
BRANCH  21  24
HETATM   24  C   UNK N   1      29.046  29.298  -3.388  0.00  0.00     0.042 A 
HETATM   25  N   UNK N   1      30.082  28.519  -3.814  0.00  0.00    -0.365 N 
HETATM   26  C   UNK N   1      31.202  28.350  -3.070  0.00  0.00     0.088 A 
ATOM     27  HN  UNK N   1      30.010  28.050  -4.718  1.00  0.00     0.165 HD
HETATM   28  C   UNK N   1      31.304  28.956  -1.819  0.00  0.00     0.017 A 
HETATM   29  C   UNK N   1      30.271  29.774  -1.366  0.00  0.00     0.004 A 
HETATM   30  C   UNK N   1      29.132  29.941  -2.146  0.00  0.00     0.030 A 
ENDBRANCH  21  24
ENDBRANCH  17  18
ENDBRANCH  15  17
ENDBRANCH   4  15
BRANCH   9  31
HETATM   31  C   UNK N   1      27.846  20.940  -8.722  0.00  0.00     0.084 C 
HETATM   32  C   UNK N   1      28.835  21.422  -9.763  0.00  0.00     0.032 C 
HETATM   33  C   UNK N   1      28.534  20.016  -7.732  0.00  0.00     0.032 C 
ENDBRANCH   9  31
BRANCH   6  34
HETATM   34  C   UNK N   1      30.548  22.508  -4.127  0.00  0.00     0.122 C 
BRANCH  34  35
HETATM   35  C   UNK N   1      30.155  22.199  -2.673  0.00  0.00     0.189 C 
BRANCH  35  36
HETATM   36  O   UNK N   1      30.763  23.080  -1.775  0.00  0.00    -0.399 OA
HETATM   37  H   UNK N   1      30.425  23.982  -1.652  0.00  0.00     0.209 HD
ENDBRANCH  35  36
ENDBRANCH  34  35
BRANCH  34  38
HETATM   38  C   UNK N   1      32.060  22.684  -4.191  0.00  0.00     0.023 C 
HETATM   39  C   UNK N   1      32.457  24.053  -4.720  0.00  0.00     0.007 C 
ENDBRANCH  34  38
ENDBRANCH   6  34
TORSDOF 9
ENDMDL
