MODEL 1
REMARK VINA RESULT:      -7.0      0.000      0.000
REMARK  11 active torsions:
REMARK  status: ('A' for Active; 'I' for Inactive)
REMARK    1  A    between atoms: O_2  and  C_3 
REMARK    2  A    between atoms: C_3  and  C_5 
REMARK    3  A    between atoms: C_6  and  O_7 
REMARK    4  A    between atoms: C_9  and  O_10 
REMARK    5  A    between atoms: C_13  and  C_14 
REMARK    6  A    between atoms: C_14  and  C_15 
REMARK    7  A    between atoms: C_15  and  C_16 
REMARK       I    between atoms: C_16  and  N_18 
REMARK    8  A    between atoms: N_18  and  C_19 
REMARK    9  A    between atoms: C_21  and  O_22 
REMARK   10  A    between atoms: C_23  and  O_24 
REMARK   11  A    between atoms: C_27  and  O_28 
ROOT
HETATM    1  C   UNK N   1      32.561  17.430   6.951  0.00  0.00     0.108 C 
ENDROOT
BRANCH   1   2
HETATM    2  C   UNK N   1      31.298  16.596   7.080  0.00  0.00     0.051 C 
BRANCH   2   3
HETATM    3  C   UNK N   1      30.069  17.360   6.672  0.00  0.00    -0.014 A 
HETATM    4  C   UNK N   1      29.670  17.510   5.293  0.00  0.00     0.080 A 
HETATM    5  C   UNK N   1      28.503  18.299   5.042  0.00  0.00     0.085 A 
HETATM    6  C   UNK N   1      27.786  18.867   6.094  0.00  0.00     0.076 A 
HETATM    7  C   UNK N   1      28.184  18.707   7.409  0.00  0.00     0.090 A 
HETATM    8  C   UNK N   1      29.323  17.965   7.705  0.00  0.00     0.074 A 
HETATM    9 Cl   UNK N   1      29.820  17.806   9.395  0.00  0.00    -0.081 Cl
BRANCH   4  10
HETATM   10  C   UNK N   1      30.531  16.892   4.178  0.00  0.00     0.296 C 
HETATM   11  O   UNK N   1      30.238  15.781   3.775  0.00  0.00    -0.259 OA
BRANCH  10  12
HETATM   12  O   UNK N   1      31.641  17.450   3.614  0.00  0.00    -0.322 OA
HETATM   13  C   UNK N   1      32.780  16.822   3.181  0.00  0.00     0.213 C 
ENDBRANCH  10  12
ENDBRANCH   4  10
BRANCH   5  14
HETATM   14  O   UNK N   1      28.074  18.578   3.807  0.00  0.00    -0.360 OA
HETATM   15  H   UNK N   1      27.387  19.203   3.679  0.00  0.00     0.217 HD
ENDBRANCH   5  14
BRANCH   7  16
HETATM   16  O   UNK N   1      27.470  19.286   8.391  0.00  0.00    -0.359 OA
HETATM   17  H   UNK N   1      26.916  18.769   8.942  0.00  0.00     0.217 HD
ENDBRANCH   7  16
ENDBRANCH   2   3
ENDBRANCH   1   2
BRANCH   1  18
HETATM   18  C   UNK N   1      33.625  16.847   7.822  0.00  0.00     0.222 C 
HETATM   19  O   UNK N   1      34.775  16.799   7.409  0.00  0.00    -0.273 OA
HETATM   20  N   UNK N   1      33.311  16.454   9.084  0.00  0.00    -0.325 N 
HETATM   21  H   UNK N   1      32.382  16.609   9.370  0.00  0.00     0.169 HD
BRANCH  20  22
HETATM   22  C   UNK N   1      34.176  15.840  10.043  0.00  0.00     0.071 A 
HETATM   23  C   UNK N   1      33.925  14.508  10.379  0.00  0.00     0.071 A 
HETATM   24  C   UNK N   1      34.731  13.821  11.292  0.00  0.00     0.101 A 
HETATM   25  C   UNK N   1      35.835  14.479  11.886  0.00  0.00     0.104 A 
HETATM   26  C   UNK N   1      36.097  15.804  11.540  0.00  0.00     0.078 A 
HETATM   27  C   UNK N   1      35.292  16.492  10.625  0.00  0.00     0.095 A 
BRANCH  24  28
HETATM   28  O   UNK N   1      34.432  12.544  11.581  0.00  0.00    -0.358 OA
HETATM   29  H   UNK N   1      34.581  11.870  10.947  0.00  0.00     0.217 HD
ENDBRANCH  24  28
BRANCH  25  30
HETATM   30  O   UNK N   1      36.672  13.882  12.779  0.00  0.00    -0.353 OA
HETATM   31  C   UNK N   1      36.460  13.793  14.134  0.00  0.00     0.210 C 
ENDBRANCH  25  30
BRANCH  27  32
HETATM   32  O   UNK N   1      35.631  17.747  10.296  0.00  0.00    -0.358 OA
HETATM   33  H   UNK N   1      35.939  18.343  10.951  0.00  0.00     0.217 HD
ENDBRANCH  27  32
ENDBRANCH  20  22
ENDBRANCH   1  18
TORSDOF 11
ENDMDL
MODEL 2
REMARK VINA RESULT:      -6.9      4.803     10.831
REMARK  11 active torsions:
REMARK  status: ('A' for Active; 'I' for Inactive)
REMARK    1  A    between atoms: O_2  and  C_3 
REMARK    2  A    between atoms: C_3  and  C_5 
REMARK    3  A    between atoms: C_6  and  O_7 
REMARK    4  A    between atoms: C_9  and  O_10 
REMARK    5  A    between atoms: C_13  and  C_14 
REMARK    6  A    between atoms: C_14  and  C_15 
REMARK    7  A    between atoms: C_15  and  C_16 
REMARK       I    between atoms: C_16  and  N_18 
REMARK    8  A    between atoms: N_18  and  C_19 
REMARK    9  A    between atoms: C_21  and  O_22 
REMARK   10  A    between atoms: C_23  and  O_24 
REMARK   11  A    between atoms: C_27  and  O_28 
ROOT
HETATM    1  C   UNK N   1      36.677  13.098  14.740  0.00  0.00     0.108 C 
ENDROOT
BRANCH   1   2
HETATM    2  C   UNK N   1      35.370  13.281  15.494  0.00  0.00     0.051 C 
BRANCH   2   3
HETATM    3  C   UNK N   1      35.282  12.390  16.701  0.00  0.00    -0.014 A 
HETATM    4  C   UNK N   1      35.040  10.970  16.602  0.00  0.00     0.080 A 
HETATM    5  C   UNK N   1      34.936  10.247  17.833  0.00  0.00     0.085 A 
HETATM    6  C   UNK N   1      35.088  10.896  19.057  0.00  0.00     0.076 A 
HETATM    7  C   UNK N   1      35.325  12.257  19.128  0.00  0.00     0.090 A 
HETATM    8  C   UNK N   1      35.415  13.010  17.961  0.00  0.00     0.074 A 
HETATM    9 Cl   UNK N   1      35.687  14.752  18.091  0.00  0.00    -0.081 Cl
BRANCH   4  10
HETATM   10  C   UNK N   1      34.838  10.325  15.221  0.00  0.00     0.296 C 
HETATM   11  O   UNK N   1      33.728  10.371  14.722  0.00  0.00    -0.259 OA
BRANCH  10  12
HETATM   12  O   UNK N   1      35.781   9.650  14.501  0.00  0.00    -0.322 OA
HETATM   13  C   UNK N   1      36.925   9.047  14.956  0.00  0.00     0.213 C 
ENDBRANCH  10  12
ENDBRANCH   4  10
BRANCH   5  14
HETATM   14  O   UNK N   1      34.637   8.945  17.880  0.00  0.00    -0.360 OA
HETATM   15  H   UNK N   1      33.964   8.639  18.455  0.00  0.00     0.217 HD
ENDBRANCH   5  14
BRANCH   7  16
HETATM   16  O   UNK N   1      35.450  12.844  20.332  0.00  0.00    -0.359 OA
HETATM   17  H   UNK N   1      35.996  12.462  20.990  0.00  0.00     0.217 HD
ENDBRANCH   7  16
ENDBRANCH   2   3
ENDBRANCH   1   2
BRANCH   1  18
HETATM   18  C   UNK N   1      36.463  13.432  13.300  0.00  0.00     0.222 C 
HETATM   19  O   UNK N   1      37.149  12.881  12.452  0.00  0.00    -0.273 OA
HETATM   20  N   UNK N   1      35.460  14.281  12.955  0.00  0.00    -0.325 N 
HETATM   21  H   UNK N   1      34.897  14.611  13.691  0.00  0.00     0.169 HD
BRANCH  20  22
HETATM   22  C   UNK N   1      35.131  14.748  11.644  0.00  0.00     0.071 A 
HETATM   23  C   UNK N   1      35.433  16.077  11.338  0.00  0.00     0.071 A 
HETATM   24  C   UNK N   1      35.165  16.614  10.075  0.00  0.00     0.101 A 
HETATM   25  C   UNK N   1      34.584  15.798   9.074  0.00  0.00     0.104 A 
HETATM   26  C   UNK N   1      34.295  14.466   9.374  0.00  0.00     0.078 A 
HETATM   27  C   UNK N   1      34.564  13.927  10.636  0.00  0.00     0.095 A 
BRANCH  24  28
HETATM   28  O   UNK N   1      35.471  17.901   9.845  0.00  0.00    -0.358 OA
HETATM   29  H   UNK N   1      36.337  18.217  10.012  0.00  0.00     0.217 HD
ENDBRANCH  24  28
BRANCH  25  30
HETATM   30  O   UNK N   1      34.296  16.240   7.820  0.00  0.00    -0.353 OA
HETATM   31  C   UNK N   1      34.794  15.709   6.653  0.00  0.00     0.210 C 
ENDBRANCH  25  30
BRANCH  27  32
HETATM   32  O   UNK N   1      34.312  12.627  10.840  0.00  0.00    -0.358 OA
HETATM   33  H   UNK N   1      34.977  11.984  10.687  0.00  0.00     0.217 HD
ENDBRANCH  27  32
ENDBRANCH  20  22
ENDBRANCH   1  18
TORSDOF 11
ENDMDL
MODEL 3
REMARK VINA RESULT:      -6.9      9.807     11.601
REMARK  11 active torsions:
REMARK  status: ('A' for Active; 'I' for Inactive)
REMARK    1  A    between atoms: O_2  and  C_3 
REMARK    2  A    between atoms: C_3  and  C_5 
REMARK    3  A    between atoms: C_6  and  O_7 
REMARK    4  A    between atoms: C_9  and  O_10 
REMARK    5  A    between atoms: C_13  and  C_14 
REMARK    6  A    between atoms: C_14  and  C_15 
REMARK    7  A    between atoms: C_15  and  C_16 
REMARK       I    between atoms: C_16  and  N_18 
REMARK    8  A    between atoms: N_18  and  C_19 
REMARK    9  A    between atoms: C_21  and  O_22 
REMARK   10  A    between atoms: C_23  and  O_24 
REMARK   11  A    between atoms: C_27  and  O_28 
ROOT
HETATM    1  C   UNK N   1      20.586  17.095   6.382  0.00  0.00     0.108 C 
ENDROOT
BRANCH   1   2
HETATM    2  C   UNK N   1      21.665  16.838   5.344  0.00  0.00     0.051 C 
BRANCH   2   3
HETATM    3  C   UNK N   1      21.115  16.829   3.944  0.00  0.00    -0.014 A 
HETATM    4  C   UNK N   1      21.023  18.022   3.138  0.00  0.00     0.080 A 
HETATM    5  C   UNK N   1      20.439  17.879   1.840  0.00  0.00     0.085 A 
HETATM    6  C   UNK N   1      20.008  16.635   1.384  0.00  0.00     0.076 A 
HETATM    7  C   UNK N   1      20.111  15.502   2.171  0.00  0.00     0.090 A 
HETATM    8  C   UNK N   1      20.653  15.591   3.450  0.00  0.00     0.074 A 
HETATM    9 Cl   UNK N   1      20.740  14.129   4.441  0.00  0.00    -0.081 Cl
BRANCH   4  10
HETATM   10  C   UNK N   1      21.478  19.372   3.719  0.00  0.00     0.296 C 
HETATM   11  O   UNK N   1      20.656  20.048   4.312  0.00  0.00    -0.259 OA
BRANCH  10  12
HETATM   12  O   UNK N   1      22.720  19.925   3.597  0.00  0.00    -0.322 OA
HETATM   13  C   UNK N   1      23.938  19.307   3.704  0.00  0.00     0.213 C 
ENDBRANCH  10  12
ENDBRANCH   4  10
BRANCH   5  14
HETATM   14  O   UNK N   1      20.227  18.920   1.027  0.00  0.00    -0.360 OA
HETATM   15  H   UNK N   1      20.108  19.778   1.385  0.00  0.00     0.217 HD
ENDBRANCH   5  14
BRANCH   7  16
HETATM   16  O   UNK N   1      19.668  14.325   1.697  0.00  0.00    -0.359 OA
HETATM   17  H   UNK N   1      19.366  14.254   0.812  0.00  0.00     0.217 HD
ENDBRANCH   7  16
ENDBRANCH   2   3
ENDBRANCH   1   2
BRANCH   1  18
HETATM   18  C   UNK N   1      20.901  16.320   7.619  0.00  0.00     0.222 C 
HETATM   19  O   UNK N   1      20.754  16.852   8.710  0.00  0.00    -0.273 OA
HETATM   20  N   UNK N   1      21.270  15.017   7.513  0.00  0.00    -0.325 N 
HETATM   21  H   UNK N   1      21.277  14.639   6.605  0.00  0.00     0.169 HD
BRANCH  20  22
HETATM   22  C   UNK N   1      21.648  14.133   8.571  0.00  0.00     0.071 A 
HETATM   23  C   UNK N   1      22.976  13.702   8.609  0.00  0.00     0.071 A 
HETATM   24  C   UNK N   1      23.440  12.854   9.618  0.00  0.00     0.101 A 
HETATM   25  C   UNK N   1      22.554  12.422  10.635  0.00  0.00     0.104 A 
HETATM   26  C   UNK N   1      21.230  12.864  10.608  0.00  0.00     0.078 A 
HETATM   27  C   UNK N   1      20.766  13.714   9.599  0.00  0.00     0.095 A 
BRANCH  24  28
HETATM   28  O   UNK N   1      24.726  12.468   9.595  0.00  0.00    -0.358 OA
HETATM   29  H   UNK N   1      25.049  11.865  10.235  0.00  0.00     0.217 HD
ENDBRANCH  24  28
BRANCH  25  30
HETATM   30  O   UNK N   1      22.925  11.602  11.655  0.00  0.00    -0.353 OA
HETATM   31  C   UNK N   1      23.207  12.004  12.940  0.00  0.00     0.210 C 
ENDBRANCH  25  30
BRANCH  27  32
HETATM   32  O   UNK N   1      19.497  14.143   9.662  0.00  0.00    -0.358 OA
HETATM   33  H   UNK N   1      19.206  14.661  10.387  0.00  0.00     0.217 HD
ENDBRANCH  27  32
ENDBRANCH  20  22
ENDBRANCH   1  18
TORSDOF 11
ENDMDL
MODEL 4
REMARK VINA RESULT:      -6.8      1.727      2.266
REMARK  11 active torsions:
REMARK  status: ('A' for Active; 'I' for Inactive)
REMARK    1  A    between atoms: O_2  and  C_3 
REMARK    2  A    between atoms: C_3  and  C_5 
REMARK    3  A    between atoms: C_6  and  O_7 
REMARK    4  A    between atoms: C_9  and  O_10 
REMARK    5  A    between atoms: C_13  and  C_14 
REMARK    6  A    between atoms: C_14  and  C_15 
REMARK    7  A    between atoms: C_15  and  C_16 
REMARK       I    between atoms: C_16  and  N_18 
REMARK    8  A    between atoms: N_18  and  C_19 
REMARK    9  A    between atoms: C_21  and  O_22 
REMARK   10  A    between atoms: C_23  and  O_24 
REMARK   11  A    between atoms: C_27  and  O_28 
ROOT
HETATM    1  C   UNK N   1      32.116  18.286   8.435  0.00  0.00     0.108 C 
ENDROOT
BRANCH   1   2
HETATM    2  C   UNK N   1      31.075  17.194   8.256  0.00  0.00     0.051 C 
BRANCH   2   3
HETATM    3  C   UNK N   1      30.219  17.420   7.041  0.00  0.00    -0.014 A 
HETATM    4  C   UNK N   1      30.661  17.092   5.707  0.00  0.00     0.080 A 
HETATM    5  C   UNK N   1      29.763  17.400   4.636  0.00  0.00     0.085 A 
HETATM    6  C   UNK N   1      28.515  17.965   4.892  0.00  0.00     0.076 A 
HETATM    7  C   UNK N   1      28.108  18.266   6.179  0.00  0.00     0.090 A 
HETATM    8  C   UNK N   1      28.953  18.006   7.254  0.00  0.00     0.074 A 
HETATM    9 Cl   UNK N   1      28.414  18.432   8.883  0.00  0.00    -0.081 Cl
BRANCH   4  10
HETATM   10  C   UNK N   1      32.068  16.509   5.491  0.00  0.00     0.296 C 
HETATM   11  O   UNK N   1      32.878  17.177   4.873  0.00  0.00    -0.259 OA
BRANCH  10  12
HETATM   12  O   UNK N   1      32.500  15.277   5.887  0.00  0.00    -0.322 OA
HETATM   13  C   UNK N   1      31.837  14.079   5.806  0.00  0.00     0.213 C 
ENDBRANCH  10  12
ENDBRANCH   4  10
BRANCH   5  14
HETATM   14  O   UNK N   1      30.084  17.217   3.351  0.00  0.00    -0.360 OA
HETATM   15  H   UNK N   1      30.695  16.548   3.111  0.00  0.00     0.217 HD
ENDBRANCH   5  14
BRANCH   7  16
HETATM   16  O   UNK N   1      26.902  18.826   6.378  0.00  0.00    -0.359 OA
HETATM   17  H   UNK N   1      26.178  18.597   5.829  0.00  0.00     0.217 HD
ENDBRANCH   7  16
ENDBRANCH   2   3
ENDBRANCH   1   2
BRANCH   1  18
HETATM   18  C   UNK N   1      33.429  17.661   8.775  0.00  0.00     0.222 C 
HETATM   19  O   UNK N   1      34.458  18.293   8.584  0.00  0.00    -0.273 OA
HETATM   20  N   UNK N   1      33.452  16.435   9.360  0.00  0.00    -0.325 N 
HETATM   21  H   UNK N   1      32.577  16.032   9.560  0.00  0.00     0.169 HD
BRANCH  20  22
HETATM   22  C   UNK N   1      34.602  15.664   9.716  0.00  0.00     0.071 A 
HETATM   23  C   UNK N   1      35.018  15.705  11.049  0.00  0.00     0.071 A 
HETATM   24  C   UNK N   1      36.120  14.967  11.492  0.00  0.00     0.101 A 
HETATM   25  C   UNK N   1      36.831  14.150  10.579  0.00  0.00     0.104 A 
HETATM   26  C   UNK N   1      36.407  14.096   9.251  0.00  0.00     0.078 A 
HETATM   27  C   UNK N   1      35.304  14.832   8.807  0.00  0.00     0.095 A 
BRANCH  24  28
HETATM   28  O   UNK N   1      36.476  15.055  12.784  0.00  0.00    -0.358 OA
HETATM   29  H   UNK N   1      36.810  14.304  13.233  0.00  0.00     0.217 HD
ENDBRANCH  24  28
BRANCH  25  30
HETATM   30  O   UNK N   1      37.909  13.397  10.929  0.00  0.00    -0.353 OA
HETATM   31  C   UNK N   1      37.864  12.096  11.373  0.00  0.00     0.210 C 
ENDBRANCH  25  30
BRANCH  27  32
HETATM   32  O   UNK N   1      34.917  14.694   7.531  0.00  0.00    -0.358 OA
HETATM   33  H   UNK N   1      34.541  15.416   7.067  0.00  0.00     0.217 HD
ENDBRANCH  27  32
ENDBRANCH  20  22
ENDBRANCH   1  18
TORSDOF 11
ENDMDL
MODEL 5
REMARK VINA RESULT:      -6.8      3.937      9.786
REMARK  11 active torsions:
REMARK  status: ('A' for Active; 'I' for Inactive)
REMARK    1  A    between atoms: O_2  and  C_3 
REMARK    2  A    between atoms: C_3  and  C_5 
REMARK    3  A    between atoms: C_6  and  O_7 
REMARK    4  A    between atoms: C_9  and  O_10 
REMARK    5  A    between atoms: C_13  and  C_14 
REMARK    6  A    between atoms: C_14  and  C_15 
REMARK    7  A    between atoms: C_15  and  C_16 
REMARK       I    between atoms: C_16  and  N_18 
REMARK    8  A    between atoms: N_18  and  C_19 
REMARK    9  A    between atoms: C_21  and  O_22 
REMARK   10  A    between atoms: C_23  and  O_24 
REMARK   11  A    between atoms: C_27  and  O_28 
ROOT
HETATM    1  C   UNK N   1      29.588  16.615   3.776  0.00  0.00     0.108 C 
ENDROOT
BRANCH   1   2
HETATM    2  C   UNK N   1      30.239  17.766   4.525  0.00  0.00     0.051 C 
BRANCH   2   3
HETATM    3  C   UNK N   1      31.104  17.287   5.658  0.00  0.00    -0.014 A 
HETATM    4  C   UNK N   1      30.608  17.139   7.005  0.00  0.00     0.080 A 
HETATM    5  C   UNK N   1      31.550  16.717   7.996  0.00  0.00     0.085 A 
HETATM    6  C   UNK N   1      32.872  16.443   7.652  0.00  0.00     0.076 A 
HETATM    7  C   UNK N   1      33.326  16.586   6.354  0.00  0.00     0.090 A 
HETATM    8  C   UNK N   1      32.455  17.014   5.356  0.00  0.00     0.074 A 
HETATM    9 Cl   UNK N   1      33.076  17.217   3.713  0.00  0.00    -0.081 Cl
BRANCH   4  10
HETATM   10  C   UNK N   1      29.147  17.500   7.324  0.00  0.00     0.296 C 
HETATM   11  O   UNK N   1      28.281  16.693   7.037  0.00  0.00    -0.259 OA
BRANCH  10  12
HETATM   12  O   UNK N   1      28.705  18.674   7.862  0.00  0.00    -0.322 OA
HETATM   13  C   UNK N   1      27.843  19.587   7.314  0.00  0.00     0.213 C 
ENDBRANCH  10  12
ENDBRANCH   4  10
BRANCH   5  14
HETATM   14  O   UNK N   1      31.236  16.616   9.292  0.00  0.00    -0.360 OA
HETATM   15  H   UNK N   1      31.762  16.091   9.862  0.00  0.00     0.217 HD
ENDBRANCH   5  14
BRANCH   7  16
HETATM   16  O   UNK N   1      34.615  16.326   6.070  0.00  0.00    -0.359 OA
HETATM   17  H   UNK N   1      35.285  16.936   6.310  0.00  0.00     0.217 HD
ENDBRANCH   7  16
ENDBRANCH   2   3
ENDBRANCH   1   2
BRANCH   1  18
HETATM   18  C   UNK N   1      28.139  16.918   3.578  0.00  0.00     0.222 C 
HETATM   19  O   UNK N   1      27.465  16.176   2.877  0.00  0.00    -0.273 OA
HETATM   20  N   UNK N   1      27.580  17.964   4.240  0.00  0.00    -0.325 N 
HETATM   21  H   UNK N   1      28.170  18.456   4.854  0.00  0.00     0.169 HD
BRANCH  20  22
HETATM   22  C   UNK N   1      26.231  18.430   4.147  0.00  0.00     0.071 A 
HETATM   23  C   UNK N   1      25.962  19.446   3.227  0.00  0.00     0.071 A 
HETATM   24  C   UNK N   1      24.669  19.949   3.054  0.00  0.00     0.101 A 
HETATM   25  C   UNK N   1      23.600  19.417   3.816  0.00  0.00     0.104 A 
HETATM   26  C   UNK N   1      23.865  18.391   4.723  0.00  0.00     0.078 A 
HETATM   27  C   UNK N   1      25.158  17.886   4.897  0.00  0.00     0.095 A 
BRANCH  24  28
HETATM   28  O   UNK N   1      24.476  20.933   2.160  0.00  0.00    -0.358 OA
HETATM   29  H   UNK N   1      23.649  21.371   2.113  0.00  0.00     0.217 HD
ENDBRANCH  24  28
BRANCH  25  30
HETATM   30  O   UNK N   1      22.313  19.845   3.704  0.00  0.00    -0.353 OA
HETATM   31  C   UNK N   1      21.195  19.062   3.868  0.00  0.00     0.210 C 
ENDBRANCH  25  30
BRANCH  27  32
HETATM   32  O   UNK N   1      25.334  16.864   5.746  0.00  0.00    -0.358 OA
HETATM   33  H   UNK N   1      26.197  16.579   5.975  0.00  0.00     0.217 HD
ENDBRANCH  27  32
ENDBRANCH  20  22
ENDBRANCH   1  18
TORSDOF 11
ENDMDL
MODEL 6
REMARK VINA RESULT:      -6.8      1.707      3.163
REMARK  11 active torsions:
REMARK  status: ('A' for Active; 'I' for Inactive)
REMARK    1  A    between atoms: O_2  and  C_3 
REMARK    2  A    between atoms: C_3  and  C_5 
REMARK    3  A    between atoms: C_6  and  O_7 
REMARK    4  A    between atoms: C_9  and  O_10 
REMARK    5  A    between atoms: C_13  and  C_14 
REMARK    6  A    between atoms: C_14  and  C_15 
REMARK    7  A    between atoms: C_15  and  C_16 
REMARK       I    between atoms: C_16  and  N_18 
REMARK    8  A    between atoms: N_18  and  C_19 
REMARK    9  A    between atoms: C_21  and  O_22 
REMARK   10  A    between atoms: C_23  and  O_24 
REMARK   11  A    between atoms: C_27  and  O_28 
ROOT
HETATM    1  C   UNK N   1      32.437  17.380   6.292  0.00  0.00     0.108 C 
ENDROOT
BRANCH   1   2
HETATM    2  C   UNK N   1      31.140  16.629   6.544  0.00  0.00     0.051 C 
BRANCH   2   3
HETATM    3  C   UNK N   1      29.932  17.500   6.338  0.00  0.00    -0.014 A 
HETATM    4  C   UNK N   1      29.274  18.185   7.425  0.00  0.00     0.080 A 
HETATM    5  C   UNK N   1      28.108  18.946   7.096  0.00  0.00     0.085 A 
HETATM    6  C   UNK N   1      27.659  19.029   5.779  0.00  0.00     0.076 A 
HETATM    7  C   UNK N   1      28.308  18.369   4.751  0.00  0.00     0.090 A 
HETATM    8  C   UNK N   1      29.435  17.599   5.022  0.00  0.00     0.074 A 
HETATM    9 Cl   UNK N   1      30.221  16.744   3.689  0.00  0.00    -0.081 Cl
BRANCH   4  10
HETATM   10  C   UNK N   1      29.797  18.015   8.862  0.00  0.00     0.296 C 
HETATM   11  O   UNK N   1      30.869  18.519   9.146  0.00  0.00    -0.259 OA
BRANCH  10  12
HETATM   12  O   UNK N   1      29.196  17.302   9.860  0.00  0.00    -0.322 OA
HETATM   13  C   UNK N   1      28.016  16.608   9.814  0.00  0.00     0.213 C 
ENDBRANCH  10  12
ENDBRANCH   4  10
BRANCH   5  14
HETATM   14  O   UNK N   1      27.365  19.562   8.021  0.00  0.00    -0.360 OA
HETATM   15  H   UNK N   1      27.758  20.186   8.599  0.00  0.00     0.217 HD
ENDBRANCH   5  14
BRANCH   7  16
HETATM   16  O   UNK N   1      27.830  18.466   3.498  0.00  0.00    -0.359 OA
HETATM   17  H   UNK N   1      26.968  18.160   3.295  0.00  0.00     0.217 HD
ENDBRANCH   7  16
ENDBRANCH   2   3
ENDBRANCH   1   2
BRANCH   1  18
HETATM   18  C   UNK N   1      33.491  16.860   7.214  0.00  0.00     0.222 C 
HETATM   19  O   UNK N   1      34.645  16.781   6.817  0.00  0.00    -0.273 OA
HETATM   20  N   UNK N   1      33.164  16.560   8.497  0.00  0.00    -0.325 N 
HETATM   21  H   UNK N   1      32.233  16.736   8.762  0.00  0.00     0.169 HD
BRANCH  20  22
HETATM   22  C   UNK N   1      34.019  16.016   9.506  0.00  0.00     0.071 A 
HETATM   23  C   UNK N   1      33.798  14.693   9.895  0.00  0.00     0.071 A 
HETATM   24  C   UNK N   1      34.597  14.072  10.860  0.00  0.00     0.101 A 
HETATM   25  C   UNK N   1      35.663  14.790  11.455  0.00  0.00     0.104 A 
HETATM   26  C   UNK N   1      35.895  16.107  11.057  0.00  0.00     0.078 A 
HETATM   27  C   UNK N   1      35.097  16.728  10.091  0.00  0.00     0.095 A 
BRANCH  24  28
HETATM   28  O   UNK N   1      34.328  12.801  11.197  0.00  0.00    -0.358 OA
HETATM   29  H   UNK N   1      33.558  12.379  10.871  0.00  0.00     0.217 HD
ENDBRANCH  24  28
BRANCH  25  30
HETATM   30  O   UNK N   1      36.491  14.260  12.396  0.00  0.00    -0.353 OA
HETATM   31  C   UNK N   1      36.308  14.341  13.757  0.00  0.00     0.210 C 
ENDBRANCH  25  30
BRANCH  27  32
HETATM   32  O   UNK N   1      35.407  17.977   9.715  0.00  0.00    -0.358 OA
HETATM   33  H   UNK N   1      36.082  18.453  10.159  0.00  0.00     0.217 HD
ENDBRANCH  27  32
ENDBRANCH  20  22
ENDBRANCH   1  18
TORSDOF 11
ENDMDL
MODEL 7
REMARK VINA RESULT:      -6.7      2.628      8.008
REMARK  11 active torsions:
REMARK  status: ('A' for Active; 'I' for Inactive)
REMARK    1  A    between atoms: O_2  and  C_3 
REMARK    2  A    between atoms: C_3  and  C_5 
REMARK    3  A    between atoms: C_6  and  O_7 
REMARK    4  A    between atoms: C_9  and  O_10 
REMARK    5  A    between atoms: C_13  and  C_14 
REMARK    6  A    between atoms: C_14  and  C_15 
REMARK    7  A    between atoms: C_15  and  C_16 
REMARK       I    between atoms: C_16  and  N_18 
REMARK    8  A    between atoms: N_18  and  C_19 
REMARK    9  A    between atoms: C_21  and  O_22 
REMARK   10  A    between atoms: C_23  and  O_24 
REMARK   11  A    between atoms: C_27  and  O_28 
ROOT
HETATM    1  C   UNK N   1      34.636  17.159   9.535  0.00  0.00     0.108 C 
ENDROOT
BRANCH   1   2
HETATM    2  C   UNK N   1      34.483  15.686   9.878  0.00  0.00     0.051 C 
BRANCH   2   3
HETATM    3  C   UNK N   1      35.680  14.879   9.459  0.00  0.00    -0.014 A 
HETATM    4  C   UNK N   1      35.939  14.530   8.083  0.00  0.00     0.080 A 
HETATM    5  C   UNK N   1      37.091  13.721   7.829  0.00  0.00     0.085 A 
HETATM    6  C   UNK N   1      37.925  13.320   8.871  0.00  0.00     0.076 A 
HETATM    7  C   UNK N   1      37.662  13.670  10.183  0.00  0.00     0.090 A 
HETATM    8  C   UNK N   1      36.543  14.440  10.485  0.00  0.00     0.074 A 
HETATM    9 Cl   UNK N   1      36.219  14.843  12.176  0.00  0.00    -0.081 Cl
BRANCH   4  10
HETATM   10  C   UNK N   1      34.954  14.970   6.986  0.00  0.00     0.296 C 
HETATM   11  O   UNK N   1      35.353  15.739   6.130  0.00  0.00    -0.259 OA
BRANCH  10  12
HETATM   12  O   UNK N   1      33.638  14.619   6.896  0.00  0.00    -0.322 OA
HETATM   13  C   UNK N   1      33.047  13.440   7.271  0.00  0.00     0.213 C 
ENDBRANCH  10  12
ENDBRANCH   4  10
BRANCH   5  14
HETATM   14  O   UNK N   1      37.398  13.266   6.609  0.00  0.00    -0.360 OA
HETATM   15  H   UNK N   1      38.148  13.600   6.159  0.00  0.00     0.217 HD
ENDBRANCH   5  14
BRANCH   7  16
HETATM   16  O   UNK N   1      38.486  13.248  11.158  0.00  0.00    -0.359 OA
HETATM   17  H   UNK N   1      39.381  13.524  11.174  0.00  0.00     0.217 HD
ENDBRANCH   7  16
ENDBRANCH   2   3
ENDBRANCH   1   2
BRANCH   1  18
HETATM   18  C   UNK N   1      33.476  17.589   8.697  0.00  0.00     0.222 C 
HETATM   19  O   UNK N   1      33.637  18.469   7.863  0.00  0.00    -0.273 OA
HETATM   20  N   UNK N   1      32.288  16.944   8.823  0.00  0.00    -0.325 N 
HETATM   21  H   UNK N   1      32.267  16.189   9.453  0.00  0.00     0.169 HD
BRANCH  20  22
HETATM   22  C   UNK N   1      31.064  17.238   8.144  0.00  0.00     0.071 A 
HETATM   23  C   UNK N   1      30.010  17.750   8.905  0.00  0.00     0.071 A 
HETATM   24  C   UNK N   1      28.785  18.085   8.322  0.00  0.00     0.101 A 
HETATM   25  C   UNK N   1      28.600  17.915   6.928  0.00  0.00     0.104 A 
HETATM   26  C   UNK N   1      29.656  17.418   6.164  0.00  0.00     0.078 A 
HETATM   27  C   UNK N   1      30.884  17.084   6.746  0.00  0.00     0.095 A 
BRANCH  24  28
HETATM   28  O   UNK N   1      27.807  18.564   9.109  0.00  0.00    -0.358 OA
HETATM   29  H   UNK N   1      26.946  18.695   8.764  0.00  0.00     0.217 HD
ENDBRANCH  24  28
BRANCH  25  30
HETATM   30  O   UNK N   1      27.442  18.221   6.282  0.00  0.00    -0.353 OA
HETATM   31  C   UNK N   1      27.168  19.416   5.660  0.00  0.00     0.210 C 
ENDBRANCH  25  30
BRANCH  27  32
HETATM   32  O   UNK N   1      31.874  16.662   5.946  0.00  0.00    -0.358 OA
HETATM   33  H   UNK N   1      32.395  17.279   5.469  0.00  0.00     0.217 HD
ENDBRANCH  27  32
ENDBRANCH  20  22
ENDBRANCH   1  18
TORSDOF 11
ENDMDL
MODEL 8
REMARK VINA RESULT:      -6.7     10.750     11.979
REMARK  11 active torsions:
REMARK  status: ('A' for Active; 'I' for Inactive)
REMARK    1  A    between atoms: O_2  and  C_3 
REMARK    2  A    between atoms: C_3  and  C_5 
REMARK    3  A    between atoms: C_6  and  O_7 
REMARK    4  A    between atoms: C_9  and  O_10 
REMARK    5  A    between atoms: C_13  and  C_14 
REMARK    6  A    between atoms: C_14  and  C_15 
REMARK    7  A    between atoms: C_15  and  C_16 
REMARK       I    between atoms: C_16  and  N_18 
REMARK    8  A    between atoms: N_18  and  C_19 
REMARK    9  A    between atoms: C_21  and  O_22 
REMARK   10  A    between atoms: C_23  and  O_24 
REMARK   11  A    between atoms: C_27  and  O_28 
ROOT
HETATM    1  C   UNK N   1      19.817  14.770   4.789  0.00  0.00     0.108 C 
ENDROOT
BRANCH   1   2
HETATM    2  C   UNK N   1      21.084  15.341   4.174  0.00  0.00     0.051 C 
BRANCH   2   3
HETATM    3  C   UNK N   1      20.816  16.585   3.374  0.00  0.00    -0.014 A 
HETATM    4  C   UNK N   1      20.586  16.558   1.949  0.00  0.00     0.080 A 
HETATM    5  C   UNK N   1      20.386  17.819   1.304  0.00  0.00     0.085 A 
HETATM    6  C   UNK N   1      20.393  19.004   2.037  0.00  0.00     0.076 A 
HETATM    7  C   UNK N   1      20.610  19.008   3.403  0.00  0.00     0.090 A 
HETATM    8  C   UNK N   1      20.829  17.809   4.075  0.00  0.00     0.074 A 
HETATM    9 Cl   UNK N   1      21.135  17.853   5.816  0.00  0.00    -0.081 Cl
BRANCH   4  10
HETATM   10  C   UNK N   1      20.634  15.218   1.194  0.00  0.00     0.296 C 
HETATM   11  O   UNK N   1      21.717  14.816   0.808  0.00  0.00    -0.259 OA
BRANCH  10  12
HETATM   12  O   UNK N   1      19.563  14.439   0.864  0.00  0.00    -0.322 OA
HETATM   13  C   UNK N   1      18.987  13.434   1.596  0.00  0.00     0.213 C 
ENDBRANCH  10  12
ENDBRANCH   4  10
BRANCH   5  14
HETATM   14  O   UNK N   1      20.240  17.936  -0.020  0.00  0.00    -0.360 OA
HETATM   15  H   UNK N   1      20.927  17.660  -0.594  0.00  0.00     0.217 HD
ENDBRANCH   5  14
BRANCH   7  16
HETATM   16  O   UNK N   1      20.624  20.177   4.068  0.00  0.00    -0.359 OA
HETATM   17  H   UNK N   1      21.030  20.932   3.689  0.00  0.00     0.217 HD
ENDBRANCH   7  16
ENDBRANCH   2   3
ENDBRANCH   1   2
BRANCH   1  18
HETATM   18  C   UNK N   1      20.186  13.852   5.908  0.00  0.00     0.222 C 
HETATM   19  O   UNK N   1      19.743  12.712   5.914  0.00  0.00    -0.273 OA
HETATM   20  N   UNK N   1      21.066  14.274   6.852  0.00  0.00    -0.325 N 
HETATM   21  H   UNK N   1      21.445  15.173   6.725  0.00  0.00     0.169 HD
BRANCH  20  22
HETATM   22  C   UNK N   1      21.504  13.559   8.011  0.00  0.00     0.071 A 
HETATM   23  C   UNK N   1      22.707  12.855   7.919  0.00  0.00     0.071 A 
HETATM   24  C   UNK N   1      23.222  12.146   9.007  0.00  0.00     0.101 A 
HETATM   25  C   UNK N   1      22.522  12.143  10.239  0.00  0.00     0.104 A 
HETATM   26  C   UNK N   1      21.329  12.858  10.337  0.00  0.00     0.078 A 
HETATM   27  C   UNK N   1      20.813  13.570   9.249  0.00  0.00     0.095 A 
BRANCH  24  28
HETATM   28  O   UNK N   1      24.379  11.481   8.853  0.00  0.00    -0.358 OA
HETATM   29  H   UNK N   1      24.394  10.545   8.895  0.00  0.00     0.217 HD
ENDBRANCH  24  28
BRANCH  25  30
HETATM   30  O   UNK N   1      22.957  11.483  11.347  0.00  0.00    -0.353 OA
HETATM   31  C   UNK N   1      22.922  11.973  12.632  0.00  0.00     0.210 C 
ENDBRANCH  25  30
BRANCH  27  32
HETATM   32  O   UNK N   1      19.689  14.279   9.427  0.00  0.00    -0.358 OA
HETATM   33  H   UNK N   1      19.017  13.969  10.003  0.00  0.00     0.217 HD
ENDBRANCH  27  32
ENDBRANCH  20  22
ENDBRANCH   1  18
TORSDOF 11
ENDMDL
MODEL 9
REMARK VINA RESULT:      -6.5     10.283     11.837
REMARK  11 active torsions:
REMARK  status: ('A' for Active; 'I' for Inactive)
REMARK    1  A    between atoms: O_2  and  C_3 
REMARK    2  A    between atoms: C_3  and  C_5 
REMARK    3  A    between atoms: C_6  and  O_7 
REMARK    4  A    between atoms: C_9  and  O_10 
REMARK    5  A    between atoms: C_13  and  C_14 
REMARK    6  A    between atoms: C_14  and  C_15 
REMARK    7  A    between atoms: C_15  and  C_16 
REMARK       I    between atoms: C_16  and  N_18 
REMARK    8  A    between atoms: N_18  and  C_19 
REMARK    9  A    between atoms: C_21  and  O_22 
REMARK   10  A    between atoms: C_23  and  O_24 
REMARK   11  A    between atoms: C_27  and  O_28 
ROOT
HETATM    1  C   UNK N   1      20.680  17.151   6.514  0.00  0.00     0.108 C 
ENDROOT
BRANCH   1   2
HETATM    2  C   UNK N   1      21.593  16.672   5.398  0.00  0.00     0.051 C 
BRANCH   2   3
HETATM    3  C   UNK N   1      20.879  16.589   4.078  0.00  0.00    -0.014 A 
HETATM    4  C   UNK N   1      20.160  15.410   3.657  0.00  0.00     0.080 A 
HETATM    5  C   UNK N   1      19.563  15.450   2.357  0.00  0.00     0.085 A 
HETATM    6  C   UNK N   1      19.661  16.590   1.561  0.00  0.00     0.076 A 
HETATM    7  C   UNK N   1      20.351  17.710   1.986  0.00  0.00     0.090 A 
HETATM    8  C   UNK N   1      20.967  17.716   3.234  0.00  0.00     0.074 A 
HETATM    9 Cl   UNK N   1      21.867  19.154   3.732  0.00  0.00    -0.081 Cl
BRANCH   4  10
HETATM   10  C   UNK N   1      20.127  14.171   4.567  0.00  0.00     0.296 C 
HETATM   11  O   UNK N   1      19.245  14.096   5.404  0.00  0.00    -0.259 OA
BRANCH  10  12
HETATM   12  O   UNK N   1      21.029  13.147   4.568  0.00  0.00    -0.322 OA
HETATM   13  C   UNK N   1      21.460  12.395   3.506  0.00  0.00     0.213 C 
ENDBRANCH  10  12
ENDBRANCH   4  10
BRANCH   5  14
HETATM   14  O   UNK N   1      18.936  14.398   1.820  0.00  0.00    -0.360 OA
HETATM   15  H   UNK N   1      19.165  13.529   2.086  0.00  0.00     0.217 HD
ENDBRANCH   5  14
BRANCH   7  16
HETATM   16  O   UNK N   1      20.434  18.782   1.178  0.00  0.00    -0.359 OA
HETATM   17  H   UNK N   1      19.656  19.188   0.849  0.00  0.00     0.217 HD
ENDBRANCH   7  16
ENDBRANCH   2   3
ENDBRANCH   1   2
BRANCH   1  18
HETATM   18  C   UNK N   1      20.946  16.346   7.744  0.00  0.00     0.222 C 
HETATM   19  O   UNK N   1      20.720  16.839   8.840  0.00  0.00    -0.273 OA
HETATM   20  N   UNK N   1      21.359  15.058   7.621  0.00  0.00    -0.325 N 
HETATM   21  H   UNK N   1      21.430  14.710   6.704  0.00  0.00     0.169 HD
BRANCH  20  22
HETATM   22  C   UNK N   1      21.701  14.152   8.673  0.00  0.00     0.071 A 
HETATM   23  C   UNK N   1      23.031  13.731   8.755  0.00  0.00     0.071 A 
HETATM   24  C   UNK N   1      23.460  12.863   9.763  0.00  0.00     0.101 A 
HETATM   25  C   UNK N   1      22.536  12.400  10.732  0.00  0.00     0.104 A 
HETATM   26  C   UNK N   1      21.212  12.831  10.660  0.00  0.00     0.078 A 
HETATM   27  C   UNK N   1      20.781  13.702   9.653  0.00  0.00     0.095 A 
BRANCH  24  28
HETATM   28  O   UNK N   1      24.750  12.488   9.783  0.00  0.00    -0.358 OA
HETATM   29  H   UNK N   1      25.051  11.873  10.422  0.00  0.00     0.217 HD
ENDBRANCH  24  28
BRANCH  25  30
HETATM   30  O   UNK N   1      22.873  11.558  11.747  0.00  0.00    -0.353 OA
HETATM   31  C   UNK N   1      23.211  11.943  13.023  0.00  0.00     0.210 C 
ENDBRANCH  25  30
BRANCH  27  32
HETATM   32  O   UNK N   1      19.507  14.119   9.673  0.00  0.00    -0.358 OA
HETATM   33  H   UNK N   1      18.812  13.535   9.437  0.00  0.00     0.217 HD
ENDBRANCH  27  32
ENDBRANCH  20  22
ENDBRANCH   1  18
TORSDOF 11
ENDMDL
