REMARK  11 active torsions:
REMARK  status: ('A' for Active; 'I' for Inactive)
REMARK    1  A    between atoms: O_2  and  C_3 
REMARK    2  A    between atoms: C_4  and  O_5 
REMARK    3  A    between atoms: C_8  and  N_9 
REMARK    4  A    between atoms: C_10  and  O_11 
REMARK    5  A    between atoms: C_13  and  C_14 
REMARK    6  A    between atoms: C_14  and  C_15 
REMARK    7  A    between atoms: C_15  and  O_16 
REMARK    8  A    between atoms: O_16  and  C_17 
REMARK    9  A    between atoms: C_17  and  C_19 
REMARK   10  A    between atoms: C_23  and  O_24 
REMARK   11  A    between atoms: C_26  and  O_27 
ROOT
HETATM    1  C   UNK N   1      -0.420  -0.452  -1.430  0.00  0.00     0.071 C 
ENDROOT
BRANCH   1   2
HETATM    2  C   UNK N   1      -1.491   0.272  -0.643  0.00  0.00     0.016 A 
HETATM    3  C   UNK N   1      -2.659  -0.404  -0.156  0.00  0.00     0.110 A 
HETATM    4  C   UNK N   1      -3.653   0.350   0.528  0.00  0.00     0.104 A 
HETATM    5  C   UNK N   1      -3.463   1.710   0.738  0.00  0.00     0.071 A 
HETATM    6  C   UNK N   1      -2.334   2.373   0.280  0.00  0.00     0.062 A 
HETATM    7  C   UNK N   1      -1.337   1.663  -0.432  0.00  0.00     0.103 A 
BRANCH   3   8
HETATM    8  O   UNK N   1      -2.865  -1.742  -0.316  0.00  0.00    -0.352 OA
HETATM    9  C   UNK N   1      -1.963  -2.678  -0.765  0.00  0.00     0.210 C 
ENDBRANCH   3   8
BRANCH   4  10
HETATM   10  O   UNK N   1      -4.812  -0.185   1.004  0.00  0.00    -0.353 OA
HETATM   11  C   UNK N   1      -5.250  -1.475   0.814  0.00  0.00     0.210 C 
ENDBRANCH   4  10
BRANCH   6  12
HETATM   12  N   UNK N   1      -2.230   3.756   0.531  0.00  0.00    -0.397 N 
HETATM   13  H   UNK N   1      -1.357   4.177   0.706  0.00  0.00     0.156 HD
HETATM   14  H   UNK N   1      -3.044   4.311   0.531  0.00  0.00     0.156 HD
ENDBRANCH   6  12
BRANCH   7  15
HETATM   15  O   UNK N   1      -0.223   2.269  -0.938  0.00  0.00    -0.353 OA
HETATM   16  C   UNK N   1       0.133   3.589  -0.789  0.00  0.00     0.210 C 
ENDBRANCH   7  15
ENDBRANCH   1   2
BRANCH   1  17
HETATM   17  C   UNK N   1       0.828  -0.775  -0.607  0.00  0.00     0.183 C 
BRANCH  17  18
HETATM   18  O   UNK N   1       1.417   0.371  -0.140  0.00  0.00    -0.317 OA
BRANCH  18  19
HETATM   19  C   UNK N   1       2.738   0.688  -0.040  0.00  0.00     0.296 C 
HETATM   20  O   UNK N   1       3.008   1.879   0.000  0.00  0.00    -0.259 OA
BRANCH  19  21
HETATM   21  C   UNK N   1       3.895  -0.282   0.076  0.00  0.00     0.074 A 
HETATM   22  C   UNK N   1       5.178   0.303   0.102  0.00  0.00     0.047 A 
HETATM   23  C   UNK N   1       6.336  -0.459   0.242  0.00  0.00     0.068 A 
HETATM   24 Cl   UNK N   1       7.896   0.346   0.281  0.00  0.00    -0.081 Cl
HETATM   25  C   UNK N   1       6.242  -1.845   0.359  0.00  0.00     0.090 A 
HETATM   26  C   UNK N   1       4.990  -2.455   0.343  0.00  0.00     0.075 A 
HETATM   27  C   UNK N   1       3.819  -1.699   0.211  0.00  0.00     0.084 A 
BRANCH  25  28
HETATM   28  O   UNK N   1       7.347  -2.596   0.498  0.00  0.00    -0.359 OA
HETATM   29  H   UNK N   1       7.279  -3.526   0.594  0.00  0.00     0.217 HD
ENDBRANCH  25  28
BRANCH  27  30
HETATM   30  O   UNK N   1       2.655  -2.357   0.250  0.00  0.00    -0.360 OA
HETATM   31  H   UNK N   1       1.848  -1.882   0.277  0.00  0.00     0.217 HD
ENDBRANCH  27  30
ENDBRANCH  19  21
ENDBRANCH  18  19
ENDBRANCH  17  18
ENDBRANCH   1  17
TORSDOF 11
