MODEL 1
REMARK VINA RESULT:      -6.9      0.000      0.000
REMARK  11 active torsions:
REMARK  status: ('A' for Active; 'I' for Inactive)
REMARK    1  A    between atoms: O_2  and  C_3 
REMARK    2  A    between atoms: C_4  and  O_5 
REMARK    3  A    between atoms: C_8  and  N_9 
REMARK    4  A    between atoms: C_10  and  O_11 
REMARK    5  A    between atoms: C_13  and  C_14 
REMARK    6  A    between atoms: C_14  and  C_15 
REMARK    7  A    between atoms: C_15  and  O_16 
REMARK    8  A    between atoms: O_16  and  C_17 
REMARK    9  A    between atoms: C_17  and  C_19 
REMARK   10  A    between atoms: C_23  and  O_24 
REMARK   11  A    between atoms: C_26  and  O_27 
ROOT
HETATM    1  C   UNK N   1      27.403  19.557   4.053  0.00  0.00     0.071 C 
ENDROOT
BRANCH   1   2
HETATM    2  C   UNK N   1      28.000  18.793   5.215  0.00  0.00     0.016 A 
HETATM    3  C   UNK N   1      28.865  17.666   5.015  0.00  0.00     0.110 A 
HETATM    4  C   UNK N   1      29.346  16.959   6.152  0.00  0.00     0.104 A 
HETATM    5  C   UNK N   1      28.998  17.388   7.427  0.00  0.00     0.071 A 
HETATM    6  C   UNK N   1      28.170  18.481   7.634  0.00  0.00     0.062 A 
HETATM    7  C   UNK N   1      27.647  19.191   6.526  0.00  0.00     0.103 A 
BRANCH   3   8
HETATM    8  O   UNK N   1      29.252  17.235   3.781  0.00  0.00    -0.352 OA
HETATM    9  C   UNK N   1      28.696  16.221   3.037  0.00  0.00     0.210 C 
ENDBRANCH   3   8
BRANCH   4  10
HETATM   10  O   UNK N   1      30.146  15.859   6.075  0.00  0.00    -0.353 OA
HETATM   11  C   UNK N   1      31.292  15.636   6.802  0.00  0.00     0.210 C 
ENDBRANCH   4  10
BRANCH   6  12
HETATM   12  N   UNK N   1      27.863  18.838   8.962  0.00  0.00    -0.397 N 
HETATM   13  H   UNK N   1      27.650  18.153   9.637  0.00  0.00     0.156 HD
HETATM   14  H   UNK N   1      27.862  19.789   9.220  0.00  0.00     0.156 HD
ENDBRANCH   6  12
BRANCH   7  15
HETATM   15  O   UNK N   1      26.798  20.252   6.668  0.00  0.00    -0.353 OA
HETATM   16  C   UNK N   1      27.107  21.580   6.487  0.00  0.00     0.210 C 
ENDBRANCH   7  15
ENDBRANCH   1   2
BRANCH   1  17
HETATM   17  C   UNK N   1      26.104  18.946   3.525  0.00  0.00     0.183 C 
BRANCH  17  18
HETATM   18  O   UNK N   1      25.018  19.672   3.938  0.00  0.00    -0.317 OA
BRANCH  18  19
HETATM   19  C   UNK N   1      23.986  20.180   3.207  0.00  0.00     0.296 C 
HETATM   20  O   UNK N   1      24.243  21.146   2.505  0.00  0.00    -0.259 OA
BRANCH  19  21
HETATM   21  C   UNK N   1      22.573  19.640   3.140  0.00  0.00     0.074 A 
HETATM   22  C   UNK N   1      22.427  18.278   3.475  0.00  0.00     0.047 A 
HETATM   23  C   UNK N   1      21.183  17.650   3.494  0.00  0.00     0.068 A 
HETATM   24 Cl   UNK N   1      21.083  15.954   3.937  0.00  0.00    -0.081 Cl
HETATM   25  C   UNK N   1      20.037  18.375   3.172  0.00  0.00     0.090 A 
HETATM   26  C   UNK N   1      20.145  19.724   2.842  0.00  0.00     0.075 A 
HETATM   27  C   UNK N   1      21.388  20.368   2.827  0.00  0.00     0.084 A 
BRANCH  25  28
HETATM   28  O   UNK N   1      18.829  17.788   3.188  0.00  0.00    -0.359 OA
HETATM   29  H   UNK N   1      18.241  17.933   3.903  0.00  0.00     0.217 HD
ENDBRANCH  25  28
BRANCH  27  30
HETATM   30  O   UNK N   1      21.400  21.675   2.544  0.00  0.00    -0.360 OA
HETATM   31  H   UNK N   1      21.645  22.296   3.201  0.00  0.00     0.217 HD
ENDBRANCH  27  30
ENDBRANCH  19  21
ENDBRANCH  18  19
ENDBRANCH  17  18
ENDBRANCH   1  17
TORSDOF 11
ENDMDL
MODEL 2
REMARK VINA RESULT:      -6.6      4.404      9.982
REMARK  11 active torsions:
REMARK  status: ('A' for Active; 'I' for Inactive)
REMARK    1  A    between atoms: O_2  and  C_3 
REMARK    2  A    between atoms: C_4  and  O_5 
REMARK    3  A    between atoms: C_8  and  N_9 
REMARK    4  A    between atoms: C_10  and  O_11 
REMARK    5  A    between atoms: C_13  and  C_14 
REMARK    6  A    between atoms: C_14  and  C_15 
REMARK    7  A    between atoms: C_15  and  O_16 
REMARK    8  A    between atoms: O_16  and  C_17 
REMARK    9  A    between atoms: C_17  and  C_19 
REMARK   10  A    between atoms: C_23  and  O_24 
REMARK   11  A    between atoms: C_26  and  O_27 
ROOT
HETATM    1  C   UNK N   1      31.242  16.327   5.775  0.00  0.00     0.071 C 
ENDROOT
BRANCH   1   2
HETATM    2  C   UNK N   1      29.939  17.094   5.847  0.00  0.00     0.016 A 
HETATM    3  C   UNK N   1      29.163  17.378   4.674  0.00  0.00     0.110 A 
HETATM    4  C   UNK N   1      27.977  18.153   4.807  0.00  0.00     0.104 A 
HETATM    5  C   UNK N   1      27.578  18.590   6.064  0.00  0.00     0.071 A 
HETATM    6  C   UNK N   1      28.314  18.314   7.206  0.00  0.00     0.062 A 
HETATM    7  C   UNK N   1      29.517  17.573   7.110  0.00  0.00     0.103 A 
BRANCH   3   8
HETATM    8  O   UNK N   1      29.507  16.940   3.430  0.00  0.00    -0.352 OA
HETATM    9  C   UNK N   1      29.093  15.785   2.808  0.00  0.00     0.210 C 
ENDBRANCH   3   8
BRANCH   4  10
HETATM   10  O   UNK N   1      27.184  18.506   3.757  0.00  0.00    -0.353 OA
HETATM   11  C   UNK N   1      26.242  19.508   3.751  0.00  0.00     0.210 C 
ENDBRANCH   4  10
BRANCH   6  12
HETATM   12  N   UNK N   1      27.837  18.807   8.438  0.00  0.00    -0.397 N 
HETATM   13  H   UNK N   1      27.771  18.222   9.228  0.00  0.00     0.156 HD
HETATM   14  H   UNK N   1      27.566  19.751   8.510  0.00  0.00     0.156 HD
ENDBRANCH   6  12
BRANCH   7  15
HETATM   15  O   UNK N   1      30.302  17.302   8.194  0.00  0.00    -0.353 OA
HETATM   16  C   UNK N   1      31.086  18.197   8.884  0.00  0.00     0.210 C 
ENDBRANCH   7  15
ENDBRANCH   1   2
BRANCH   1  17
HETATM   17  C   UNK N   1      32.428  17.181   5.325  0.00  0.00     0.183 C 
BRANCH  17  18
HETATM   18  O   UNK N   1      33.588  16.762   5.922  0.00  0.00    -0.317 OA
BRANCH  18  19
HETATM   19  C   UNK N   1      34.146  17.152   7.101  0.00  0.00     0.296 C 
HETATM   20  O   UNK N   1      34.601  18.285   7.137  0.00  0.00    -0.259 OA
BRANCH  19  21
HETATM   21  C   UNK N   1      34.214  16.344   8.381  0.00  0.00     0.074 A 
HETATM   22  C   UNK N   1      33.677  15.042   8.307  0.00  0.00     0.047 A 
HETATM   23  C   UNK N   1      33.702  14.169   9.392  0.00  0.00     0.068 A 
HETATM   24 Cl   UNK N   1      33.026  12.558   9.216  0.00  0.00    -0.081 Cl
HETATM   25  C   UNK N   1      34.268  14.580  10.598  0.00  0.00     0.090 A 
HETATM   26  C   UNK N   1      34.813  15.858  10.704  0.00  0.00     0.075 A 
HETATM   27  C   UNK N   1      34.802  16.741   9.618  0.00  0.00     0.084 A 
BRANCH  25  28
HETATM   28  O   UNK N   1      34.304  13.751  11.654  0.00  0.00    -0.359 OA
HETATM   29  H   UNK N   1      33.547  13.641  12.196  0.00  0.00     0.217 HD
ENDBRANCH  25  28
BRANCH  27  30
HETATM   30  O   UNK N   1      35.385  17.932   9.788  0.00  0.00    -0.360 OA
HETATM   31  H   UNK N   1      35.291  18.389  10.601  0.00  0.00     0.217 HD
ENDBRANCH  27  30
ENDBRANCH  19  21
ENDBRANCH  18  19
ENDBRANCH  17  18
ENDBRANCH   1  17
TORSDOF 11
ENDMDL
MODEL 3
REMARK VINA RESULT:      -6.6      7.556     10.961
REMARK  11 active torsions:
REMARK  status: ('A' for Active; 'I' for Inactive)
REMARK    1  A    between atoms: O_2  and  C_3 
REMARK    2  A    between atoms: C_4  and  O_5 
REMARK    3  A    between atoms: C_8  and  N_9 
REMARK    4  A    between atoms: C_10  and  O_11 
REMARK    5  A    between atoms: C_13  and  C_14 
REMARK    6  A    between atoms: C_14  and  C_15 
REMARK    7  A    between atoms: C_15  and  O_16 
REMARK    8  A    between atoms: O_16  and  C_17 
REMARK    9  A    between atoms: C_17  and  C_19 
REMARK   10  A    between atoms: C_23  and  O_24 
REMARK   11  A    between atoms: C_26  and  O_27 
ROOT
HETATM    1  C   UNK N   1      34.088  15.386  10.299  0.00  0.00     0.071 C 
ENDROOT
BRANCH   1   2
HETATM    2  C   UNK N   1      34.530  13.939  10.267  0.00  0.00     0.016 A 
HETATM    3  C   UNK N   1      34.988  13.262  11.447  0.00  0.00     0.110 A 
HETATM    4  C   UNK N   1      35.442  11.919  11.334  0.00  0.00     0.104 A 
HETATM    5  C   UNK N   1      35.407  11.281  10.100  0.00  0.00     0.071 A 
HETATM    6  C   UNK N   1      34.958  11.922   8.955  0.00  0.00     0.062 A 
HETATM    7  C   UNK N   1      34.527  13.269   9.021  0.00  0.00     0.103 A 
BRANCH   3   8
HETATM    8  O   UNK N   1      35.008  13.846  12.679  0.00  0.00    -0.352 OA
HETATM    9  C   UNK N   1      36.071  14.469  13.290  0.00  0.00     0.210 C 
ENDBRANCH   3   8
BRANCH   4  10
HETATM   10  O   UNK N   1      35.925  11.195  12.382  0.00  0.00    -0.353 OA
HETATM   11  C   UNK N   1      37.241  10.857  12.600  0.00  0.00     0.210 C 
ENDBRANCH   4  10
BRANCH   6  12
HETATM   12  N   UNK N   1      34.966  11.199   7.745  0.00  0.00    -0.397 N 
HETATM   13  H   UNK N   1      35.349  10.293   7.696  0.00  0.00     0.156 HD
HETATM   14  H   UNK N   1      34.581  11.606   6.935  0.00  0.00     0.156 HD
ENDBRANCH   6  12
BRANCH   7  15
HETATM   15  O   UNK N   1      34.109  13.962   7.921  0.00  0.00    -0.353 OA
HETATM   16  C   UNK N   1      32.860  13.917   7.348  0.00  0.00     0.210 C 
ENDBRANCH   7  15
ENDBRANCH   1   2
BRANCH   1  17
HETATM   17  C   UNK N   1      35.218  16.376  10.011  0.00  0.00     0.183 C 
BRANCH  17  18
HETATM   18  O   UNK N   1      34.717  17.603   9.660  0.00  0.00    -0.317 OA
BRANCH  18  19
HETATM   19  C   UNK N   1      34.443  18.106   8.424  0.00  0.00     0.296 C 
HETATM   20  O   UNK N   1      35.253  18.900   7.971  0.00  0.00    -0.259 OA
BRANCH  19  21
HETATM   21  C   UNK N   1      33.267  17.745   7.541  0.00  0.00     0.074 A 
HETATM   22  C   UNK N   1      33.564  17.577   6.173  0.00  0.00     0.047 A 
HETATM   23  C   UNK N   1      32.593  17.209   5.244  0.00  0.00     0.068 A 
HETATM   24 Cl   UNK N   1      33.047  17.005   3.560  0.00  0.00    -0.081 Cl
HETATM   25  C   UNK N   1      31.280  16.998   5.663  0.00  0.00     0.090 A 
HETATM   26  C   UNK N   1      30.953  17.149   7.008  0.00  0.00     0.075 A 
HETATM   27  C   UNK N   1      31.922  17.511   7.952  0.00  0.00     0.084 A 
BRANCH  25  28
HETATM   28  O   UNK N   1      30.331  16.639   4.783  0.00  0.00    -0.359 OA
HETATM   29  H   UNK N   1      30.283  15.756   4.471  0.00  0.00     0.217 HD
ENDBRANCH  25  28
BRANCH  27  30
HETATM   30  O   UNK N   1      31.536  17.592   9.230  0.00  0.00    -0.360 OA
HETATM   31  H   UNK N   1      31.402  18.429   9.628  0.00  0.00     0.217 HD
ENDBRANCH  27  30
ENDBRANCH  19  21
ENDBRANCH  18  19
ENDBRANCH  17  18
ENDBRANCH   1  17
TORSDOF 11
ENDMDL
MODEL 4
REMARK VINA RESULT:      -6.5      5.078      8.082
REMARK  11 active torsions:
REMARK  status: ('A' for Active; 'I' for Inactive)
REMARK    1  A    between atoms: O_2  and  C_3 
REMARK    2  A    between atoms: C_4  and  O_5 
REMARK    3  A    between atoms: C_8  and  N_9 
REMARK    4  A    between atoms: C_10  and  O_11 
REMARK    5  A    between atoms: C_13  and  C_14 
REMARK    6  A    between atoms: C_14  and  C_15 
REMARK    7  A    between atoms: C_15  and  O_16 
REMARK    8  A    between atoms: O_16  and  C_17 
REMARK    9  A    between atoms: C_17  and  C_19 
REMARK   10  A    between atoms: C_23  and  O_24 
REMARK   11  A    between atoms: C_26  and  O_27 
ROOT
HETATM    1  C   UNK N   1      22.006  17.201   5.244  0.00  0.00     0.071 C 
ENDROOT
BRANCH   1   2
HETATM    2  C   UNK N   1      22.506  18.373   4.429  0.00  0.00     0.016 A 
HETATM    3  C   UNK N   1      21.617  19.191   3.655  0.00  0.00     0.110 A 
HETATM    4  C   UNK N   1      22.163  20.243   2.867  0.00  0.00     0.104 A 
HETATM    5  C   UNK N   1      23.532  20.477   2.884  0.00  0.00     0.071 A 
HETATM    6  C   UNK N   1      24.401  19.699   3.635  0.00  0.00     0.062 A 
HETATM    7  C   UNK N   1      23.899  18.624   4.408  0.00  0.00     0.103 A 
BRANCH   3   8
HETATM    8  O   UNK N   1      20.266  19.011   3.638  0.00  0.00    -0.352 OA
HETATM    9  C   UNK N   1      19.551  18.133   2.858  0.00  0.00     0.210 C 
ENDBRANCH   3   8
BRANCH   4  10
HETATM   10  O   UNK N   1      21.414  21.059   2.074  0.00  0.00    -0.353 OA
HETATM   11  C   UNK N   1      20.944  20.761   0.816  0.00  0.00     0.210 C 
ENDBRANCH   4  10
BRANCH   6  12
HETATM   12  N   UNK N   1      25.776  20.004   3.585  0.00  0.00    -0.397 N 
HETATM   13  H   UNK N   1      26.271  20.258   4.397  0.00  0.00     0.156 HD
HETATM   14  H   UNK N   1      26.251  19.961   2.722  0.00  0.00     0.156 HD
ENDBRANCH   6  12
BRANCH   7  15
HETATM   15  O   UNK N   1      24.710  17.802   5.137  0.00  0.00    -0.353 OA
HETATM   16  C   UNK N   1      25.430  16.730   4.665  0.00  0.00     0.210 C 
ENDBRANCH   7  15
ENDBRANCH   1   2
BRANCH   1  17
HETATM   17  C   UNK N   1      21.127  17.611   6.427  0.00  0.00     0.183 C 
BRANCH  17  18
HETATM   18  O   UNK N   1      21.394  16.839   7.527  0.00  0.00    -0.317 OA
BRANCH  18  19
HETATM   19  C   UNK N   1      20.756  15.724   7.979  0.00  0.00     0.296 C 
HETATM   20  O   UNK N   1      19.548  15.681   7.800  0.00  0.00    -0.259 OA
BRANCH  19  21
HETATM   21  C   UNK N   1      21.396  14.517   8.633  0.00  0.00     0.074 A 
HETATM   22  C   UNK N   1      20.673  13.951   9.703  0.00  0.00     0.047 A 
HETATM   23  C   UNK N   1      21.117  12.816  10.379  0.00  0.00     0.068 A 
HETATM   24 Cl   UNK N   1      20.152  12.163  11.692  0.00  0.00    -0.081 Cl
HETATM   25  C   UNK N   1      22.313  12.210   9.998  0.00  0.00     0.090 A 
HETATM   26  C   UNK N   1      23.050  12.739   8.941  0.00  0.00     0.075 A 
HETATM   27  C   UNK N   1      22.609  13.874   8.250  0.00  0.00     0.084 A 
BRANCH  25  28
HETATM   28  O   UNK N   1      22.756  11.113  10.635  0.00  0.00    -0.359 OA
HETATM   29  H   UNK N   1      22.206  10.358  10.718  0.00  0.00     0.217 HD
ENDBRANCH  25  28
BRANCH  27  30
HETATM   30  O   UNK N   1      23.351  14.292   7.219  0.00  0.00    -0.360 OA
HETATM   31  H   UNK N   1      23.232  13.913   6.371  0.00  0.00     0.217 HD
ENDBRANCH  27  30
ENDBRANCH  19  21
ENDBRANCH  18  19
ENDBRANCH  17  18
ENDBRANCH   1  17
TORSDOF 11
ENDMDL
MODEL 5
REMARK VINA RESULT:      -6.5      7.460     10.823
REMARK  11 active torsions:
REMARK  status: ('A' for Active; 'I' for Inactive)
REMARK    1  A    between atoms: O_2  and  C_3 
REMARK    2  A    between atoms: C_4  and  O_5 
REMARK    3  A    between atoms: C_8  and  N_9 
REMARK    4  A    between atoms: C_10  and  O_11 
REMARK    5  A    between atoms: C_13  and  C_14 
REMARK    6  A    between atoms: C_14  and  C_15 
REMARK    7  A    between atoms: C_15  and  O_16 
REMARK    8  A    between atoms: O_16  and  C_17 
REMARK    9  A    between atoms: C_17  and  C_19 
REMARK   10  A    between atoms: C_23  and  O_24 
REMARK   11  A    between atoms: C_26  and  O_27 
ROOT
HETATM    1  C   UNK N   1      34.396  15.421  10.775  0.00  0.00     0.071 C 
ENDROOT
BRANCH   1   2
HETATM    2  C   UNK N   1      34.595  13.921  10.728  0.00  0.00     0.016 A 
HETATM    3  C   UNK N   1      34.388  13.168   9.525  0.00  0.00     0.110 A 
HETATM    4  C   UNK N   1      34.538  11.753   9.567  0.00  0.00     0.104 A 
HETATM    5  C   UNK N   1      34.908  11.134  10.754  0.00  0.00     0.071 A 
HETATM    6  C   UNK N   1      35.120  11.853  11.921  0.00  0.00     0.062 A 
HETATM    7  C   UNK N   1      34.950  13.258  11.927  0.00  0.00     0.103 A 
BRANCH   3   8
HETATM    8  O   UNK N   1      34.054  13.743   8.335  0.00  0.00    -0.352 OA
HETATM    9  C   UNK N   1      32.790  13.993   7.854  0.00  0.00     0.210 C 
ENDBRANCH   3   8
BRANCH   4  10
HETATM   10  O   UNK N   1      34.336  10.941   8.492  0.00  0.00    -0.353 OA
HETATM   11  C   UNK N   1      33.189  10.236   8.210  0.00  0.00     0.210 C 
ENDBRANCH   4  10
BRANCH   6  12
HETATM   12  N   UNK N   1      35.485  11.140  13.081  0.00  0.00    -0.397 N 
HETATM   13  H   UNK N   1      36.355  10.683  13.145  0.00  0.00     0.156 HD
HETATM   14  H   UNK N   1      34.859  11.098  13.841  0.00  0.00     0.156 HD
ENDBRANCH   6  12
BRANCH   7  15
HETATM   15  O   UNK N   1      35.109  14.013  13.054  0.00  0.00    -0.353 OA
HETATM   16  C   UNK N   1      36.298  14.448  13.591  0.00  0.00     0.210 C 
ENDBRANCH   7  15
ENDBRANCH   1   2
BRANCH   1  17
HETATM   17  C   UNK N   1      35.480  16.202  10.030  0.00  0.00     0.183 C 
BRANCH  17  18
HETATM   18  O   UNK N   1      35.111  17.512   9.862  0.00  0.00    -0.317 OA
BRANCH  18  19
HETATM   19  C   UNK N   1      34.619  18.138   8.758  0.00  0.00     0.296 C 
HETATM   20  O   UNK N   1      35.261  19.092   8.344  0.00  0.00    -0.259 OA
BRANCH  19  21
HETATM   21  C   UNK N   1      33.390  17.744   7.966  0.00  0.00     0.074 A 
HETATM   22  C   UNK N   1      32.187  17.684   8.700  0.00  0.00     0.047 A 
HETATM   23  C   UNK N   1      30.969  17.371   8.100  0.00  0.00     0.068 A 
HETATM   24 Cl   UNK N   1      29.513  17.332   9.081  0.00  0.00    -0.081 Cl
HETATM   25  C   UNK N   1      30.919  17.104   6.733  0.00  0.00     0.090 A 
HETATM   26  C   UNK N   1      32.088  17.160   5.977  0.00  0.00     0.075 A 
HETATM   27  C   UNK N   1      33.316  17.481   6.567  0.00  0.00     0.084 A 
BRANCH  25  28
HETATM   28  O   UNK N   1      29.754  16.803   6.137  0.00  0.00    -0.359 OA
HETATM   29  H   UNK N   1      29.624  15.960   5.748  0.00  0.00     0.217 HD
ENDBRANCH  25  28
BRANCH  27  30
HETATM   30  O   UNK N   1      34.382  17.558   5.763  0.00  0.00    -0.360 OA
HETATM   31  H   UNK N   1      34.947  16.817   5.660  0.00  0.00     0.217 HD
ENDBRANCH  27  30
ENDBRANCH  19  21
ENDBRANCH  18  19
ENDBRANCH  17  18
ENDBRANCH   1  17
TORSDOF 11
ENDMDL
MODEL 6
REMARK VINA RESULT:      -6.4      5.790      9.016
REMARK  11 active torsions:
REMARK  status: ('A' for Active; 'I' for Inactive)
REMARK    1  A    between atoms: O_2  and  C_3 
REMARK    2  A    between atoms: C_4  and  O_5 
REMARK    3  A    between atoms: C_8  and  N_9 
REMARK    4  A    between atoms: C_10  and  O_11 
REMARK    5  A    between atoms: C_13  and  C_14 
REMARK    6  A    between atoms: C_14  and  C_15 
REMARK    7  A    between atoms: C_15  and  O_16 
REMARK    8  A    between atoms: O_16  and  C_17 
REMARK    9  A    between atoms: C_17  and  C_19 
REMARK   10  A    between atoms: C_23  and  O_24 
REMARK   11  A    between atoms: C_26  and  O_27 
ROOT
HETATM    1  C   UNK N   1      22.180  15.186   4.009  0.00  0.00     0.071 C 
ENDROOT
BRANCH   1   2
HETATM    2  C   UNK N   1      21.490  16.318   3.280  0.00  0.00     0.016 A 
HETATM    3  C   UNK N   1      21.658  17.687   3.676  0.00  0.00     0.110 A 
HETATM    4  C   UNK N   1      20.935  18.696   2.981  0.00  0.00     0.104 A 
HETATM    5  C   UNK N   1      20.109  18.345   1.921  0.00  0.00     0.071 A 
HETATM    6  C   UNK N   1      19.945  17.027   1.523  0.00  0.00     0.062 A 
HETATM    7  C   UNK N   1      20.624  15.991   2.209  0.00  0.00     0.103 A 
BRANCH   3   8
HETATM    8  O   UNK N   1      22.483  18.071   4.691  0.00  0.00    -0.352 OA
HETATM    9  C   UNK N   1      23.809  18.424   4.601  0.00  0.00     0.210 C 
ENDBRANCH   3   8
BRANCH   4  10
HETATM   10  O   UNK N   1      20.997  20.020   3.294  0.00  0.00    -0.353 OA
HETATM   11  C   UNK N   1      21.743  20.975   2.643  0.00  0.00     0.210 C 
ENDBRANCH   4  10
BRANCH   6  12
HETATM   12  N   UNK N   1      19.080  16.763   0.442  0.00  0.00    -0.397 N 
HETATM   13  H   UNK N   1      18.886  15.840   0.158  0.00  0.00     0.156 HD
HETATM   14  H   UNK N   1      18.661  17.515  -0.038  0.00  0.00     0.156 HD
ENDBRANCH   6  12
BRANCH   7  15
HETATM   15  O   UNK N   1      20.473  14.673   1.886  0.00  0.00    -0.353 OA
HETATM   16  C   UNK N   1      19.393  13.874   2.180  0.00  0.00     0.210 C 
ENDBRANCH   7  15
ENDBRANCH   1   2
BRANCH   1  17
HETATM   17  C   UNK N   1      21.458  14.752   5.285  0.00  0.00     0.183 C 
BRANCH  17  18
HETATM   18  O   UNK N   1      22.077  15.261   6.397  0.00  0.00    -0.317 OA
BRANCH  18  19
HETATM   19  C   UNK N   1      21.604  15.398   7.667  0.00  0.00     0.296 C 
HETATM   20  O   UNK N   1      21.077  16.467   7.936  0.00  0.00    -0.259 OA
BRANCH  19  21
HETATM   21  C   UNK N   1      21.622  14.348   8.757  0.00  0.00     0.074 A 
HETATM   22  C   UNK N   1      22.871  13.736   8.991  0.00  0.00     0.047 A 
HETATM   23  C   UNK N   1      23.051  12.778   9.987  0.00  0.00     0.068 A 
HETATM   24 Cl   UNK N   1      24.642  12.075  10.227  0.00  0.00    -0.081 Cl
HETATM   25  C   UNK N   1      21.972  12.399  10.784  0.00  0.00     0.090 A 
HETATM   26  C   UNK N   1      20.726  12.987  10.584  0.00  0.00     0.075 A 
HETATM   27  C   UNK N   1      20.535  13.956   9.592  0.00  0.00     0.084 A 
BRANCH  25  28
HETATM   28  O   UNK N   1      22.127  11.479  11.751  0.00  0.00    -0.359 OA
HETATM   29  H   UNK N   1      21.617  10.692  11.743  0.00  0.00     0.217 HD
ENDBRANCH  25  28
BRANCH  27  30
HETATM   30  O   UNK N   1      19.319  14.504   9.494  0.00  0.00    -0.360 OA
HETATM   31  H   UNK N   1      18.907  14.587   8.656  0.00  0.00     0.217 HD
ENDBRANCH  27  30
ENDBRANCH  19  21
ENDBRANCH  18  19
ENDBRANCH  17  18
ENDBRANCH   1  17
TORSDOF 11
ENDMDL
MODEL 7
REMARK VINA RESULT:      -6.4      6.210     11.714
REMARK  11 active torsions:
REMARK  status: ('A' for Active; 'I' for Inactive)
REMARK    1  A    between atoms: O_2  and  C_3 
REMARK    2  A    between atoms: C_4  and  O_5 
REMARK    3  A    between atoms: C_8  and  N_9 
REMARK    4  A    between atoms: C_10  and  O_11 
REMARK    5  A    between atoms: C_13  and  C_14 
REMARK    6  A    between atoms: C_14  and  C_15 
REMARK    7  A    between atoms: C_15  and  O_16 
REMARK    8  A    between atoms: O_16  and  C_17 
REMARK    9  A    between atoms: C_17  and  C_19 
REMARK   10  A    between atoms: C_23  and  O_24 
REMARK   11  A    between atoms: C_26  and  O_27 
ROOT
HETATM    1  C   UNK N   1      32.242  16.147   7.429  0.00  0.00     0.071 C 
ENDROOT
BRANCH   1   2
HETATM    2  C   UNK N   1      31.115  16.723   6.599  0.00  0.00     0.016 A 
HETATM    3  C   UNK N   1      30.006  17.406   7.201  0.00  0.00     0.110 A 
HETATM    4  C   UNK N   1      28.953  17.873   6.365  0.00  0.00     0.104 A 
HETATM    5  C   UNK N   1      29.032  17.690   4.990  0.00  0.00     0.071 A 
HETATM    6  C   UNK N   1      30.104  17.040   4.396  0.00  0.00     0.062 A 
HETATM    7  C   UNK N   1      31.156  16.533   5.197  0.00  0.00     0.103 A 
BRANCH   3   8
HETATM    8  O   UNK N   1      29.910  17.631   8.542  0.00  0.00    -0.352 OA
HETATM    9  C   UNK N   1      30.254  18.775   9.223  0.00  0.00     0.210 C 
ENDBRANCH   3   8
BRANCH   4  10
HETATM   10  O   UNK N   1      27.842  18.506   6.834  0.00  0.00    -0.353 OA
HETATM   11  C   UNK N   1      27.608  19.861   6.814  0.00  0.00     0.210 C 
ENDBRANCH   4  10
BRANCH   6  12
HETATM   12  N   UNK N   1      30.095  16.892   2.995  0.00  0.00    -0.397 N 
HETATM   13  H   UNK N   1      30.337  17.640   2.402  0.00  0.00     0.156 HD
HETATM   14  H   UNK N   1      29.842  16.025   2.601  0.00  0.00     0.156 HD
ENDBRANCH   6  12
BRANCH   7  15
HETATM   15  O   UNK N   1      32.217  15.853   4.673  0.00  0.00    -0.353 OA
HETATM   16  C   UNK N   1      33.267  16.390   3.966  0.00  0.00     0.210 C 
ENDBRANCH   7  15
ENDBRANCH   1   2
BRANCH   1  17
HETATM   17  C   UNK N   1      33.392  17.129   7.662  0.00  0.00     0.183 C 
BRANCH  17  18
HETATM   18  O   UNK N   1      33.672  17.247   8.998  0.00  0.00    -0.317 OA
BRANCH  18  19
HETATM   19  C   UNK N   1      34.800  16.906   9.681  0.00  0.00     0.296 C 
HETATM   20  O   UNK N   1      35.581  17.814   9.925  0.00  0.00    -0.259 OA
BRANCH  19  21
HETATM   21  C   UNK N   1      35.159  15.533  10.209  0.00  0.00     0.074 A 
HETATM   22  C   UNK N   1      36.504  15.147  10.032  0.00  0.00     0.047 A 
HETATM   23  C   UNK N   1      36.991  13.927  10.498  0.00  0.00     0.068 A 
HETATM   24 Cl   UNK N   1      38.682  13.526  10.253  0.00  0.00    -0.081 Cl
HETATM   25  C   UNK N   1      36.134  13.048  11.160  0.00  0.00     0.090 A 
HETATM   26  C   UNK N   1      34.801  13.400  11.356  0.00  0.00     0.075 A 
HETATM   27  C   UNK N   1      34.303  14.626  10.899  0.00  0.00     0.084 A 
BRANCH  25  28
HETATM   28  O   UNK N   1      36.586  11.869  11.619  0.00  0.00    -0.359 OA
HETATM   29  H   UNK N   1      37.362  11.486  11.258  0.00  0.00     0.217 HD
ENDBRANCH  25  28
BRANCH  27  30
HETATM   30  O   UNK N   1      33.023  14.908  11.167  0.00  0.00    -0.360 OA
HETATM   31  H   UNK N   1      32.652  14.666  11.993  0.00  0.00     0.217 HD
ENDBRANCH  27  30
ENDBRANCH  19  21
ENDBRANCH  18  19
ENDBRANCH  17  18
ENDBRANCH   1  17
TORSDOF 11
ENDMDL
MODEL 8
REMARK VINA RESULT:      -6.4      7.379     11.327
REMARK  11 active torsions:
REMARK  status: ('A' for Active; 'I' for Inactive)
REMARK    1  A    between atoms: O_2  and  C_3 
REMARK    2  A    between atoms: C_4  and  O_5 
REMARK    3  A    between atoms: C_8  and  N_9 
REMARK    4  A    between atoms: C_10  and  O_11 
REMARK    5  A    between atoms: C_13  and  C_14 
REMARK    6  A    between atoms: C_14  and  C_15 
REMARK    7  A    between atoms: C_15  and  O_16 
REMARK    8  A    between atoms: O_16  and  C_17 
REMARK    9  A    between atoms: C_17  and  C_19 
REMARK   10  A    between atoms: C_23  and  O_24 
REMARK   11  A    between atoms: C_26  and  O_27 
ROOT
HETATM    1  C   UNK N   1      36.118  15.608  10.626  0.00  0.00     0.071 C 
ENDROOT
BRANCH   1   2
HETATM    2  C   UNK N   1      35.969  14.102  10.614  0.00  0.00     0.016 A 
HETATM    3  C   UNK N   1      35.616  13.368  11.795  0.00  0.00     0.110 A 
HETATM    4  C   UNK N   1      35.548  11.948  11.725  0.00  0.00     0.104 A 
HETATM    5  C   UNK N   1      35.793  11.305  10.518  0.00  0.00     0.071 A 
HETATM    6  C   UNK N   1      36.126  12.005   9.368  0.00  0.00     0.062 A 
HETATM    7  C   UNK N   1      36.234  13.416   9.404  0.00  0.00     0.103 A 
BRANCH   3   8
HETATM    8  O   UNK N   1      35.340  13.966  12.988  0.00  0.00    -0.352 OA
HETATM    9  C   UNK N   1      36.211  14.203  14.025  0.00  0.00     0.210 C 
ENDBRANCH   3   8
BRANCH   4  10
HETATM   10  O   UNK N   1      35.253  11.153  12.791  0.00  0.00    -0.353 OA
HETATM   11  C   UNK N   1      34.002  10.707  13.151  0.00  0.00     0.210 C 
ENDBRANCH   4  10
BRANCH   6  12
HETATM   12  N   UNK N   1      36.365  11.268   8.190  0.00  0.00    -0.397 N 
HETATM   13  H   UNK N   1      36.135  10.312   8.132  0.00  0.00     0.156 HD
HETATM   14  H   UNK N   1      36.769  11.717   7.412  0.00  0.00     0.156 HD
ENDBRANCH   6  12
BRANCH   7  15
HETATM   15  O   UNK N   1      36.594  14.154   8.314  0.00  0.00    -0.353 OA
HETATM   16  C   UNK N   1      35.783  14.516   7.263  0.00  0.00     0.210 C 
ENDBRANCH   7  15
ENDBRANCH   1   2
BRANCH   1  17
HETATM   17  C   UNK N   1      34.829  16.352  10.274  0.00  0.00     0.183 C 
BRANCH  17  18
HETATM   18  O   UNK N   1      35.104  17.580   9.732  0.00  0.00    -0.317 OA
BRANCH  18  19
HETATM   19  C   UNK N   1      34.625  18.152   8.593  0.00  0.00     0.296 C 
HETATM   20  O   UNK N   1      35.307  19.040   8.104  0.00  0.00    -0.259 OA
BRANCH  19  21
HETATM   21  C   UNK N   1      33.364  17.766   7.848  0.00  0.00     0.074 A 
HETATM   22  C   UNK N   1      32.174  17.812   8.603  0.00  0.00     0.047 A 
HETATM   23  C   UNK N   1      30.931  17.520   8.045  0.00  0.00     0.068 A 
HETATM   24 Cl   UNK N   1      29.494  17.614   9.048  0.00  0.00    -0.081 Cl
HETATM   25  C   UNK N   1      30.844  17.167   6.699  0.00  0.00     0.090 A 
HETATM   26  C   UNK N   1      31.999  17.118   5.922  0.00  0.00     0.075 A 
HETATM   27  C   UNK N   1      33.252  17.417   6.470  0.00  0.00     0.084 A 
BRANCH  25  28
HETATM   28  O   UNK N   1      29.654  16.885   6.142  0.00  0.00    -0.359 OA
HETATM   29  H   UNK N   1      29.578  16.195   5.511  0.00  0.00     0.217 HD
ENDBRANCH  25  28
BRANCH  27  30
HETATM   30  O   UNK N   1      34.305  17.390   5.646  0.00  0.00    -0.360 OA
HETATM   31  H   UNK N   1      35.112  17.792   5.903  0.00  0.00     0.217 HD
ENDBRANCH  27  30
ENDBRANCH  19  21
ENDBRANCH  18  19
ENDBRANCH  17  18
ENDBRANCH   1  17
TORSDOF 11
ENDMDL
MODEL 9
REMARK VINA RESULT:      -6.2      3.278      7.930
REMARK  11 active torsions:
REMARK  status: ('A' for Active; 'I' for Inactive)
REMARK    1  A    between atoms: O_2  and  C_3 
REMARK    2  A    between atoms: C_4  and  O_5 
REMARK    3  A    between atoms: C_8  and  N_9 
REMARK    4  A    between atoms: C_10  and  O_11 
REMARK    5  A    between atoms: C_13  and  C_14 
REMARK    6  A    between atoms: C_14  and  C_15 
REMARK    7  A    between atoms: C_15  and  O_16 
REMARK    8  A    between atoms: O_16  and  C_17 
REMARK    9  A    between atoms: C_17  and  C_19 
REMARK   10  A    between atoms: C_23  and  O_24 
REMARK   11  A    between atoms: C_26  and  O_27 
ROOT
HETATM    1  C   UNK N   1      25.442  17.690   4.983  0.00  0.00     0.071 C 
ENDROOT
BRANCH   1   2
HETATM    2  C   UNK N   1      24.057  17.966   4.439  0.00  0.00     0.016 A 
HETATM    3  C   UNK N   1      23.705  19.237   3.874  0.00  0.00     0.110 A 
HETATM    4  C   UNK N   1      22.368  19.445   3.433  0.00  0.00     0.104 A 
HETATM    5  C   UNK N   1      21.442  18.414   3.529  0.00  0.00     0.071 A 
HETATM    6  C   UNK N   1      21.773  17.178   4.065  0.00  0.00     0.062 A 
HETATM    7  C   UNK N   1      23.085  16.942   4.543  0.00  0.00     0.103 A 
BRANCH   3   8
HETATM    8  O   UNK N   1      24.594  20.261   3.735  0.00  0.00    -0.352 OA
HETATM    9  C   UNK N   1      25.300  20.607   2.607  0.00  0.00     0.210 C 
ENDBRANCH   3   8
BRANCH   4  10
HETATM   10  O   UNK N   1      21.920  20.620   2.910  0.00  0.00    -0.353 OA
HETATM   11  C   UNK N   1      20.907  20.768   1.991  0.00  0.00     0.210 C 
ENDBRANCH   4  10
BRANCH   6  12
HETATM   12  N   UNK N   1      20.766  16.193   4.131  0.00  0.00    -0.397 N 
HETATM   13  H   UNK N   1      20.710  15.478   3.456  0.00  0.00     0.156 HD
HETATM   14  H   UNK N   1      20.109  16.220   4.864  0.00  0.00     0.156 HD
ENDBRANCH   6  12
BRANCH   7  15
HETATM   15  O   UNK N   1      23.458  15.759   5.114  0.00  0.00    -0.353 OA
HETATM   16  C   UNK N   1      23.799  14.601   4.455  0.00  0.00     0.210 C 
ENDBRANCH   7  15
ENDBRANCH   1   2
BRANCH   1  17
HETATM   17  C   UNK N   1      26.477  17.401   3.895  0.00  0.00     0.183 C 
BRANCH  17  18
HETATM   18  O   UNK N   1      27.587  18.190   4.052  0.00  0.00    -0.317 OA
BRANCH  18  19
HETATM   19  C   UNK N   1      27.964  18.954   5.114  0.00  0.00     0.296 C 
HETATM   20  O   UNK N   1      27.832  20.162   4.986  0.00  0.00    -0.259 OA
BRANCH  19  21
HETATM   21  C   UNK N   1      28.480  18.458   6.448  0.00  0.00     0.074 A 
HETATM   22  C   UNK N   1      29.524  17.512   6.382  0.00  0.00     0.047 A 
HETATM   23  C   UNK N   1      30.125  16.993   7.526  0.00  0.00     0.068 A 
HETATM   24 Cl   UNK N   1      31.431  15.830   7.360  0.00  0.00    -0.081 Cl
HETATM   25  C   UNK N   1      29.692  17.407   8.785  0.00  0.00     0.090 A 
HETATM   26  C   UNK N   1      28.666  18.344   8.886  0.00  0.00     0.075 A 
HETATM   27  C   UNK N   1      28.060  18.880   7.744  0.00  0.00     0.084 A 
BRANCH  25  28
HETATM   28  O   UNK N   1      30.262  16.920   9.899  0.00  0.00    -0.359 OA
HETATM   29  H   UNK N   1      30.673  16.077   9.892  0.00  0.00     0.217 HD
ENDBRANCH  25  28
BRANCH  27  30
HETATM   30  O   UNK N   1      27.114  19.807   7.927  0.00  0.00    -0.360 OA
HETATM   31  H   UNK N   1      27.312  20.593   8.397  0.00  0.00     0.217 HD
ENDBRANCH  27  30
ENDBRANCH  19  21
ENDBRANCH  18  19
ENDBRANCH  17  18
ENDBRANCH   1  17
TORSDOF 11
ENDMDL
