REMARK  6 active torsions:
REMARK  status: ('A' for Active; 'I' for Inactive)
REMARK    1  A    between atoms: O_10  and  C_1 
REMARK    2  A    between atoms: O_9  and  C_3 
REMARK    3  A    between atoms: C_4  and  C_11 
REMARK    4  A    between atoms: C_5  and  C_4 
REMARK    5  A    between atoms: C_7  and  C_5 
REMARK    6  A    between atoms: C_14  and  O_15 
ROOT
HETATM    1  C   UNK N   1      -3.369   2.597   0.000  0.00  0.00     0.068 A 
HETATM    2  C   UNK N   1      -4.322   1.573   0.000  0.00  0.00     0.073 A 
HETATM    3  C   UNK N   1      -3.911   0.237   0.000  0.00  0.00     0.068 A 
HETATM    4  C   UNK N   1      -2.552  -0.074  -0.000  0.00  0.00     0.043 A 
HETATM    5  C   UNK N   1      -1.591   0.951  -0.000  0.00  0.00    -0.053 A 
HETATM    6  C   UNK N   1      -2.007   2.285  -0.000  0.00  0.00     0.043 A 
ENDROOT
BRANCH   5   7
HETATM    7  C   UNK N   1      -0.125   0.657  -0.000  0.00  0.00     0.043 C 
BRANCH   7   8
HETATM    8  C   UNK N   1       0.190  -0.836  -0.000  0.00  0.00     0.043 C 
BRANCH   8   9
HETATM    9  C   UNK N   1       1.655  -1.134  -0.000  0.00  0.00    -0.058 A 
HETATM   10  C   UNK N   1       2.620  -0.113  -0.000  0.00  0.00     0.010 A 
HETATM   11  C   UNK N   1       3.979  -0.431   0.000  0.00  0.00     0.037 A 
HETATM   12  C   UNK N   1       4.381  -1.768   0.000  0.00  0.00     0.065 A 
HETATM   13  C   UNK N   1       3.425  -2.788   0.000  0.00  0.00     0.037 A 
HETATM   14  C   UNK N   1       2.065  -2.470  -0.000  0.00  0.00     0.010 A 
BRANCH  12  15
HETATM   15  O   UNK N   1       5.688  -2.074   0.000  0.00  0.00    -0.361 OA
HETATM   16  H   UNK N   1       5.959  -2.971   0.000  0.00  0.00     0.217 HD
ENDBRANCH  12  15
ENDBRANCH   8   9
ENDBRANCH   7   8
ENDBRANCH   5   7
BRANCH   3  17
HETATM   17  O   UNK N   1      -4.823  -0.748   0.000  0.00  0.00    -0.361 OA
HETATM   18  H   UNK N   1      -5.737  -0.541   0.000  0.00  0.00     0.217 HD
ENDBRANCH   3  17
BRANCH   1  19
HETATM   19  O   UNK N   1      -3.761   3.880   0.000  0.00  0.00    -0.361 OA
HETATM   20  H   UNK N   1      -3.122   4.565   0.000  0.00  0.00     0.217 HD
ENDBRANCH   1  19
TORSDOF 6
