MODEL 1
REMARK VINA RESULT:      -6.2      0.000      0.000
REMARK  6 active torsions:
REMARK  status: ('A' for Active; 'I' for Inactive)
REMARK    1  A    between atoms: O_10  and  C_1 
REMARK    2  A    between atoms: O_9  and  C_3 
REMARK    3  A    between atoms: C_4  and  C_11 
REMARK    4  A    between atoms: C_5  and  C_4 
REMARK    5  A    between atoms: C_7  and  C_5 
REMARK    6  A    between atoms: C_14  and  O_15 
ROOT
HETATM    1  C   UNK N   1      23.987  12.273  11.065  0.00  0.00     0.068 A 
HETATM    2  C   UNK N   1      22.855  12.034  11.851  0.00  0.00     0.073 A 
HETATM    3  C   UNK N   1      21.584  12.052  11.268  0.00  0.00     0.068 A 
HETATM    4  C   UNK N   1      21.446  12.308   9.905  0.00  0.00     0.043 A 
HETATM    5  C   UNK N   1      22.580  12.549   9.111  0.00  0.00    -0.053 A 
HETATM    6  C   UNK N   1      23.848  12.530   9.698  0.00  0.00     0.043 A 
ENDROOT
BRANCH   5   7
HETATM    7  C   UNK N   1      22.473  12.828   7.646  0.00  0.00     0.043 C 
BRANCH   7   8
HETATM    8  C   UNK N   1      21.098  13.343   7.231  0.00  0.00     0.043 C 
BRANCH   8   9
HETATM    9  C   UNK N   1      20.964  14.829   7.333  0.00  0.00    -0.058 A 
HETATM   10  C   UNK N   1      20.244  15.439   8.373  0.00  0.00     0.010 A 
HETATM   11  C   UNK N   1      20.141  16.830   8.434  0.00  0.00     0.037 A 
HETATM   12  C   UNK N   1      20.757  17.617   7.459  0.00  0.00     0.065 A 
HETATM   13  C   UNK N   1      21.476  17.015   6.422  0.00  0.00     0.037 A 
HETATM   14  C   UNK N   1      21.578  15.623   6.361  0.00  0.00     0.010 A 
BRANCH  12  15
HETATM   15  O   UNK N   1      20.659  18.954   7.519  0.00  0.00    -0.361 OA
HETATM   16  H   UNK N   1      21.375  19.489   7.238  0.00  0.00     0.217 HD
ENDBRANCH  12  15
ENDBRANCH   8   9
ENDBRANCH   7   8
ENDBRANCH   5   7
BRANCH   3  17
HETATM   17  O   UNK N   1      20.496  11.822  12.020  0.00  0.00    -0.361 OA
HETATM   18  H   UNK N   1      20.448  11.054  12.554  0.00  0.00     0.217 HD
ENDBRANCH   3  17
BRANCH   1  19
HETATM   19  O   UNK N   1      25.207  12.257  11.622  0.00  0.00    -0.361 OA
HETATM   20  H   UNK N   1      25.668  11.447  11.716  0.00  0.00     0.217 HD
ENDBRANCH   1  19
TORSDOF 6
ENDMDL
MODEL 2
REMARK VINA RESULT:      -6.2      0.058      2.008
REMARK  6 active torsions:
REMARK  status: ('A' for Active; 'I' for Inactive)
REMARK    1  A    between atoms: O_10  and  C_1 
REMARK    2  A    between atoms: O_9  and  C_3 
REMARK    3  A    between atoms: C_4  and  C_11 
REMARK    4  A    between atoms: C_5  and  C_4 
REMARK    5  A    between atoms: C_7  and  C_5 
REMARK    6  A    between atoms: C_14  and  O_15 
ROOT
HETATM    1  C   UNK N   1      21.583  12.101  11.229  0.00  0.00     0.068 A 
HETATM    2  C   UNK N   1      22.844  12.050  11.831  0.00  0.00     0.073 A 
HETATM    3  C   UNK N   1      23.994  12.244  11.059  0.00  0.00     0.068 A 
HETATM    4  C   UNK N   1      23.882  12.487   9.691  0.00  0.00     0.043 A 
HETATM    5  C   UNK N   1      22.617  12.539   9.082  0.00  0.00    -0.053 A 
HETATM    6  C   UNK N   1      21.471  12.345   9.858  0.00  0.00     0.043 A 
ENDROOT
BRANCH   5   7
HETATM    7  C   UNK N   1      22.457  12.797   7.618  0.00  0.00     0.043 C 
BRANCH   7   8
HETATM    8  C   UNK N   1      21.070  13.313   7.245  0.00  0.00     0.043 C 
BRANCH   8   9
HETATM    9  C   UNK N   1      20.939  14.798   7.358  0.00  0.00    -0.058 A 
HETATM   10  C   UNK N   1      20.210  15.402   8.395  0.00  0.00     0.010 A 
HETATM   11  C   UNK N   1      20.109  16.792   8.467  0.00  0.00     0.037 A 
HETATM   12  C   UNK N   1      20.736  17.585   7.503  0.00  0.00     0.065 A 
HETATM   13  C   UNK N   1      21.462  16.989   6.468  0.00  0.00     0.037 A 
HETATM   14  C   UNK N   1      21.563  15.598   6.397  0.00  0.00     0.010 A 
BRANCH  12  15
HETATM   15  O   UNK N   1      20.639  18.922   7.572  0.00  0.00    -0.361 OA
HETATM   16  H   UNK N   1      20.202  19.396   6.891  0.00  0.00     0.217 HD
ENDBRANCH  12  15
ENDBRANCH   8   9
ENDBRANCH   7   8
ENDBRANCH   5   7
BRANCH   3  17
HETATM   17  O   UNK N   1      25.206  12.196  11.634  0.00  0.00    -0.361 OA
HETATM   18  H   UNK N   1      25.347  11.656  12.387  0.00  0.00     0.217 HD
ENDBRANCH   3  17
BRANCH   1  19
HETATM   19  O   UNK N   1      20.478  11.915  11.967  0.00  0.00    -0.361 OA
HETATM   20  H   UNK N   1      19.948  11.155  11.834  0.00  0.00     0.217 HD
ENDBRANCH   1  19
TORSDOF 6
ENDMDL
MODEL 3
REMARK VINA RESULT:      -6.1      3.410      7.889
REMARK  6 active torsions:
REMARK  status: ('A' for Active; 'I' for Inactive)
REMARK    1  A    between atoms: O_10  and  C_1 
REMARK    2  A    between atoms: O_9  and  C_3 
REMARK    3  A    between atoms: C_4  and  C_11 
REMARK    4  A    between atoms: C_5  and  C_4 
REMARK    5  A    between atoms: C_7  and  C_5 
REMARK    6  A    between atoms: C_14  and  O_15 
ROOT
HETATM    1  C   UNK N   1      21.420  20.294   2.938  0.00  0.00     0.068 A 
HETATM    2  C   UNK N   1      20.089  20.099   2.553  0.00  0.00     0.073 A 
HETATM    3  C   UNK N   1      19.500  18.839   2.694  0.00  0.00     0.068 A 
HETATM    4  C   UNK N   1      20.238  17.779   3.218  0.00  0.00     0.043 A 
HETATM    5  C   UNK N   1      21.575  17.970   3.606  0.00  0.00    -0.053 A 
HETATM    6  C   UNK N   1      22.159  19.232   3.463  0.00  0.00     0.043 A 
ENDROOT
BRANCH   5   7
HETATM    7  C   UNK N   1      22.399  16.858   4.171  0.00  0.00     0.043 C 
BRANCH   7   8
HETATM    8  C   UNK N   1      22.838  17.106   5.612  0.00  0.00     0.043 C 
BRANCH   8   9
HETATM    9  C   UNK N   1      21.894  16.543   6.625  0.00  0.00    -0.058 A 
HETATM   10  C   UNK N   1      20.802  17.281   7.112  0.00  0.00     0.010 A 
HETATM   11  C   UNK N   1      19.942  16.721   8.059  0.00  0.00     0.037 A 
HETATM   12  C   UNK N   1      20.168  15.424   8.523  0.00  0.00     0.065 A 
HETATM   13  C   UNK N   1      21.253  14.685   8.042  0.00  0.00     0.037 A 
HETATM   14  C   UNK N   1      22.113  15.245   7.095  0.00  0.00     0.010 A 
BRANCH  12  15
HETATM   15  O   UNK N   1      19.341  14.885   9.433  0.00  0.00    -0.361 OA
HETATM   16  H   UNK N   1      18.665  15.407   9.819  0.00  0.00     0.217 HD
ENDBRANCH  12  15
ENDBRANCH   8   9
ENDBRANCH   7   8
ENDBRANCH   5   7
BRANCH   3  17
HETATM   17  O   UNK N   1      18.223  18.648   2.326  0.00  0.00    -0.361 OA
HETATM   18  H   UNK N   1      17.916  18.985   1.507  0.00  0.00     0.217 HD
ENDBRANCH   3  17
BRANCH   1  19
HETATM   19  O   UNK N   1      21.987  21.503   2.804  0.00  0.00    -0.361 OA
HETATM   20  H   UNK N   1      21.489  22.219   2.464  0.00  0.00     0.217 HD
ENDBRANCH   1  19
TORSDOF 6
ENDMDL
MODEL 4
REMARK VINA RESULT:      -6.1      9.804     11.049
REMARK  6 active torsions:
REMARK  status: ('A' for Active; 'I' for Inactive)
REMARK    1  A    between atoms: O_10  and  C_1 
REMARK    2  A    between atoms: O_9  and  C_3 
REMARK    3  A    between atoms: C_4  and  C_11 
REMARK    4  A    between atoms: C_5  and  C_4 
REMARK    5  A    between atoms: C_7  and  C_5 
REMARK    6  A    between atoms: C_14  and  O_15 
ROOT
HETATM    1  C   UNK N   1      35.698  15.840  10.300  0.00  0.00     0.068 A 
HETATM    2  C   UNK N   1      35.124  14.566  10.329  0.00  0.00     0.073 A 
HETATM    3  C   UNK N   1      33.972  14.302   9.581  0.00  0.00     0.068 A 
HETATM    4  C   UNK N   1      33.398  15.310   8.808  0.00  0.00     0.043 A 
HETATM    5  C   UNK N   1      33.972  16.592   8.776  0.00  0.00    -0.053 A 
HETATM    6  C   UNK N   1      35.123  16.850   9.525  0.00  0.00     0.043 A 
ENDROOT
BRANCH   5   7
HETATM    7  C   UNK N   1      33.385  17.698   7.958  0.00  0.00     0.043 C 
BRANCH   7   8
HETATM    8  C   UNK N   1      32.224  17.245   7.078  0.00  0.00     0.043 C 
BRANCH   8   9
HETATM    9  C   UNK N   1      30.882  17.539   7.667  0.00  0.00    -0.058 A 
HETATM   10  C   UNK N   1      29.691  17.140   7.037  0.00  0.00     0.010 A 
HETATM   11  C   UNK N   1      28.456  17.433   7.618  0.00  0.00     0.037 A 
HETATM   12  C   UNK N   1      28.404  18.125   8.829  0.00  0.00     0.065 A 
HETATM   13  C   UNK N   1      29.586  18.525   9.460  0.00  0.00     0.037 A 
HETATM   14  C   UNK N   1      30.821  18.232   8.879  0.00  0.00     0.010 A 
BRANCH  12  15
HETATM   15  O   UNK N   1      27.217  18.407   9.388  0.00  0.00    -0.361 OA
HETATM   16  H   UNK N   1      26.907  19.291   9.408  0.00  0.00     0.217 HD
ENDBRANCH  12  15
ENDBRANCH   8   9
ENDBRANCH   7   8
ENDBRANCH   5   7
BRANCH   3  17
HETATM   17  O   UNK N   1      33.418  13.080   9.607  0.00  0.00    -0.361 OA
HETATM   18  H   UNK N   1      32.767  12.873  10.249  0.00  0.00     0.217 HD
ENDBRANCH   3  17
BRANCH   1  19
HETATM   19  O   UNK N   1      36.803  16.096  11.017  0.00  0.00    -0.361 OA
HETATM   20  H   UNK N   1      37.498  15.468  11.047  0.00  0.00     0.217 HD
ENDBRANCH   1  19
TORSDOF 6
ENDMDL
MODEL 5
REMARK VINA RESULT:      -6.1     16.957     18.037
REMARK  6 active torsions:
REMARK  status: ('A' for Active; 'I' for Inactive)
REMARK    1  A    between atoms: O_10  and  C_1 
REMARK    2  A    between atoms: O_9  and  C_3 
REMARK    3  A    between atoms: C_4  and  C_11 
REMARK    4  A    between atoms: C_5  and  C_4 
REMARK    5  A    between atoms: C_7  and  C_5 
REMARK    6  A    between atoms: C_14  and  O_15 
ROOT
HETATM    1  C   UNK N   1      30.659  21.173  -4.622  0.00  0.00     0.068 A 
HETATM    2  C   UNK N   1      30.887  21.549  -3.294  0.00  0.00     0.073 A 
HETATM    3  C   UNK N   1      30.205  22.641  -2.751  0.00  0.00     0.068 A 
HETATM    4  C   UNK N   1      29.298  23.355  -3.533  0.00  0.00     0.043 A 
HETATM    5  C   UNK N   1      29.066  22.982  -4.867  0.00  0.00    -0.053 A 
HETATM    6  C   UNK N   1      29.751  21.889  -5.406  0.00  0.00     0.043 A 
ENDROOT
BRANCH   5   7
HETATM    7  C   UNK N   1      28.102  23.723  -5.737  0.00  0.00     0.043 C 
BRANCH   7   8
HETATM    8  C   UNK N   1      26.728  23.901  -5.098  0.00  0.00     0.043 C 
BRANCH   8   9
HETATM    9  C   UNK N   1      26.420  25.318  -4.736  0.00  0.00    -0.058 A 
HETATM   10  C   UNK N   1      26.611  25.810  -3.433  0.00  0.00     0.010 A 
HETATM   11  C   UNK N   1      26.312  27.140  -3.134  0.00  0.00     0.037 A 
HETATM   12  C   UNK N   1      25.821  27.985  -4.131  0.00  0.00     0.065 A 
HETATM   13  C   UNK N   1      25.629  27.501  -5.429  0.00  0.00     0.037 A 
HETATM   14  C   UNK N   1      25.928  26.170  -5.729  0.00  0.00     0.010 A 
BRANCH  12  15
HETATM   15  O   UNK N   1      25.534  29.264  -3.843  0.00  0.00    -0.361 OA
HETATM   16  H   UNK N   1      25.951  29.686  -3.118  0.00  0.00     0.217 HD
ENDBRANCH  12  15
ENDBRANCH   8   9
ENDBRANCH   7   8
ENDBRANCH   5   7
BRANCH   3  17
HETATM   17  O   UNK N   1      30.421  23.004  -1.477  0.00  0.00    -0.361 OA
HETATM   18  H   UNK N   1      30.103  22.469  -0.776  0.00  0.00     0.217 HD
ENDBRANCH   3  17
BRANCH   1  19
HETATM   19  O   UNK N   1      31.313  20.125  -5.146  0.00  0.00    -0.361 OA
HETATM   20  H   UNK N   1      30.954  19.263  -5.069  0.00  0.00     0.217 HD
ENDBRANCH   1  19
TORSDOF 6
ENDMDL
MODEL 6
REMARK VINA RESULT:      -6.0     16.909     18.038
REMARK  6 active torsions:
REMARK  status: ('A' for Active; 'I' for Inactive)
REMARK    1  A    between atoms: O_10  and  C_1 
REMARK    2  A    between atoms: O_9  and  C_3 
REMARK    3  A    between atoms: C_4  and  C_11 
REMARK    4  A    between atoms: C_5  and  C_4 
REMARK    5  A    between atoms: C_7  and  C_5 
REMARK    6  A    between atoms: C_14  and  O_15 
ROOT
HETATM    1  C   UNK N   1      30.186  22.605  -2.725  0.00  0.00     0.068 A 
HETATM    2  C   UNK N   1      30.888  21.504  -3.229  0.00  0.00     0.073 A 
HETATM    3  C   UNK N   1      30.705  21.109  -4.557  0.00  0.00     0.068 A 
HETATM    4  C   UNK N   1      29.825  21.811  -5.379  0.00  0.00     0.043 A 
HETATM    5  C   UNK N   1      29.118  22.917  -4.877  0.00  0.00    -0.053 A 
HETATM    6  C   UNK N   1      29.304  23.308  -3.549  0.00  0.00     0.043 A 
ENDROOT
BRANCH   5   7
HETATM    7  C   UNK N   1      28.166  23.695  -5.728  0.00  0.00     0.043 C 
BRANCH   7   8
HETATM    8  C   UNK N   1      26.776  23.825  -5.111  0.00  0.00     0.043 C 
BRANCH   8   9
HETATM    9  C   UNK N   1      26.389  25.237  -4.810  0.00  0.00    -0.058 A 
HETATM   10  C   UNK N   1      25.641  26.011  -5.713  0.00  0.00     0.010 A 
HETATM   11  C   UNK N   1      25.299  27.326  -5.396  0.00  0.00     0.037 A 
HETATM   12  C   UNK N   1      25.702  27.875  -4.177  0.00  0.00     0.065 A 
HETATM   13  C   UNK N   1      26.446  27.110  -3.275  0.00  0.00     0.037 A 
HETATM   14  C   UNK N   1      26.788  25.793  -3.592  0.00  0.00     0.010 A 
BRANCH  12  15
HETATM   15  O   UNK N   1      25.373  29.140  -3.872  0.00  0.00    -0.361 OA
HETATM   16  H   UNK N   1      25.334  29.790  -4.546  0.00  0.00     0.217 HD
ENDBRANCH  12  15
ENDBRANCH   8   9
ENDBRANCH   7   8
ENDBRANCH   5   7
BRANCH   3  17
HETATM   17  O   UNK N   1      31.377  20.053  -5.043  0.00  0.00    -0.361 OA
HETATM   18  H   UNK N   1      32.297  20.118  -5.208  0.00  0.00     0.217 HD
ENDBRANCH   3  17
BRANCH   1  19
HETATM   19  O   UNK N   1      30.359  22.986  -1.451  0.00  0.00    -0.361 OA
HETATM   20  H   UNK N   1      31.224  23.117  -1.114  0.00  0.00     0.217 HD
ENDBRANCH   1  19
TORSDOF 6
ENDMDL
MODEL 7
REMARK VINA RESULT:      -6.0      9.359     11.550
REMARK  6 active torsions:
REMARK  status: ('A' for Active; 'I' for Inactive)
REMARK    1  A    between atoms: O_10  and  C_1 
REMARK    2  A    between atoms: O_9  and  C_3 
REMARK    3  A    between atoms: C_4  and  C_11 
REMARK    4  A    between atoms: C_5  and  C_4 
REMARK    5  A    between atoms: C_7  and  C_5 
REMARK    6  A    between atoms: C_14  and  O_15 
ROOT
HETATM    1  C   UNK N   1      28.403  18.927   5.049  0.00  0.00     0.068 A 
HETATM    2  C   UNK N   1      27.788  19.369   6.225  0.00  0.00     0.073 A 
HETATM    3  C   UNK N   1      28.080  18.747   7.442  0.00  0.00     0.068 A 
HETATM    4  C   UNK N   1      28.984  17.687   7.484  0.00  0.00     0.043 A 
HETATM    5  C   UNK N   1      29.605  17.239   6.305  0.00  0.00    -0.053 A 
HETATM    6  C   UNK N   1      29.309  17.864   5.091  0.00  0.00     0.043 A 
ENDROOT
BRANCH   5   7
HETATM    7  C   UNK N   1      30.579  16.105   6.310  0.00  0.00     0.043 C 
BRANCH   7   8
HETATM    8  C   UNK N   1      31.982  16.515   5.870  0.00  0.00     0.043 C 
BRANCH   8   9
HETATM    9  C   UNK N   1      32.906  16.790   7.013  0.00  0.00    -0.058 A 
HETATM   10  C   UNK N   1      33.650  17.978   7.096  0.00  0.00     0.010 A 
HETATM   11  C   UNK N   1      34.503  18.199   8.178  0.00  0.00     0.037 A 
HETATM   12  C   UNK N   1      34.617  17.236   9.183  0.00  0.00     0.065 A 
HETATM   13  C   UNK N   1      33.878  16.051   9.105  0.00  0.00     0.037 A 
HETATM   14  C   UNK N   1      33.025  15.830   8.022  0.00  0.00     0.010 A 
BRANCH  12  15
HETATM   15  O   UNK N   1      35.437  17.448  10.224  0.00  0.00    -0.361 OA
HETATM   16  H   UNK N   1      35.080  17.602  11.077  0.00  0.00     0.217 HD
ENDBRANCH  12  15
ENDBRANCH   8   9
ENDBRANCH   7   8
ENDBRANCH   5   7
BRANCH   3  17
HETATM   17  O   UNK N   1      27.491  19.170   8.572  0.00  0.00    -0.361 OA
HETATM   18  H   UNK N   1      27.854  18.940   9.405  0.00  0.00     0.217 HD
ENDBRANCH   3  17
BRANCH   1  19
HETATM   19  O   UNK N   1      28.124  19.522   3.879  0.00  0.00    -0.361 OA
HETATM   20  H   UNK N   1      28.794  19.988   3.420  0.00  0.00     0.217 HD
ENDBRANCH   1  19
TORSDOF 6
ENDMDL
MODEL 8
REMARK VINA RESULT:      -6.0      1.293      6.131
REMARK  6 active torsions:
REMARK  status: ('A' for Active; 'I' for Inactive)
REMARK    1  A    between atoms: O_10  and  C_1 
REMARK    2  A    between atoms: O_9  and  C_3 
REMARK    3  A    between atoms: C_4  and  C_11 
REMARK    4  A    between atoms: C_5  and  C_4 
REMARK    5  A    between atoms: C_7  and  C_5 
REMARK    6  A    between atoms: C_14  and  O_15 
ROOT
HETATM    1  C   UNK N   1      19.501  16.069   8.623  0.00  0.00     0.068 A 
HETATM    2  C   UNK N   1      19.827  17.315   8.076  0.00  0.00     0.073 A 
HETATM    3  C   UNK N   1      20.929  17.437   7.225  0.00  0.00     0.068 A 
HETATM    4  C   UNK N   1      21.702  16.317   6.921  0.00  0.00     0.043 A 
HETATM    5  C   UNK N   1      21.378  15.064   7.468  0.00  0.00    -0.053 A 
HETATM    6  C   UNK N   1      20.276  14.947   8.318  0.00  0.00     0.043 A 
ENDROOT
BRANCH   5   7
HETATM    7  C   UNK N   1      22.183  13.840   7.165  0.00  0.00     0.043 C 
BRANCH   7   8
HETATM    8  C   UNK N   1      21.728  12.611   7.947  0.00  0.00     0.043 C 
BRANCH   8   9
HETATM    9  C   UNK N   1      22.413  12.460   9.267  0.00  0.00    -0.058 A 
HETATM   10  C   UNK N   1      23.813  12.464   9.382  0.00  0.00     0.010 A 
HETATM   11  C   UNK N   1      24.416  12.320  10.632  0.00  0.00     0.037 A 
HETATM   12  C   UNK N   1      23.625  12.171  11.773  0.00  0.00     0.065 A 
HETATM   13  C   UNK N   1      22.232  12.166  11.665  0.00  0.00     0.037 A 
HETATM   14  C   UNK N   1      21.628  12.310  10.414  0.00  0.00     0.010 A 
BRANCH  12  15
HETATM   15  O   UNK N   1      24.205  12.032  12.976  0.00  0.00    -0.361 OA
HETATM   16  H   UNK N   1      24.790  12.693  13.293  0.00  0.00     0.217 HD
ENDBRANCH  12  15
ENDBRANCH   8   9
ENDBRANCH   7   8
ENDBRANCH   5   7
BRANCH   3  17
HETATM   17  O   UNK N   1      21.245  18.631   6.699  0.00  0.00    -0.361 OA
HETATM   18  H   UNK N   1      20.583  19.152   6.288  0.00  0.00     0.217 HD
ENDBRANCH   3  17
BRANCH   1  19
HETATM   19  O   UNK N   1      18.444  15.950   9.440  0.00  0.00    -0.361 OA
HETATM   20  H   UNK N   1      17.770  16.600   9.432  0.00  0.00     0.217 HD
ENDBRANCH   1  19
TORSDOF 6
ENDMDL
MODEL 9
REMARK VINA RESULT:      -5.9     14.349     16.164
REMARK  6 active torsions:
REMARK  status: ('A' for Active; 'I' for Inactive)
REMARK    1  A    between atoms: O_10  and  C_1 
REMARK    2  A    between atoms: O_9  and  C_3 
REMARK    3  A    between atoms: C_4  and  C_11 
REMARK    4  A    between atoms: C_5  and  C_4 
REMARK    5  A    between atoms: C_7  and  C_5 
REMARK    6  A    between atoms: C_14  and  O_15 
ROOT
HETATM    1  C   UNK N   1      31.765   8.914  20.554  0.00  0.00     0.068 A 
HETATM    2  C   UNK N   1      31.760   9.687  21.719  0.00  0.00     0.073 A 
HETATM    3  C   UNK N   1      32.888  10.438  22.064  0.00  0.00     0.068 A 
HETATM    4  C   UNK N   1      34.017  10.414  21.247  0.00  0.00     0.043 A 
HETATM    5  C   UNK N   1      34.027   9.638  20.075  0.00  0.00    -0.053 A 
HETATM    6  C   UNK N   1      32.897   8.890  19.735  0.00  0.00     0.043 A 
ENDROOT
BRANCH   5   7
HETATM    7  C   UNK N   1      35.219   9.587  19.174  0.00  0.00     0.043 C 
BRANCH   7   8
HETATM    8  C   UNK N   1      35.721  10.967  18.760  0.00  0.00     0.043 C 
BRANCH   8   9
HETATM    9  C   UNK N   1      35.319  11.354  17.373  0.00  0.00    -0.058 A 
HETATM   10  C   UNK N   1      35.313  12.693  16.948  0.00  0.00     0.010 A 
HETATM   11  C   UNK N   1      34.932  13.015  15.645  0.00  0.00     0.037 A 
HETATM   12  C   UNK N   1      34.555  12.003  14.760  0.00  0.00     0.065 A 
HETATM   13  C   UNK N   1      34.558  10.669  15.178  0.00  0.00     0.037 A 
HETATM   14  C   UNK N   1      34.940  10.347  16.482  0.00  0.00     0.010 A 
BRANCH  12  15
HETATM   15  O   UNK N   1      34.187  12.313  13.507  0.00  0.00    -0.361 OA
HETATM   16  H   UNK N   1      33.505  11.828  13.085  0.00  0.00     0.217 HD
ENDBRANCH  12  15
ENDBRANCH   8   9
ENDBRANCH   7   8
ENDBRANCH   5   7
BRANCH   3  17
HETATM   17  O   UNK N   1      32.886  11.181  23.181  0.00  0.00    -0.361 OA
HETATM   18  H   UNK N   1      32.354  11.951  23.231  0.00  0.00     0.217 HD
ENDBRANCH   3  17
BRANCH   1  19
HETATM   19  O   UNK N   1      30.684   8.193  20.220  0.00  0.00    -0.361 OA
HETATM   20  H   UNK N   1      30.541   7.948  19.328  0.00  0.00     0.217 HD
ENDBRANCH   1  19
TORSDOF 6
ENDMDL
