REMARK  5 active torsions:
REMARK  status: ('A' for Active; 'I' for Inactive)
REMARK    1  A    between atoms: C_7  and  C_10 
REMARK    2  A    between atoms: C_10  and  C_11 
REMARK    3  A    between atoms: C_12  and  C_13 
REMARK    4  A    between atoms: C_14  and  C_15 
REMARK    5  A    between atoms: C_15  and  O_22 
ROOT
HETATM    1  C   UNK N   1       2.816   2.458   0.150  0.00  0.00    -0.024 C 
HETATM    2  C   UNK N   1       4.031   1.524   0.293  0.00  0.00     0.013 C 
HETATM    3  C   UNK N   1       3.951   0.324  -0.647  0.00  0.00     0.006 C 
HETATM    4  C   UNK N   1       2.717  -0.498  -0.289  0.00  0.00     0.039 C 
HETATM    5  C   UNK N   1       1.498   0.383  -0.271  0.00  0.00    -0.049 A 
HETATM    6  C   UNK N   1       0.156  -0.042  -0.548  0.00  0.00    -0.052 A 
HETATM    7  C   UNK N   1      -0.789   1.144  -0.544  0.00  0.00    -0.010 A 
HETATM    8  C   UNK N   1       0.156   2.318  -0.182  0.00  0.00     0.049 A 
HETATM    9  C   UNK N   1       1.528   1.691  -0.077  0.00  0.00    -0.064 A 
HETATM   10  C   UNK N   1       2.719   3.282   1.418  0.00  0.00     0.019 C 
HETATM   11  C   UNK N   1       3.038   3.393  -1.026  0.00  0.00     0.019 C 
HETATM   12  C   UNK N   1      -0.154  -1.292  -0.908  0.00  0.00     0.020 C 
HETATM   13  C   UNK N   1      -1.351   1.370  -1.939  0.00  0.00     0.021 C 
ENDROOT
BRANCH   7  14
HETATM   14  C   UNK N   1      -1.931   1.050   0.488  0.00  0.00     0.041 C 
BRANCH  14  15
HETATM   15  C   UNK N   1      -2.616  -0.273   0.393  0.00  0.00    -0.025 C 
HETATM   16  C   UNK N   1      -2.294  -1.198   1.296  0.00  0.00     0.003 C 
BRANCH  16  17
HETATM   17  C   UNK N   1      -2.591  -2.630   1.132  0.00  0.00    -0.056 C 
HETATM   18  C   UNK N   1      -3.219  -3.081   0.026  0.00  0.00     0.087 C 
HETATM   19  C   UNK N   1      -2.032  -3.559   2.159  0.00  0.00     0.048 C 
BRANCH  18  20
HETATM   20  C   UNK N   1      -3.406  -4.507  -0.332  0.00  0.00     0.165 C 
HETATM   21  O   UNK N   1      -2.771  -5.386   0.222  0.00  0.00    -0.647 OA
BRANCH  20  22
HETATM   22  O   UNK N   1      -4.244  -4.828  -1.337  0.00  0.00    -0.773 OA
HETATM   23  H   UNK N   1      -4.729  -4.434  -2.036  0.00  0.00     0.167 HD
ENDBRANCH  20  22
ENDBRANCH  18  20
ENDBRANCH  16  17
ENDBRANCH  14  15
ENDBRANCH   7  14
TORSDOF 5
