MODEL 1
REMARK VINA RESULT:      -7.4      0.000      0.000
REMARK  5 active torsions:
REMARK  status: ('A' for Active; 'I' for Inactive)
REMARK    1  A    between atoms: C_7  and  C_10 
REMARK    2  A    between atoms: C_10  and  C_11 
REMARK    3  A    between atoms: C_12  and  C_13 
REMARK    4  A    between atoms: C_14  and  C_15 
REMARK    5  A    between atoms: C_15  and  O_22 
ROOT
HETATM    1  C   UNK N   1      27.454  30.014  -3.709  0.00  0.00    -0.024 C 
HETATM    2  C   UNK N   1      28.660  30.704  -4.370  0.00  0.00     0.013 C 
HETATM    3  C   UNK N   1      28.534  30.756  -5.890  0.00  0.00     0.006 C 
HETATM    4  C   UNK N   1      28.491  29.329  -6.428  0.00  0.00     0.039 C 
HETATM    5  C   UNK N   1      27.418  28.545  -5.724  0.00  0.00    -0.049 A 
HETATM    6  C   UNK N   1      26.691  27.440  -6.279  0.00  0.00    -0.052 A 
HETATM    7  C   UNK N   1      25.615  26.974  -5.317  0.00  0.00    -0.010 A 
HETATM    8  C   UNK N   1      25.830  27.913  -4.102  0.00  0.00     0.049 A 
HETATM    9  C   UNK N   1      26.952  28.836  -4.521  0.00  0.00    -0.064 A 
HETATM   10  C   UNK N   1      27.886  29.554  -2.331  0.00  0.00     0.019 C 
HETATM   11  C   UNK N   1      26.323  31.017  -3.558  0.00  0.00     0.019 C 
HETATM   12  C   UNK N   1      26.862  27.010  -7.533  0.00  0.00     0.020 C 
HETATM   13  C   UNK N   1      24.238  27.233  -5.907  0.00  0.00     0.021 C 
ENDROOT
BRANCH   7  14
HETATM   14  C   UNK N   1      25.744  25.503  -4.874  0.00  0.00     0.041 C 
BRANCH  14  15
HETATM   15  C   UNK N   1      26.881  25.340  -3.920  0.00  0.00    -0.025 C 
HETATM   16  C   UNK N   1      28.085  25.098  -4.435  0.00  0.00     0.003 C 
BRANCH  16  17
HETATM   17  C   UNK N   1      29.210  24.564  -3.651  0.00  0.00    -0.056 C 
HETATM   18  C   UNK N   1      29.120  23.359  -3.050  0.00  0.00     0.087 C 
HETATM   19  C   UNK N   1      30.488  25.337  -3.687  0.00  0.00     0.048 C 
BRANCH  18  20
HETATM   20  C   UNK N   1      30.240  22.642  -2.395  0.00  0.00     0.165 C 
HETATM   21  O   UNK N   1      30.598  22.927  -1.267  0.00  0.00    -0.647 OA
BRANCH  20  22
HETATM   22  O   UNK N   1      30.916  21.706  -3.089  0.00  0.00    -0.773 OA
HETATM   23  H   UNK N   1      30.778  21.014  -3.706  0.00  0.00     0.167 HD
ENDBRANCH  20  22
ENDBRANCH  18  20
ENDBRANCH  16  17
ENDBRANCH  14  15
ENDBRANCH   7  14
TORSDOF 5
ENDMDL
MODEL 2
REMARK VINA RESULT:      -6.9     13.792     17.289
REMARK  5 active torsions:
REMARK  status: ('A' for Active; 'I' for Inactive)
REMARK    1  A    between atoms: C_7  and  C_10 
REMARK    2  A    between atoms: C_10  and  C_11 
REMARK    3  A    between atoms: C_12  and  C_13 
REMARK    4  A    between atoms: C_14  and  C_15 
REMARK    5  A    between atoms: C_15  and  O_22 
ROOT
HETATM    1  C   UNK N   1      23.171  13.135   8.610  0.00  0.00    -0.024 C 
HETATM    2  C   UNK N   1      22.452  13.152   9.971  0.00  0.00     0.013 C 
HETATM    3  C   UNK N   1      20.975  13.514   9.840  0.00  0.00     0.006 C 
HETATM    4  C   UNK N   1      20.864  14.922   9.264  0.00  0.00     0.039 C 
HETATM    5  C   UNK N   1      21.663  15.024   7.994  0.00  0.00    -0.049 A 
HETATM    6  C   UNK N   1      21.383  15.908   6.899  0.00  0.00    -0.052 A 
HETATM    7  C   UNK N   1      22.336  15.649   5.749  0.00  0.00    -0.010 A 
HETATM    8  C   UNK N   1      23.247  14.533   6.320  0.00  0.00     0.049 A 
HETATM    9  C   UNK N   1      22.686  14.241   7.693  0.00  0.00    -0.064 A 
HETATM   10  C   UNK N   1      24.656  13.286   8.873  0.00  0.00     0.019 C 
HETATM   11  C   UNK N   1      22.927  11.799   7.931  0.00  0.00     0.019 C 
HETATM   12  C   UNK N   1      20.324  16.724   6.873  0.00  0.00     0.020 C 
HETATM   13  C   UNK N   1      21.575  15.105   4.550  0.00  0.00     0.021 C 
ENDROOT
BRANCH   7  14
HETATM   14  C   UNK N   1      23.189  16.866   5.337  0.00  0.00     0.041 C 
BRANCH  14  15
HETATM   15  C   UNK N   1      22.655  17.483   4.087  0.00  0.00    -0.025 C 
HETATM   16  C   UNK N   1      22.072  18.676   4.191  0.00  0.00     0.003 C 
BRANCH  16  17
HETATM   17  C   UNK N   1      21.193  19.242   3.155  0.00  0.00    -0.056 C 
HETATM   18  C   UNK N   1      21.670  20.128   2.256  0.00  0.00     0.087 C 
HETATM   19  C   UNK N   1      19.814  18.679   3.056  0.00  0.00     0.048 C 
BRANCH  18  20
HETATM   20  C   UNK N   1      20.936  20.621   1.067  0.00  0.00     0.165 C 
HETATM   21  O   UNK N   1      20.518  21.764   1.012  0.00  0.00    -0.647 OA
BRANCH  20  22
HETATM   22  O   UNK N   1      20.668  19.768   0.059  0.00  0.00    -0.773 OA
HETATM   23  H   UNK N   1      20.378  18.890  -0.096  0.00  0.00     0.167 HD
ENDBRANCH  20  22
ENDBRANCH  18  20
ENDBRANCH  16  17
ENDBRANCH  14  15
ENDBRANCH   7  14
TORSDOF 5
ENDMDL
MODEL 3
REMARK VINA RESULT:      -6.8     21.483     26.460
REMARK  5 active torsions:
REMARK  status: ('A' for Active; 'I' for Inactive)
REMARK    1  A    between atoms: C_7  and  C_10 
REMARK    2  A    between atoms: C_10  and  C_11 
REMARK    3  A    between atoms: C_12  and  C_13 
REMARK    4  A    between atoms: C_14  and  C_15 
REMARK    5  A    between atoms: C_15  and  O_22 
ROOT
HETATM    1  C   UNK N   1      35.508  10.090  19.156  0.00  0.00    -0.024 C 
HETATM    2  C   UNK N   1      35.686  11.174  20.235  0.00  0.00     0.013 C 
HETATM    3  C   UNK N   1      34.878  12.432  19.929  0.00  0.00     0.006 C 
HETATM    4  C   UNK N   1      35.377  13.028  18.617  0.00  0.00     0.039 C 
HETATM    5  C   UNK N   1      35.364  11.982  17.537  0.00  0.00    -0.049 A 
HETATM    6  C   UNK N   1      35.197  12.231  16.134  0.00  0.00    -0.052 A 
HETATM    7  C   UNK N   1      35.126  10.925  15.367  0.00  0.00    -0.010 A 
HETATM    8  C   UNK N   1      35.320   9.872  16.488  0.00  0.00     0.049 A 
HETATM    9  C   UNK N   1      35.422  10.679  17.762  0.00  0.00    -0.064 A 
HETATM   10  C   UNK N   1      36.688   9.146  19.255  0.00  0.00     0.019 C 
HETATM   11  C   UNK N   1      34.233   9.312  19.433  0.00  0.00     0.019 C 
HETATM   12  C   UNK N   1      34.981  13.450  15.630  0.00  0.00     0.020 C 
HETATM   13  C   UNK N   1      33.744  10.751  14.756  0.00  0.00     0.021 C 
ENDROOT
BRANCH   7  14
HETATM   14  C   UNK N   1      36.216  10.754  14.289  0.00  0.00     0.041 C 
BRANCH  14  15
HETATM   15  C   UNK N   1      35.812  11.434  13.023  0.00  0.00    -0.025 C 
HETATM   16  C   UNK N   1      36.509  12.507  12.652  0.00  0.00     0.003 C 
BRANCH  16  17
HETATM   17  C   UNK N   1      36.030  13.482  11.659  0.00  0.00    -0.056 C 
HETATM   18  C   UNK N   1      35.832  14.772  12.000  0.00  0.00     0.087 C 
HETATM   19  C   UNK N   1      35.930  13.013  10.245  0.00  0.00     0.048 C 
BRANCH  18  20
HETATM   20  C   UNK N   1      35.532  15.872  11.053  0.00  0.00     0.165 C 
HETATM   21  O   UNK N   1      36.412  16.600  10.631  0.00  0.00    -0.647 OA
BRANCH  20  22
HETATM   22  O   UNK N   1      34.251  16.113  10.710  0.00  0.00    -0.773 OA
HETATM   23  H   UNK N   1      33.738  16.648  10.136  0.00  0.00     0.167 HD
ENDBRANCH  20  22
ENDBRANCH  18  20
ENDBRANCH  16  17
ENDBRANCH  14  15
ENDBRANCH   7  14
TORSDOF 5
ENDMDL
MODEL 4
REMARK VINA RESULT:      -6.7     21.622     26.696
REMARK  5 active torsions:
REMARK  status: ('A' for Active; 'I' for Inactive)
REMARK    1  A    between atoms: C_7  and  C_10 
REMARK    2  A    between atoms: C_10  and  C_11 
REMARK    3  A    between atoms: C_12  and  C_13 
REMARK    4  A    between atoms: C_14  and  C_15 
REMARK    5  A    between atoms: C_15  and  O_22 
ROOT
HETATM    1  C   UNK N   1      36.107   9.149  18.446  0.00  0.00    -0.024 C 
HETATM    2  C   UNK N   1      36.110   9.369  19.969  0.00  0.00     0.013 C 
HETATM    3  C   UNK N   1      35.083  10.411  20.404  0.00  0.00     0.006 C 
HETATM    4  C   UNK N   1      35.440  11.749  19.763  0.00  0.00     0.039 C 
HETATM    5  C   UNK N   1      35.593  11.583  18.276  0.00  0.00    -0.049 A 
HETATM    6  C   UNK N   1      35.356  12.601  17.293  0.00  0.00    -0.052 A 
HETATM    7  C   UNK N   1      35.505  12.035  15.894  0.00  0.00    -0.010 A 
HETATM    8  C   UNK N   1      35.908  10.565  16.174  0.00  0.00     0.049 A 
HETATM    9  C   UNK N   1      35.889  10.440  17.681  0.00  0.00    -0.064 A 
HETATM   10  C   UNK N   1      37.440   8.535  18.068  0.00  0.00     0.019 C 
HETATM   11  C   UNK N   1      34.999   8.176  18.082  0.00  0.00     0.019 C 
HETATM   12  C   UNK N   1      34.915  13.825  17.602  0.00  0.00     0.020 C 
HETATM   13  C   UNK N   1      34.164  12.055  15.176  0.00  0.00     0.021 C 
ENDROOT
BRANCH   7  14
HETATM   14  C   UNK N   1      36.586  12.723  15.036  0.00  0.00     0.041 C 
BRANCH  14  15
HETATM   15  C   UNK N   1      35.961  13.465  13.901  0.00  0.00    -0.025 C 
HETATM   16  C   UNK N   1      36.519  13.332  12.699  0.00  0.00     0.003 C 
BRANCH  16  17
HETATM   17  C   UNK N   1      36.262  14.252  11.579  0.00  0.00    -0.056 C 
HETATM   18  C   UNK N   1      35.384  15.269  11.710  0.00  0.00     0.087 C 
HETATM   19  C   UNK N   1      37.122  14.100  10.368  0.00  0.00     0.048 C 
BRANCH  18  20
HETATM   20  C   UNK N   1      35.181  16.358  10.726  0.00  0.00     0.165 C 
HETATM   21  O   UNK N   1      35.979  17.271  10.619  0.00  0.00    -0.647 OA
BRANCH  20  22
HETATM   22  O   UNK N   1      34.056  16.372   9.984  0.00  0.00    -0.773 OA
HETATM   23  H   UNK N   1      33.308  16.907   9.804  0.00  0.00     0.167 HD
ENDBRANCH  20  22
ENDBRANCH  18  20
ENDBRANCH  16  17
ENDBRANCH  14  15
ENDBRANCH   7  14
TORSDOF 5
ENDMDL
MODEL 5
REMARK VINA RESULT:      -6.6      3.464      5.562
REMARK  5 active torsions:
REMARK  status: ('A' for Active; 'I' for Inactive)
REMARK    1  A    between atoms: C_7  and  C_10 
REMARK    2  A    between atoms: C_10  and  C_11 
REMARK    3  A    between atoms: C_12  and  C_13 
REMARK    4  A    between atoms: C_14  and  C_15 
REMARK    5  A    between atoms: C_15  and  O_22 
ROOT
HETATM    1  C   UNK N   1      27.054  26.975  -6.790  0.00  0.00    -0.024 C 
HETATM    2  C   UNK N   1      25.546  27.037  -6.487  0.00  0.00     0.013 C 
HETATM    3  C   UNK N   1      25.252  26.911  -4.994  0.00  0.00     0.006 C 
HETATM    4  C   UNK N   1      25.745  25.551  -4.510  0.00  0.00     0.039 C 
HETATM    5  C   UNK N   1      27.186  25.358  -4.896  0.00  0.00    -0.049 A 
HETATM    6  C   UNK N   1      28.140  24.554  -4.188  0.00  0.00    -0.052 A 
HETATM    7  C   UNK N   1      29.516  24.690  -4.810  0.00  0.00    -0.010 A 
HETATM    8  C   UNK N   1      29.245  25.638  -6.007  0.00  0.00     0.049 A 
HETATM    9  C   UNK N   1      27.776  25.980  -5.903  0.00  0.00    -0.064 A 
HETATM   10  C   UNK N   1      27.213  26.590  -8.247  0.00  0.00     0.019 C 
HETATM   11  C   UNK N   1      27.665  28.349  -6.577  0.00  0.00     0.019 C 
HETATM   12  C   UNK N   1      27.853  23.913  -3.050  0.00  0.00     0.020 C 
HETATM   13  C   UNK N   1      30.465  25.374  -3.839  0.00  0.00     0.021 C 
ENDROOT
BRANCH   7  14
HETATM   14  C   UNK N   1      30.124  23.366  -5.315  0.00  0.00     0.041 C 
BRANCH  14  15
HETATM   15  C   UNK N   1      29.048  22.425  -5.745  0.00  0.00    -0.025 C 
HETATM   16  C   UNK N   1      28.565  22.566  -6.978  0.00  0.00     0.003 C 
BRANCH  16  17
HETATM   17  C   UNK N   1      27.289  21.982  -7.422  0.00  0.00    -0.056 C 
HETATM   18  C   UNK N   1      26.114  22.479  -6.982  0.00  0.00     0.087 C 
HETATM   19  C   UNK N   1      27.358  20.934  -8.483  0.00  0.00     0.048 C 
BRANCH  18  20
HETATM   20  C   UNK N   1      24.777  22.097  -7.495  0.00  0.00     0.165 C 
HETATM   21  O   UNK N   1      24.335  22.575  -8.524  0.00  0.00    -0.647 OA
BRANCH  20  22
HETATM   22  O   UNK N   1      24.010  21.258  -6.771  0.00  0.00    -0.773 OA
HETATM   23  H   UNK N   1      23.603  21.186  -5.930  0.00  0.00     0.167 HD
ENDBRANCH  20  22
ENDBRANCH  18  20
ENDBRANCH  16  17
ENDBRANCH  14  15
ENDBRANCH   7  14
TORSDOF 5
ENDMDL
MODEL 6
REMARK VINA RESULT:      -6.5      1.422      4.135
REMARK  5 active torsions:
REMARK  status: ('A' for Active; 'I' for Inactive)
REMARK    1  A    between atoms: C_7  and  C_10 
REMARK    2  A    between atoms: C_10  and  C_11 
REMARK    3  A    between atoms: C_12  and  C_13 
REMARK    4  A    between atoms: C_14  and  C_15 
REMARK    5  A    between atoms: C_15  and  O_22 
ROOT
HETATM    1  C   UNK N   1      26.533  26.027  -6.593  0.00  0.00    -0.024 C 
HETATM    2  C   UNK N   1      25.205  25.906  -5.824  0.00  0.00     0.013 C 
HETATM    3  C   UNK N   1      24.556  27.265  -5.575  0.00  0.00     0.006 C 
HETATM    4  C   UNK N   1      25.493  28.104  -4.711  0.00  0.00     0.039 C 
HETATM    5  C   UNK N   1      26.862  28.153  -5.333  0.00  0.00    -0.049 A 
HETATM    6  C   UNK N   1      27.806  29.224  -5.190  0.00  0.00    -0.052 A 
HETATM    7  C   UNK N   1      29.030  28.972  -6.049  0.00  0.00    -0.010 A 
HETATM    8  C   UNK N   1      28.711  27.593  -6.681  0.00  0.00     0.049 A 
HETATM    9  C   UNK N   1      27.334  27.241  -6.166  0.00  0.00    -0.064 A 
HETATM   10  C   UNK N   1      27.326  24.760  -6.342  0.00  0.00     0.019 C 
HETATM   11  C   UNK N   1      26.242  26.136  -8.080  0.00  0.00     0.019 C 
HETATM   12  C   UNK N   1      27.542  30.344  -4.509  0.00  0.00     0.020 C 
HETATM   13  C   UNK N   1      29.119  30.015  -7.152  0.00  0.00     0.021 C 
ENDROOT
BRANCH   7  14
HETATM   14  C   UNK N   1      30.357  28.898  -5.268  0.00  0.00     0.041 C 
BRANCH  14  15
HETATM   15  C   UNK N   1      30.404  27.665  -4.428  0.00  0.00    -0.025 C 
HETATM   16  C   UNK N   1      31.399  26.807  -4.651  0.00  0.00     0.003 C 
BRANCH  16  17
HETATM   17  C   UNK N   1      31.387  25.412  -4.182  0.00  0.00    -0.056 C 
HETATM   18  C   UNK N   1      30.426  24.976  -3.341  0.00  0.00     0.087 C 
HETATM   19  C   UNK N   1      32.382  24.484  -4.797  0.00  0.00     0.048 C 
BRANCH  18  20
HETATM   20  C   UNK N   1      30.206  23.563  -2.950  0.00  0.00     0.165 C 
HETATM   21  O   UNK N   1      29.488  22.831  -3.606  0.00  0.00    -0.647 OA
BRANCH  20  22
HETATM   22  O   UNK N   1      30.757  23.104  -1.810  0.00  0.00    -0.773 OA
HETATM   23  H   UNK N   1      30.738  23.244  -0.883  0.00  0.00     0.167 HD
ENDBRANCH  20  22
ENDBRANCH  18  20
ENDBRANCH  16  17
ENDBRANCH  14  15
ENDBRANCH   7  14
TORSDOF 5
ENDMDL
MODEL 7
REMARK VINA RESULT:      -6.3      1.827      2.866
REMARK  5 active torsions:
REMARK  status: ('A' for Active; 'I' for Inactive)
REMARK    1  A    between atoms: C_7  and  C_10 
REMARK    2  A    between atoms: C_10  and  C_11 
REMARK    3  A    between atoms: C_12  and  C_13 
REMARK    4  A    between atoms: C_14  and  C_15 
REMARK    5  A    between atoms: C_15  and  O_22 
ROOT
HETATM    1  C   UNK N   1      26.343  27.509  -4.768  0.00  0.00    -0.024 C 
HETATM    2  C   UNK N   1      27.176  28.722  -4.314  0.00  0.00     0.013 C 
HETATM    3  C   UNK N   1      27.480  29.676  -5.466  0.00  0.00     0.006 C 
HETATM    4  C   UNK N   1      28.310  28.936  -6.510  0.00  0.00     0.039 C 
HETATM    5  C   UNK N   1      27.621  27.658  -6.904  0.00  0.00    -0.049 A 
HETATM    6  C   UNK N   1      27.735  27.006  -8.177  0.00  0.00    -0.052 A 
HETATM    7  C   UNK N   1      26.811  25.805  -8.243  0.00  0.00    -0.010 A 
HETATM    8  C   UNK N   1      26.173  25.801  -6.831  0.00  0.00     0.049 A 
HETATM    9  C   UNK N   1      26.751  27.016  -6.143  0.00  0.00    -0.064 A 
HETATM   10  C   UNK N   1      26.532  26.412  -3.740  0.00  0.00     0.019 C 
HETATM   11  C   UNK N   1      24.875  27.896  -4.807  0.00  0.00     0.019 C 
HETATM   12  C   UNK N   1      28.448  27.505  -9.192  0.00  0.00     0.020 C 
HETATM   13  C   UNK N   1      25.724  26.038  -9.281  0.00  0.00     0.021 C 
ENDROOT
BRANCH   7  14
HETATM   14  C   UNK N   1      27.524  24.462  -8.503  0.00  0.00     0.041 C 
BRANCH  14  15
HETATM   15  C   UNK N   1      28.568  24.213  -7.465  0.00  0.00    -0.025 C 
HETATM   16  C   UNK N   1      28.426  23.133  -6.697  0.00  0.00     0.003 C 
BRANCH  16  17
HETATM   17  C   UNK N   1      29.140  22.943  -5.425  0.00  0.00    -0.056 C 
HETATM   18  C   UNK N   1      28.933  23.781  -4.387  0.00  0.00     0.087 C 
HETATM   19  C   UNK N   1      29.968  21.708  -5.292  0.00  0.00     0.048 C 
BRANCH  18  20
HETATM   20  C   UNK N   1      29.449  23.585  -3.012  0.00  0.00     0.165 C 
HETATM   21  O   UNK N   1      28.813  22.963  -2.181  0.00  0.00    -0.647 OA
BRANCH  20  22
HETATM   22  O   UNK N   1      30.613  24.166  -2.657  0.00  0.00    -0.773 OA
HETATM   23  H   UNK N   1      31.537  24.088  -2.792  0.00  0.00     0.167 HD
ENDBRANCH  20  22
ENDBRANCH  18  20
ENDBRANCH  16  17
ENDBRANCH  14  15
ENDBRANCH   7  14
TORSDOF 5
ENDMDL
MODEL 8
REMARK VINA RESULT:      -6.3     25.704     29.362
REMARK  5 active torsions:
REMARK  status: ('A' for Active; 'I' for Inactive)
REMARK    1  A    between atoms: C_7  and  C_10 
REMARK    2  A    between atoms: C_10  and  C_11 
REMARK    3  A    between atoms: C_12  and  C_13 
REMARK    4  A    between atoms: C_14  and  C_15 
REMARK    5  A    between atoms: C_15  and  O_22 
ROOT
HETATM    1  C   UNK N   1      36.485  11.767  14.477  0.00  0.00    -0.024 C 
HETATM    2  C   UNK N   1      36.373  13.279  14.213  0.00  0.00     0.013 C 
HETATM    3  C   UNK N   1      36.759  14.109  15.434  0.00  0.00     0.006 C 
HETATM    4  C   UNK N   1      35.794  13.787  16.571  0.00  0.00     0.039 C 
HETATM    5  C   UNK N   1      35.743  12.301  16.798  0.00  0.00    -0.049 A 
HETATM    6  C   UNK N   1      35.453  11.656  18.046  0.00  0.00    -0.052 A 
HETATM    7  C   UNK N   1      35.602  10.153  17.915  0.00  0.00    -0.010 A 
HETATM    8  C   UNK N   1      35.969   9.986  16.419  0.00  0.00     0.049 A 
HETATM    9  C   UNK N   1      36.045  11.397  15.880  0.00  0.00    -0.064 A 
HETATM   10  C   UNK N   1      35.623  11.057  13.453  0.00  0.00     0.019 C 
HETATM   11  C   UNK N   1      37.928  11.331  14.291  0.00  0.00     0.019 C 
HETATM   12  C   UNK N   1      35.239  12.328  19.182  0.00  0.00     0.020 C 
HETATM   13  C   UNK N   1      36.762   9.665  18.769  0.00  0.00     0.021 C 
ENDROOT
BRANCH   7  14
HETATM   14  C   UNK N   1      34.323   9.352  18.236  0.00  0.00     0.041 C 
BRANCH  14  15
HETATM   15  C   UNK N   1      34.290   8.973  19.679  0.00  0.00    -0.025 C 
HETATM   16  C   UNK N   1      33.374   9.559  20.448  0.00  0.00     0.003 C 
BRANCH  16  17
HETATM   17  C   UNK N   1      33.438   9.576  21.918  0.00  0.00    -0.056 C 
HETATM   18  C   UNK N   1      32.400  10.036  22.648  0.00  0.00     0.087 C 
HETATM   19  C   UNK N   1      34.623   8.924  22.551  0.00  0.00     0.048 C 
BRANCH  18  20
HETATM   20  C   UNK N   1      32.276   9.933  24.121  0.00  0.00     0.165 C 
HETATM   21  O   UNK N   1      32.730  10.793  24.855  0.00  0.00    -0.647 OA
BRANCH  20  22
HETATM   22  O   UNK N   1      31.712   8.834  24.659  0.00  0.00    -0.773 OA
HETATM   23  H   UNK N   1      31.238   8.063  24.413  0.00  0.00     0.167 HD
ENDBRANCH  20  22
ENDBRANCH  18  20
ENDBRANCH  16  17
ENDBRANCH  14  15
ENDBRANCH   7  14
TORSDOF 5
ENDMDL
MODEL 9
REMARK VINA RESULT:      -6.2     13.670     16.328
REMARK  5 active torsions:
REMARK  status: ('A' for Active; 'I' for Inactive)
REMARK    1  A    between atoms: C_7  and  C_10 
REMARK    2  A    between atoms: C_10  and  C_11 
REMARK    3  A    between atoms: C_12  and  C_13 
REMARK    4  A    between atoms: C_14  and  C_15 
REMARK    5  A    between atoms: C_15  and  O_22 
ROOT
HETATM    1  C   UNK N   1      29.007  18.225   8.102  0.00  0.00    -0.024 C 
HETATM    2  C   UNK N   1      28.106  19.359   7.581  0.00  0.00     0.013 C 
HETATM    3  C   UNK N   1      27.397  18.984   6.282  0.00  0.00     0.006 C 
HETATM    4  C   UNK N   1      28.448  18.726   5.207  0.00  0.00     0.039 C 
HETATM    5  C   UNK N   1      29.454  17.722   5.700  0.00  0.00    -0.049 A 
HETATM    6  C   UNK N   1      30.204  16.817   4.876  0.00  0.00    -0.052 A 
HETATM    7  C   UNK N   1      31.035  15.882   5.734  0.00  0.00    -0.010 A 
HETATM    8  C   UNK N   1      30.718  16.380   7.167  0.00  0.00     0.049 A 
HETATM    9  C   UNK N   1      29.712  17.492   6.977  0.00  0.00    -0.064 A 
HETATM   10  C   UNK N   1      30.022  18.841   9.043  0.00  0.00     0.019 C 
HETATM   11  C   UNK N   1      28.162  17.228   8.876  0.00  0.00     0.019 C 
HETATM   12  C   UNK N   1      30.047  16.737   3.551  0.00  0.00     0.020 C 
HETATM   13  C   UNK N   1      30.537  14.453   5.582  0.00  0.00     0.021 C 
ENDROOT
BRANCH   7  14
HETATM   14  C   UNK N   1      32.553  15.954   5.474  0.00  0.00     0.041 C 
BRANCH  14  15
HETATM   15  C   UNK N   1      33.297  16.112   6.759  0.00  0.00    -0.025 C 
HETATM   16  C   UNK N   1      34.484  15.515   6.859  0.00  0.00     0.003 C 
BRANCH  16  17
HETATM   17  C   UNK N   1      35.163  15.269   8.141  0.00  0.00    -0.056 C 
HETATM   18  C   UNK N   1      35.019  16.128   9.172  0.00  0.00     0.087 C 
HETATM   19  C   UNK N   1      35.877  13.966   8.291  0.00  0.00     0.048 C 
BRANCH  18  20
HETATM   20  C   UNK N   1      35.499  15.895  10.555  0.00  0.00     0.165 C 
HETATM   21  O   UNK N   1      34.748  15.492  11.425  0.00  0.00    -0.647 OA
BRANCH  20  22
HETATM   22  O   UNK N   1      36.773  16.202  10.869  0.00  0.00    -0.773 OA
HETATM   23  H   UNK N   1      37.541  15.824  11.250  0.00  0.00     0.167 HD
ENDBRANCH  20  22
ENDBRANCH  18  20
ENDBRANCH  16  17
ENDBRANCH  14  15
ENDBRANCH   7  14
TORSDOF 5
ENDMDL
