MODEL 1
REMARK VINA RESULT:      -6.7      0.000      0.000
REMARK  4 active torsions:
REMARK  status: ('A' for Active; 'I' for Inactive)
REMARK    1  A    between atoms: O_5  and  C_2 
REMARK    2  A    between atoms: C_6  and  O_5 
REMARK       I    between atoms: C_6  and  N_8 
REMARK    3  A    between atoms: C_14  and  C_13 
REMARK    4  A    between atoms: C_21  and  C_20 
ROOT
HETATM    1  C   UNK N   1      36.170  11.794  13.187  0.00  0.00     0.363 C 
HETATM    2  O   UNK N   1      36.720  10.742  12.894  0.00  0.00    -0.238 OA
HETATM    3  N   UNK N   1      35.728  12.643  12.224  0.00  0.00    -0.328 N 
HETATM    4  C   UNK N   1      35.892  12.384  10.811  0.00  0.00     0.129 C 
HETATM    5  C   UNK N   1      36.657  13.542  10.148  0.00  0.00     0.033 C 
HETATM    6  C   UNK N   1      35.108  13.878  12.610  0.00  0.00     0.129 C 
HETATM    7  C   UNK N   1      36.079  14.974  12.245  0.00  0.00     0.033 C 
HETATM    8  C   UNK N   1      36.369  14.943  10.742  0.00  0.00     0.066 C 
ENDROOT
BRANCH   8   9
HETATM    9  C   UNK N   1      35.477  15.867   9.972  0.00  0.00     0.152 A 
HETATM   10  O   UNK N   1      35.436  17.169  10.130  0.00  0.00    -0.222 OA
HETATM   11  N   UNK N   1      34.401  17.652   9.506  0.00  0.00    -0.242 N 
HETATM   12  C   UNK N   1      33.780  16.590   8.957  0.00  0.00     0.144 A 
ATOM     13  HN  UNK N   1      34.120  18.630   9.445  1.00  0.00     0.196 HD
HETATM   14  N   UNK N   1      34.432  15.447   9.231  0.00  0.00    -0.322 N 
ATOM     15  HN  UNK N   1      34.195  14.497   8.947  1.00  0.00     0.169 HD
BRANCH  12  16
HETATM   16  C   UNK N   1      32.483  16.638   8.276  0.00  0.00     0.050 A 
HETATM   17  S   UNK N   1      31.962  15.632   7.074  0.00  0.00    -0.098 SA
HETATM   18  C   UNK N   1      30.499  16.335   6.726  0.00  0.00     0.050 A 
HETATM   19  C   UNK N   1      30.384  17.434   7.591  0.00  0.00     0.009 A 
HETATM   20  C   UNK N   1      31.501  17.610   8.457  0.00  0.00     0.023 A 
ENDBRANCH  12  16
ENDBRANCH   8   9
BRANCH   1  21
HETATM   21  O   UNK N   1      35.999  12.149  14.492  0.00  0.00    -0.294 OA
BRANCH  21  22
HETATM   22  C   UNK N   1      35.058  11.662  15.382  0.00  0.00     0.061 C 
HETATM   23  C   UNK N   1      35.711  10.678  16.329  0.00  0.00     0.046 C 
HETATM   24  C   UNK N   1      34.551  12.840  16.188  0.00  0.00     0.046 C 
HETATM   25  C   UNK N   1      33.859  11.003  14.712  0.00  0.00     0.046 C 
ENDBRANCH  21  22
ENDBRANCH   1  21
TORSDOF 4
ENDMDL
MODEL 2
REMARK VINA RESULT:      -6.5      3.163      8.549
REMARK  4 active torsions:
REMARK  status: ('A' for Active; 'I' for Inactive)
REMARK    1  A    between atoms: O_5  and  C_2 
REMARK    2  A    between atoms: C_6  and  O_5 
REMARK       I    between atoms: C_6  and  N_8 
REMARK    3  A    between atoms: C_14  and  C_13 
REMARK    4  A    between atoms: C_21  and  C_20 
ROOT
HETATM    1  C   UNK N   1      30.260  16.628   6.010  0.00  0.00     0.363 C 
HETATM    2  O   UNK N   1      29.332  17.420   5.918  0.00  0.00    -0.238 OA
HETATM    3  N   UNK N   1      31.028  16.580   7.128  0.00  0.00    -0.328 N 
HETATM    4  C   UNK N   1      30.828  17.458   8.260  0.00  0.00     0.129 C 
HETATM    5  C   UNK N   1      32.119  18.242   8.553  0.00  0.00     0.033 C 
HETATM    6  C   UNK N   1      32.121  15.652   7.187  0.00  0.00     0.129 C 
HETATM    7  C   UNK N   1      33.384  16.476   7.116  0.00  0.00     0.033 C 
HETATM    8  C   UNK N   1      33.432  17.467   8.281  0.00  0.00     0.066 C 
ENDROOT
BRANCH   8   9
HETATM    9  C   UNK N   1      34.189  16.927   9.456  0.00  0.00     0.152 A 
HETATM   10  O   UNK N   1      35.328  17.409   9.895  0.00  0.00    -0.222 OA
HETATM   11  N   UNK N   1      35.847  16.583  10.756  0.00  0.00    -0.242 N 
HETATM   12  C   UNK N   1      34.989  15.547  10.829  0.00  0.00     0.144 A 
ATOM     13  HN  UNK N   1      36.722  16.697  11.268  1.00  0.00     0.196 HD
HETATM   14  N   UNK N   1      33.931  15.731  10.022  0.00  0.00    -0.322 N 
ATOM     15  HN  UNK N   1      33.130  15.118   9.875  1.00  0.00     0.169 HD
BRANCH  12  16
HETATM   16  C   UNK N   1      35.235  14.307  11.570  0.00  0.00     0.050 A 
HETATM   17  S   UNK N   1      34.993  12.766  11.024  0.00  0.00    -0.098 SA
HETATM   18  C   UNK N   1      35.363  11.913  12.401  0.00  0.00     0.050 A 
HETATM   19  C   UNK N   1      35.701  12.872  13.369  0.00  0.00     0.009 A 
HETATM   20  C   UNK N   1      35.623  14.217  12.906  0.00  0.00     0.023 A 
ENDBRANCH  12  16
ENDBRANCH   8   9
BRANCH   1  21
HETATM   21  O   UNK N   1      30.554  15.781   4.983  0.00  0.00    -0.294 OA
BRANCH  21  22
HETATM   22  C   UNK N   1      31.142  16.098   3.771  0.00  0.00     0.061 C 
HETATM   23  C   UNK N   1      32.038  14.964   3.325  0.00  0.00     0.046 C 
HETATM   24  C   UNK N   1      30.024  16.254   2.759  0.00  0.00     0.046 C 
HETATM   25  C   UNK N   1      31.938  17.397   3.792  0.00  0.00     0.046 C 
ENDBRANCH  21  22
ENDBRANCH   1  21
TORSDOF 4
ENDMDL
MODEL 3
REMARK VINA RESULT:      -6.5      3.034      7.926
REMARK  4 active torsions:
REMARK  status: ('A' for Active; 'I' for Inactive)
REMARK    1  A    between atoms: O_5  and  C_2 
REMARK    2  A    between atoms: C_6  and  O_5 
REMARK       I    between atoms: C_6  and  N_8 
REMARK    3  A    between atoms: C_14  and  C_13 
REMARK    4  A    between atoms: C_21  and  C_20 
ROOT
HETATM    1  C   UNK N   1      35.145  15.121   7.290  0.00  0.00     0.363 C 
HETATM    2  O   UNK N   1      35.009  14.350   6.350  0.00  0.00    -0.238 OA
HETATM    3  N   UNK N   1      35.540  14.672   8.509  0.00  0.00    -0.328 N 
HETATM    4  C   UNK N   1      35.799  13.278   8.789  0.00  0.00     0.129 C 
HETATM    5  C   UNK N   1      34.913  12.800   9.952  0.00  0.00     0.033 C 
HETATM    6  C   UNK N   1      35.666  15.606   9.590  0.00  0.00     0.129 C 
HETATM    7  C   UNK N   1      34.536  15.307  10.546  0.00  0.00     0.033 C 
HETATM    8  C   UNK N   1      34.634  13.863  11.043  0.00  0.00     0.066 C 
ENDROOT
BRANCH   8   9
HETATM    9  C   UNK N   1      35.378  13.758  12.339  0.00  0.00     0.152 A 
HETATM   10  O   UNK N   1      36.685  13.764  12.452  0.00  0.00    -0.222 OA
HETATM   11  N   UNK N   1      37.020  13.411  13.658  0.00  0.00    -0.242 N 
HETATM   12  C   UNK N   1      35.861  13.165  14.299  0.00  0.00     0.144 A 
ATOM     13  HN  UNK N   1      37.964  13.335  14.038  1.00  0.00     0.196 HD
HETATM   14  N   UNK N   1      34.804  13.375  13.497  0.00  0.00    -0.322 N 
ATOM     15  HN  UNK N   1      33.813  13.271  13.711  1.00  0.00     0.169 HD
BRANCH  12  16
HETATM   16  C   UNK N   1      35.754  12.599  15.648  0.00  0.00     0.050 A 
HETATM   17  S   UNK N   1      36.035  11.031  16.084  0.00  0.00    -0.098 SA
HETATM   18  C   UNK N   1      35.618  11.102  17.690  0.00  0.00     0.050 A 
HETATM   19  C   UNK N   1      35.228  12.429  17.929  0.00  0.00     0.009 A 
HETATM   20  C   UNK N   1      35.297  13.269  16.781  0.00  0.00     0.023 A 
ENDBRANCH  12  16
ENDBRANCH   8   9
BRANCH   1  21
HETATM   21  O   UNK N   1      34.890  16.451   7.139  0.00  0.00    -0.294 OA
BRANCH  21  22
HETATM   22  C   UNK N   1      33.655  17.073   7.090  0.00  0.00     0.061 C 
HETATM   23  C   UNK N   1      33.667  18.306   7.966  0.00  0.00     0.046 C 
HETATM   24  C   UNK N   1      33.428  17.504   5.655  0.00  0.00     0.046 C 
HETATM   25  C   UNK N   1      32.495  16.172   7.496  0.00  0.00     0.046 C 
ENDBRANCH  21  22
ENDBRANCH   1  21
TORSDOF 4
ENDMDL
MODEL 4
REMARK VINA RESULT:      -6.4      2.997      8.228
REMARK  4 active torsions:
REMARK  status: ('A' for Active; 'I' for Inactive)
REMARK    1  A    between atoms: O_5  and  C_2 
REMARK    2  A    between atoms: C_6  and  O_5 
REMARK       I    between atoms: C_6  and  N_8 
REMARK    3  A    between atoms: C_14  and  C_13 
REMARK    4  A    between atoms: C_21  and  C_20 
ROOT
HETATM    1  C   UNK N   1      34.559  17.175   7.485  0.00  0.00     0.363 C 
HETATM    2  O   UNK N   1      34.654  18.391   7.579  0.00  0.00    -0.238 OA
HETATM    3  N   UNK N   1      34.570  16.387   8.590  0.00  0.00    -0.328 N 
HETATM    4  C   UNK N   1      34.715  16.910   9.930  0.00  0.00     0.129 C 
HETATM    5  C   UNK N   1      35.930  16.266  10.618  0.00  0.00     0.033 C 
HETATM    6  C   UNK N   1      34.479  14.963   8.434  0.00  0.00     0.129 C 
HETATM    7  C   UNK N   1      35.835  14.408   8.797  0.00  0.00     0.033 C 
HETATM    8  C   UNK N   1      36.194  14.789  10.235  0.00  0.00     0.066 C 
ENDROOT
BRANCH   8   9
HETATM    9  C   UNK N   1      35.812  13.725  11.217  0.00  0.00     0.152 A 
HETATM   10  O   UNK N   1      34.757  12.952  11.108  0.00  0.00    -0.222 OA
HETATM   11  N   UNK N   1      34.566  12.314  12.225  0.00  0.00    -0.242 N 
HETATM   12  C   UNK N   1      35.543  12.732  13.053  0.00  0.00     0.144 A 
ATOM     13  HN  UNK N   1      33.830  11.639  12.431  1.00  0.00     0.196 HD
HETATM   14  N   UNK N   1      36.349  13.622  12.449  0.00  0.00    -0.322 N 
ATOM     15  HN  UNK N   1      37.164  14.101  12.829  1.00  0.00     0.169 HD
BRANCH  12  16
HETATM   16  C   UNK N   1      35.642  12.385  14.474  0.00  0.00     0.050 A 
HETATM   17  S   UNK N   1      36.626  11.240  15.144  0.00  0.00    -0.098 SA
HETATM   18  C   UNK N   1      36.128  11.324  16.726  0.00  0.00     0.050 A 
HETATM   19  C   UNK N   1      35.124  12.305  16.762  0.00  0.00     0.009 A 
HETATM   20  C   UNK N   1      34.846  12.897  15.497  0.00  0.00     0.023 A 
ENDBRANCH  12  16
ENDBRANCH   8   9
BRANCH   1  21
HETATM   21  O   UNK N   1      34.454  16.579   6.263  0.00  0.00    -0.294 OA
BRANCH  21  22
HETATM   22  C   UNK N   1      33.326  16.480   5.468  0.00  0.00     0.061 C 
HETATM   23  C   UNK N   1      33.316  17.601   4.452  0.00  0.00     0.046 C 
HETATM   24  C   UNK N   1      33.415  15.160   4.728  0.00  0.00     0.046 C 
HETATM   25  C   UNK N   1      32.018  16.490   6.249  0.00  0.00     0.046 C 
ENDBRANCH  21  22
ENDBRANCH   1  21
TORSDOF 4
ENDMDL
MODEL 5
REMARK VINA RESULT:      -6.2     16.703     19.798
REMARK  4 active torsions:
REMARK  status: ('A' for Active; 'I' for Inactive)
REMARK    1  A    between atoms: O_5  and  C_2 
REMARK    2  A    between atoms: C_6  and  O_5 
REMARK       I    between atoms: C_6  and  N_8 
REMARK    3  A    between atoms: C_14  and  C_13 
REMARK    4  A    between atoms: C_21  and  C_20 
ROOT
HETATM    1  C   UNK N   1      27.315  25.143  -3.798  0.00  0.00     0.363 C 
HETATM    2  O   UNK N   1      26.414  25.345  -2.996  0.00  0.00    -0.238 OA
HETATM    3  N   UNK N   1      28.168  24.098  -3.641  0.00  0.00    -0.328 N 
HETATM    4  C   UNK N   1      28.093  23.180  -2.526  0.00  0.00     0.129 C 
HETATM    5  C   UNK N   1      29.432  23.160  -1.769  0.00  0.00     0.033 C 
HETATM    6  C   UNK N   1      29.225  23.910  -4.592  0.00  0.00     0.129 C 
HETATM    7  C   UNK N   1      30.510  24.249  -3.875  0.00  0.00     0.033 C 
HETATM    8  C   UNK N   1      30.688  23.341  -2.656  0.00  0.00     0.066 C 
ENDROOT
BRANCH   8   9
HETATM    9  C   UNK N   1      31.515  22.131  -2.965  0.00  0.00     0.152 A 
HETATM   10  O   UNK N   1      32.348  21.562  -2.126  0.00  0.00    -0.222 OA
HETATM   11  N   UNK N   1      33.088  20.701  -2.763  0.00  0.00    -0.242 N 
HETATM   12  C   UNK N   1      32.693  20.764  -4.049  0.00  0.00     0.144 A 
ATOM     13  HN  UNK N   1      33.815  20.104  -2.369  1.00  0.00     0.196 HD
HETATM   14  N   UNK N   1      31.701  21.656  -4.213  0.00  0.00    -0.322 N 
ATOM     15  HN  UNK N   1      31.211  21.910  -5.070  1.00  0.00     0.169 HD
BRANCH  12  16
HETATM   16  C   UNK N   1      33.349  20.069  -5.161  0.00  0.00     0.050 A 
HETATM   17  S   UNK N   1      32.841  20.025  -6.732  0.00  0.00    -0.098 SA
HETATM   18  C   UNK N   1      33.974  18.992  -7.370  0.00  0.00     0.050 A 
HETATM   19  C   UNK N   1      34.819  18.642  -6.305  0.00  0.00     0.009 A 
HETATM   20  C   UNK N   1      34.464  19.240  -5.062  0.00  0.00     0.023 A 
ENDBRANCH  12  16
ENDBRANCH   8   9
BRANCH   1  21
HETATM   21  O   UNK N   1      27.495  25.972  -4.865  0.00  0.00    -0.294 OA
BRANCH  21  22
HETATM   22  C   UNK N   1      26.595  26.245  -5.881  0.00  0.00     0.061 C 
HETATM   23  C   UNK N   1      27.318  26.885  -7.046  0.00  0.00     0.046 C 
HETATM   24  C   UNK N   1      26.023  24.919  -6.340  0.00  0.00     0.046 C 
HETATM   25  C   UNK N   1      25.433  27.133  -5.454  0.00  0.00     0.046 C 
ENDBRANCH  21  22
ENDBRANCH   1  21
TORSDOF 4
ENDMDL
MODEL 6
REMARK VINA RESULT:      -6.1      2.405      3.043
REMARK  4 active torsions:
REMARK  status: ('A' for Active; 'I' for Inactive)
REMARK    1  A    between atoms: O_5  and  C_2 
REMARK    2  A    between atoms: C_6  and  O_5 
REMARK       I    between atoms: C_6  and  N_8 
REMARK    3  A    between atoms: C_14  and  C_13 
REMARK    4  A    between atoms: C_21  and  C_20 
ROOT
HETATM    1  C   UNK N   1      35.746  14.097  13.489  0.00  0.00     0.363 C 
HETATM    2  O   UNK N   1      36.525  14.686  14.226  0.00  0.00    -0.238 OA
HETATM    3  N   UNK N   1      35.784  14.281  12.144  0.00  0.00    -0.328 N 
HETATM    4  C   UNK N   1      36.710  15.184  11.497  0.00  0.00     0.129 C 
HETATM    5  C   UNK N   1      35.939  16.221  10.664  0.00  0.00     0.033 C 
HETATM    6  C   UNK N   1      34.838  13.588  11.317  0.00  0.00     0.129 C 
HETATM    7  C   UNK N   1      33.880  14.633  10.798  0.00  0.00     0.033 C 
HETATM    8  C   UNK N   1      34.640  15.697  10.003  0.00  0.00     0.066 C 
ENDROOT
BRANCH   8   9
HETATM    9  C   UNK N   1      34.664  15.401   8.535  0.00  0.00     0.152 A 
HETATM   10  O   UNK N   1      35.684  14.880   7.895  0.00  0.00    -0.222 OA
HETATM   11  N   UNK N   1      35.490  14.977   6.612  0.00  0.00    -0.242 N 
HETATM   12  C   UNK N   1      34.304  15.599   6.471  0.00  0.00     0.144 A 
ATOM     13  HN  UNK N   1      36.108  14.650   5.870  1.00  0.00     0.196 HD
HETATM   14  N   UNK N   1      33.754  15.880   7.664  0.00  0.00    -0.322 N 
ATOM     15  HN  UNK N   1      32.867  16.342   7.862  1.00  0.00     0.169 HD
BRANCH  12  16
HETATM   16  C   UNK N   1      33.742  16.050   5.195  0.00  0.00     0.050 A 
HETATM   17  S   UNK N   1      32.840  17.410   4.940  0.00  0.00    -0.098 SA
HETATM   18  C   UNK N   1      32.472  17.214   3.333  0.00  0.00     0.050 A 
HETATM   19  C   UNK N   1      33.082  16.011   2.942  0.00  0.00     0.009 A 
HETATM   20  C   UNK N   1      33.789  15.353   3.989  0.00  0.00     0.023 A 
ENDBRANCH  12  16
ENDBRANCH   8   9
BRANCH   1  21
HETATM   21  O   UNK N   1      34.809  13.250  14.002  0.00  0.00    -0.294 OA
BRANCH  21  22
HETATM   22  C   UNK N   1      35.027  12.092  14.727  0.00  0.00     0.061 C 
HETATM   23  C   UNK N   1      35.023  12.408  16.207  0.00  0.00     0.046 C 
HETATM   24  C   UNK N   1      33.874  11.155  14.432  0.00  0.00     0.046 C 
HETATM   25  C   UNK N   1      36.319  11.372  14.365  0.00  0.00     0.046 C 
ENDBRANCH  21  22
ENDBRANCH   1  21
TORSDOF 4
ENDMDL
MODEL 7
REMARK VINA RESULT:      -5.9      7.133     10.757
REMARK  4 active torsions:
REMARK  status: ('A' for Active; 'I' for Inactive)
REMARK    1  A    between atoms: O_5  and  C_2 
REMARK    2  A    between atoms: C_6  and  O_5 
REMARK       I    between atoms: C_6  and  N_8 
REMARK    3  A    between atoms: C_14  and  C_13 
REMARK    4  A    between atoms: C_21  and  C_20 
ROOT
HETATM    1  C   UNK N   1      31.031  16.516   5.304  0.00  0.00     0.363 C 
HETATM    2  O   UNK N   1      31.600  15.628   4.685  0.00  0.00    -0.238 OA
HETATM    3  N   UNK N   1      29.685  16.678   5.216  0.00  0.00    -0.328 N 
HETATM    4  C   UNK N   1      28.845  15.846   4.383  0.00  0.00     0.129 C 
HETATM    5  C   UNK N   1      28.062  16.719   3.387  0.00  0.00     0.033 C 
HETATM    6  C   UNK N   1      29.060  17.746   5.941  0.00  0.00     0.129 C 
HETATM    7  C   UNK N   1      28.615  18.757   4.911  0.00  0.00     0.033 C 
HETATM    8  C   UNK N   1      27.642  18.109   3.924  0.00  0.00     0.066 C 
ENDROOT
BRANCH   8   9
HETATM    9  C   UNK N   1      26.211  18.309   4.323  0.00  0.00     0.152 A 
HETATM   10  O   UNK N   1      25.565  17.562   5.186  0.00  0.00    -0.222 OA
HETATM   11  N   UNK N   1      24.293  17.830   5.129  0.00  0.00    -0.242 N 
HETATM   12  C   UNK N   1      24.164  18.774   4.177  0.00  0.00     0.144 A 
ATOM     13  HN  UNK N   1      23.550  17.413   5.689  1.00  0.00     0.196 HD
HETATM   14  N   UNK N   1      25.355  19.101   3.647  0.00  0.00    -0.322 N 
ATOM     15  HN  UNK N   1      25.560  19.781   2.915  1.00  0.00     0.169 HD
BRANCH  12  16
HETATM   16  C   UNK N   1      22.886  19.281   3.669  0.00  0.00     0.050 A 
HETATM   17  S   UNK N   1      21.404  18.573   3.845  0.00  0.00    -0.098 SA
HETATM   18  C   UNK N   1      20.478  19.616   2.943  0.00  0.00     0.050 A 
HETATM   19  C   UNK N   1      21.362  20.593   2.458  0.00  0.00     0.009 A 
HETATM   20  C   UNK N   1      22.715  20.402   2.859  0.00  0.00     0.023 A 
ENDBRANCH  12  16
ENDBRANCH   8   9
BRANCH   1  21
HETATM   21  O   UNK N   1      31.737  17.378   6.090  0.00  0.00    -0.294 OA
BRANCH  21  22
HETATM   22  C   UNK N   1      32.454  17.079   7.235  0.00  0.00     0.061 C 
HETATM   23  C   UNK N   1      33.913  17.424   7.030  0.00  0.00     0.046 C 
HETATM   24  C   UNK N   1      31.906  17.951   8.347  0.00  0.00     0.046 C 
HETATM   25  C   UNK N   1      32.332  15.626   7.678  0.00  0.00     0.046 C 
ENDBRANCH  21  22
ENDBRANCH   1  21
TORSDOF 4
ENDMDL
MODEL 8
REMARK VINA RESULT:      -5.8      3.481      8.046
REMARK  4 active torsions:
REMARK  status: ('A' for Active; 'I' for Inactive)
REMARK    1  A    between atoms: O_5  and  C_2 
REMARK    2  A    between atoms: C_6  and  O_5 
REMARK       I    between atoms: C_6  and  N_8 
REMARK    3  A    between atoms: C_14  and  C_13 
REMARK    4  A    between atoms: C_21  and  C_20 
ROOT
HETATM    1  C   UNK N   1      31.857  15.348   6.150  0.00  0.00     0.363 C 
HETATM    2  O   UNK N   1      30.909  16.060   5.848  0.00  0.00    -0.238 OA
HETATM    3  N   UNK N   1      32.430  15.432   7.378  0.00  0.00    -0.328 N 
HETATM    4  C   UNK N   1      31.989  16.364   8.391  0.00  0.00     0.129 C 
HETATM    5  C   UNK N   1      33.161  17.261   8.827  0.00  0.00     0.033 C 
HETATM    6  C   UNK N   1      33.554  14.594   7.684  0.00  0.00     0.129 C 
HETATM    7  C   UNK N   1      34.757  15.505   7.755  0.00  0.00     0.033 C 
HETATM    8  C   UNK N   1      34.547  16.571   8.832  0.00  0.00     0.066 C 
ENDROOT
BRANCH   8   9
HETATM    9  C   UNK N   1      35.130  16.168  10.152  0.00  0.00     0.152 A 
HETATM   10  O   UNK N   1      36.327  16.504  10.572  0.00  0.00    -0.222 OA
HETATM   11  N   UNK N   1      36.631  15.805  11.627  0.00  0.00    -0.242 N 
HETATM   12  C   UNK N   1      35.574  14.998  11.844  0.00  0.00     0.144 A 
ATOM     13  HN  UNK N   1      37.491  15.857  12.173  1.00  0.00     0.196 HD
HETATM   14  N   UNK N   1      34.608  15.201  10.932  0.00  0.00    -0.322 N 
ATOM     15  HN  UNK N   1      33.703  14.739  10.852  1.00  0.00     0.169 HD
BRANCH  12  16
HETATM   16  C   UNK N   1      35.529  13.930  12.847  0.00  0.00     0.050 A 
HETATM   17  S   UNK N   1      36.332  13.897  14.290  0.00  0.00    -0.098 SA
HETATM   18  C   UNK N   1      35.907  12.382  14.820  0.00  0.00     0.050 A 
HETATM   19  C   UNK N   1      35.082  11.842  13.821  0.00  0.00     0.009 A 
HETATM   20  C   UNK N   1      34.875  12.707  12.709  0.00  0.00     0.023 A 
ENDBRANCH  12  16
ENDBRANCH   8   9
BRANCH   1  21
HETATM   21  O   UNK N   1      32.372  14.460   5.253  0.00  0.00    -0.294 OA
BRANCH  21  22
HETATM   22  C   UNK N   1      33.087  14.743   4.103  0.00  0.00     0.061 C 
HETATM   23  C   UNK N   1      33.408  16.220   4.051  0.00  0.00     0.046 C 
HETATM   24  C   UNK N   1      34.389  13.971   4.184  0.00  0.00     0.046 C 
HETATM   25  C   UNK N   1      32.379  14.331   2.819  0.00  0.00     0.046 C 
ENDBRANCH  21  22
ENDBRANCH   1  21
TORSDOF 4
ENDMDL
MODEL 9
REMARK VINA RESULT:      -5.7     16.734     19.713
REMARK  4 active torsions:
REMARK  status: ('A' for Active; 'I' for Inactive)
REMARK    1  A    between atoms: O_5  and  C_2 
REMARK    2  A    between atoms: C_6  and  O_5 
REMARK       I    between atoms: C_6  and  N_8 
REMARK    3  A    between atoms: C_14  and  C_13 
REMARK    4  A    between atoms: C_21  and  C_20 
ROOT
HETATM    1  C   UNK N   1      28.217  24.569  -6.119  0.00  0.00     0.363 C 
HETATM    2  O   UNK N   1      27.644  24.397  -7.185  0.00  0.00    -0.238 OA
HETATM    3  N   UNK N   1      29.285  23.807  -5.769  0.00  0.00    -0.328 N 
HETATM    4  C   UNK N   1      29.799  22.742  -6.601  0.00  0.00     0.129 C 
HETATM    5  C   UNK N   1      29.797  21.416  -5.820  0.00  0.00     0.033 C 
HETATM    6  C   UNK N   1      29.915  24.026  -4.499  0.00  0.00     0.129 C 
HETATM    7  C   UNK N   1      29.578  22.828  -3.644  0.00  0.00     0.033 C 
HETATM    8  C   UNK N   1      30.091  21.548  -4.306  0.00  0.00     0.066 C 
ENDROOT
BRANCH   8   9
HETATM    9  C   UNK N   1      31.451  21.159  -3.814  0.00  0.00     0.152 A 
HETATM   10  O   UNK N   1      31.890  21.363  -2.594  0.00  0.00    -0.222 OA
HETATM   11  N   UNK N   1      33.172  21.145  -2.550  0.00  0.00    -0.242 N 
HETATM   12  C   UNK N   1      33.527  20.809  -3.805  0.00  0.00     0.144 A 
ATOM     13  HN  UNK N   1      33.781  21.216  -1.735  1.00  0.00     0.196 HD
HETATM   14  N   UNK N   1      32.465  20.806  -4.629  0.00  0.00    -0.322 N 
ATOM     15  HN  UNK N   1      32.434  20.590  -5.625  1.00  0.00     0.169 HD
BRANCH  12  16
HETATM   16  C   UNK N   1      34.906  20.614  -4.262  0.00  0.00     0.050 A 
HETATM   17  S   UNK N   1      35.480  19.347  -5.153  0.00  0.00    -0.098 SA
HETATM   18  C   UNK N   1      37.095  19.732  -5.190  0.00  0.00     0.050 A 
HETATM   19  C   UNK N   1      37.224  20.926  -4.465  0.00  0.00     0.009 A 
HETATM   20  C   UNK N   1      35.996  21.419  -3.937  0.00  0.00     0.023 A 
ENDBRANCH  12  16
ENDBRANCH   8   9
BRANCH   1  21
HETATM   21  O   UNK N   1      27.789  25.525  -5.246  0.00  0.00    -0.294 OA
BRANCH  21  22
HETATM   22  C   UNK N   1      26.553  25.609  -4.629  0.00  0.00     0.061 C 
HETATM   23  C   UNK N   1      26.146  24.246  -4.111  0.00  0.00     0.046 C 
HETATM   24  C   UNK N   1      26.705  26.546  -3.448  0.00  0.00     0.046 C 
HETATM   25  C   UNK N   1      25.452  26.161  -5.525  0.00  0.00     0.046 C 
ENDBRANCH  21  22
ENDBRANCH   1  21
TORSDOF 4
ENDMDL
