MODEL 1
REMARK VINA RESULT:      -6.9      0.000      0.000
REMARK  2 active torsions:
REMARK  status: ('A' for Active; 'I' for Inactive)
REMARK    1  A    between atoms: C_8  and  C_7 
REMARK    2  A    between atoms: C_15  and  C_14 
ROOT
HETATM    1  C   UNK N   1      36.010  13.900  12.769  0.00  0.00     0.132 A 
HETATM    2  N   UNK N   1      35.356  13.718  13.928  0.00  0.00    -0.325 N 
HETATM    3  N   UNK N   1      37.218  13.302  12.784  0.00  0.00    -0.283 N 
ATOM      4  HN  UNK N   1      37.902  13.294  12.027  1.00  0.00     0.188 HD
HETATM    5  N   UNK N   1      37.345  12.726  13.971  0.00  0.00    -0.283 N 
ATOM      6  HN  UNK N   1      38.147  12.191  14.303  1.00  0.00     0.188 HD
HETATM    7  C   UNK N   1      36.213  12.984  14.656  0.00  0.00     0.132 A 
HETATM    8  H   UNK N   1      34.464  14.045  14.183  0.00  0.00     0.169 HD
ENDROOT
BRANCH   1   9
HETATM    9  C   UNK N   1      35.442  14.662  11.648  0.00  0.00     0.009 A 
HETATM   10  C   UNK N   1      35.781  16.014  11.507  0.00  0.00     0.018 A 
HETATM   11  C   UNK N   1      35.261  16.768  10.456  0.00  0.00     0.043 A 
HETATM   12  C   UNK N   1      34.396  16.175   9.537  0.00  0.00     0.116 A 
HETATM   13  C   UNK N   1      34.051  14.825   9.669  0.00  0.00     0.043 A 
HETATM   14  F   UNK N   1      33.894  16.910   8.518  0.00  0.00    -0.206 F 
HETATM   15  C   UNK N   1      34.573  14.066  10.725  0.00  0.00     0.018 A 
ENDBRANCH   1   9
BRANCH   7  16
HETATM   16  C   UNK N   1      35.918  12.538  16.023  0.00  0.00     0.009 A 
HETATM   17  C   UNK N   1      35.406  13.460  16.948  0.00  0.00     0.015 A 
HETATM   18  C   UNK N   1      35.116  13.065  18.255  0.00  0.00     0.001 A 
HETATM   19  C   UNK N   1      35.336  11.743  18.645  0.00  0.00     0.000 A 
HETATM   20  C   UNK N   1      35.846  10.817  17.729  0.00  0.00     0.001 A 
HETATM   21  C   UNK N   1      36.138  11.212  16.418  0.00  0.00     0.015 A 
ENDBRANCH   7  16
TORSDOF 2
ENDMDL
MODEL 2
REMARK VINA RESULT:      -6.9      1.301      2.121
REMARK  2 active torsions:
REMARK  status: ('A' for Active; 'I' for Inactive)
REMARK    1  A    between atoms: C_8  and  C_7 
REMARK    2  A    between atoms: C_15  and  C_14 
ROOT
HETATM    1  C   UNK N   1      35.614  13.832  13.188  0.00  0.00     0.132 A 
HETATM    2  N   UNK N   1      35.069  13.141  14.202  0.00  0.00    -0.325 N 
HETATM    3  N   UNK N   1      36.723  14.490  13.578  0.00  0.00    -0.283 N 
ATOM      4  HN  UNK N   1      37.315  15.083  12.996  1.00  0.00     0.188 HD
HETATM    5  N   UNK N   1      36.897  14.219  14.864  0.00  0.00    -0.283 N 
ATOM      6  HN  UNK N   1      37.649  14.564  15.461  1.00  0.00     0.188 HD
HETATM    7  C   UNK N   1      35.890  13.402  15.232  0.00  0.00     0.132 A 
HETATM    8  H   UNK N   1      34.262  12.578  14.193  0.00  0.00     0.169 HD
ENDROOT
BRANCH   1   9
HETATM    9  C   UNK N   1      35.039  13.842  11.835  0.00  0.00     0.009 A 
HETATM   10  C   UNK N   1      35.025  12.652  11.095  0.00  0.00     0.018 A 
HETATM   11  C   UNK N   1      34.488  12.624   9.810  0.00  0.00     0.043 A 
HETATM   12  C   UNK N   1      33.959  13.789   9.252  0.00  0.00     0.116 A 
HETATM   13  C   UNK N   1      33.968  14.983   9.983  0.00  0.00     0.043 A 
HETATM   14  F   UNK N   1      33.439  13.758   8.003  0.00  0.00    -0.206 F 
HETATM   15  C   UNK N   1      34.508  15.012  11.276  0.00  0.00     0.018 A 
ENDBRANCH   1   9
BRANCH   7  16
HETATM   16  C   UNK N   1      35.685  12.847  16.575  0.00  0.00     0.009 A 
HETATM   17  C   UNK N   1      35.860  11.471  16.782  0.00  0.00     0.015 A 
HETATM   18  C   UNK N   1      35.672  10.915  18.048  0.00  0.00     0.001 A 
HETATM   19  C   UNK N   1      35.305  11.734  19.118  0.00  0.00     0.000 A 
HETATM   20  C   UNK N   1      35.128  13.107  18.920  0.00  0.00     0.001 A 
HETATM   21  C   UNK N   1      35.317  13.665  17.651  0.00  0.00     0.015 A 
ENDBRANCH   7  16
TORSDOF 2
ENDMDL
MODEL 3
REMARK VINA RESULT:      -6.7      2.984      7.087
REMARK  2 active torsions:
REMARK  status: ('A' for Active; 'I' for Inactive)
REMARK    1  A    between atoms: C_8  and  C_7 
REMARK    2  A    between atoms: C_15  and  C_14 
ROOT
HETATM    1  C   UNK N   1      36.216  13.012  14.555  0.00  0.00     0.132 A 
HETATM    2  N   UNK N   1      35.328  13.709  13.830  0.00  0.00    -0.325 N 
HETATM    3  N   UNK N   1      37.370  12.829  13.882  0.00  0.00    -0.283 N 
ATOM      4  HN  UNK N   1      38.197  12.333  14.215  1.00  0.00     0.188 HD
HETATM    5  N   UNK N   1      37.222  13.418  12.703  0.00  0.00    -0.283 N 
ATOM      6  HN  UNK N   1      37.915  13.462  11.956  1.00  0.00     0.188 HD
HETATM    7  C   UNK N   1      35.983  13.948  12.682  0.00  0.00     0.132 A 
HETATM    8  H   UNK N   1      34.415  13.981  14.079  0.00  0.00     0.169 HD
ENDROOT
BRANCH   1   9
HETATM    9  C   UNK N   1      35.927  12.527  15.912  0.00  0.00     0.009 A 
HETATM   10  C   UNK N   1      35.393  13.419  16.852  0.00  0.00     0.018 A 
HETATM   11  C   UNK N   1      35.106  12.994  18.147  0.00  0.00     0.043 A 
HETATM   12  C   UNK N   1      35.351  11.671  18.515  0.00  0.00     0.116 A 
HETATM   13  C   UNK N   1      35.884  10.771  17.584  0.00  0.00     0.043 A 
HETATM   14  F   UNK N   1      35.071  11.262  19.775  0.00  0.00    -0.206 F 
HETATM   15  C   UNK N   1      36.173  11.198  16.281  0.00  0.00     0.018 A 
ENDBRANCH   1   9
BRANCH   7  16
HETATM   16  C   UNK N   1      35.390  14.695  11.566  0.00  0.00     0.009 A 
HETATM   17  C   UNK N   1      35.770  16.030  11.358  0.00  0.00     0.015 A 
HETATM   18  C   UNK N   1      35.224  16.766  10.306  0.00  0.00     0.001 A 
HETATM   19  C   UNK N   1      34.291  16.171   9.454  0.00  0.00     0.000 A 
HETATM   20  C   UNK N   1      33.906  14.841   9.655  0.00  0.00     0.001 A 
HETATM   21  C   UNK N   1      34.454  14.102  10.709  0.00  0.00     0.015 A 
ENDBRANCH   7  16
TORSDOF 2
ENDMDL
MODEL 4
REMARK VINA RESULT:      -6.6      1.469      2.147
REMARK  2 active torsions:
REMARK  status: ('A' for Active; 'I' for Inactive)
REMARK    1  A    between atoms: C_8  and  C_7 
REMARK    2  A    between atoms: C_15  and  C_14 
ROOT
HETATM    1  C   UNK N   1      35.243  14.820  11.677  0.00  0.00     0.132 A 
HETATM    2  N   UNK N   1      34.639  13.829  12.350  0.00  0.00    -0.325 N 
HETATM    3  N   UNK N   1      36.466  15.085  12.178  0.00  0.00    -0.283 N 
ATOM      4  HN  UNK N   1      37.121  15.792  11.843  1.00  0.00     0.188 HD
HETATM    5  N   UNK N   1      36.653  14.251  13.191  0.00  0.00    -0.283 N 
ATOM      6  HN  UNK N   1      37.480  14.193  13.785  1.00  0.00     0.188 HD
HETATM    7  C   UNK N   1      35.541  13.495  13.287  0.00  0.00     0.132 A 
HETATM    8  H   UNK N   1      33.748  13.440  12.195  0.00  0.00     0.169 HD
ENDROOT
BRANCH   1   9
HETATM    9  C   UNK N   1      34.613  15.505  10.539  0.00  0.00     0.009 A 
HETATM   10  C   UNK N   1      35.154  16.720  10.095  0.00  0.00     0.018 A 
HETATM   11  C   UNK N   1      34.583  17.398   9.020  0.00  0.00     0.043 A 
HETATM   12  C   UNK N   1      33.465  16.865   8.377  0.00  0.00     0.116 A 
HETATM   13  C   UNK N   1      32.917  15.653   8.813  0.00  0.00     0.043 A 
HETATM   14  F   UNK N   1      32.913  17.526   7.333  0.00  0.00    -0.206 F 
HETATM   15  C   UNK N   1      33.491  14.971   9.894  0.00  0.00     0.018 A 
ENDBRANCH   1   9
BRANCH   7  16
HETATM   16  C   UNK N   1      35.309  12.434  14.274  0.00  0.00     0.009 A 
HETATM   17  C   UNK N   1      34.254  11.532  14.074  0.00  0.00     0.015 A 
HETATM   18  C   UNK N   1      34.009  10.512  14.996  0.00  0.00     0.001 A 
HETATM   19  C   UNK N   1      34.820  10.389  16.125  0.00  0.00     0.000 A 
HETATM   20  C   UNK N   1      35.875  11.284  16.332  0.00  0.00     0.001 A 
HETATM   21  C   UNK N   1      36.121  12.306  15.409  0.00  0.00     0.015 A 
ENDBRANCH   7  16
TORSDOF 2
ENDMDL
MODEL 5
REMARK VINA RESULT:      -6.6      3.409      5.170
REMARK  2 active torsions:
REMARK  status: ('A' for Active; 'I' for Inactive)
REMARK    1  A    between atoms: C_8  and  C_7 
REMARK    2  A    between atoms: C_15  and  C_14 
ROOT
HETATM    1  C   UNK N   1      34.034  16.611   9.057  0.00  0.00     0.132 A 
HETATM    2  N   UNK N   1      34.166  15.387   9.594  0.00  0.00    -0.325 N 
HETATM    3  N   UNK N   1      34.615  17.552   9.826  0.00  0.00    -0.283 N 
ATOM      4  HN  UNK N   1      34.652  18.554   9.638  1.00  0.00     0.188 HD
HETATM    5  N   UNK N   1      35.130  16.926  10.876  0.00  0.00    -0.283 N 
ATOM      6  HN  UNK N   1      35.638  17.355  11.649  1.00  0.00     0.188 HD
HETATM    7  C   UNK N   1      34.852  15.616  10.725  0.00  0.00     0.132 A 
HETATM    8  H   UNK N   1      33.838  14.528   9.242  0.00  0.00     0.169 HD
ENDROOT
BRANCH   1   9
HETATM    9  C   UNK N   1      33.336  16.849   7.787  0.00  0.00     0.009 A 
HETATM   10  C   UNK N   1      31.946  16.681   7.735  0.00  0.00     0.018 A 
HETATM   11  C   UNK N   1      31.250  16.898   6.547  0.00  0.00     0.043 A 
HETATM   12  C   UNK N   1      31.941  17.286   5.399  0.00  0.00     0.116 A 
HETATM   13  C   UNK N   1      33.329  17.457   5.439  0.00  0.00     0.043 A 
HETATM   14  F   UNK N   1      31.261  17.497   4.247  0.00  0.00    -0.206 F 
HETATM   15  C   UNK N   1      34.030  17.239   6.634  0.00  0.00     0.018 A 
ENDBRANCH   1   9
BRANCH   7  16
HETATM   16  C   UNK N   1      35.233  14.547  11.656  0.00  0.00     0.009 A 
HETATM   17  C   UNK N   1      35.977  14.870  12.801  0.00  0.00     0.015 A 
HETATM   18  C   UNK N   1      36.355  13.875  13.704  0.00  0.00     0.001 A 
HETATM   19  C   UNK N   1      35.989  12.548  13.467  0.00  0.00     0.000 A 
HETATM   20  C   UNK N   1      35.247  12.218  12.328  0.00  0.00     0.001 A 
HETATM   21  C   UNK N   1      34.869  13.215  11.422  0.00  0.00     0.015 A 
ENDBRANCH   7  16
TORSDOF 2
ENDMDL
MODEL 6
REMARK VINA RESULT:      -6.6      3.706      8.167
REMARK  2 active torsions:
REMARK  status: ('A' for Active; 'I' for Inactive)
REMARK    1  A    between atoms: C_8  and  C_7 
REMARK    2  A    between atoms: C_15  and  C_14 
ROOT
HETATM    1  C   UNK N   1      34.886  15.637  10.807  0.00  0.00     0.132 A 
HETATM    2  N   UNK N   1      34.189  15.381   9.688  0.00  0.00    -0.325 N 
HETATM    3  N   UNK N   1      35.169  16.950  10.922  0.00  0.00    -0.283 N 
ATOM      4  HN  UNK N   1      35.686  17.396  11.680  1.00  0.00     0.188 HD
HETATM    5  N   UNK N   1      34.647  17.549   9.861  0.00  0.00    -0.283 N 
ATOM      6  HN  UNK N   1      34.686  18.546   9.646  1.00  0.00     0.188 HD
HETATM    7  C   UNK N   1      34.057  16.590   9.120  0.00  0.00     0.132 A 
HETATM    8  H   UNK N   1      33.856  14.514   9.361  0.00  0.00     0.169 HD
ENDROOT
BRANCH   1   9
HETATM    9  C   UNK N   1      35.270  14.588  11.760  0.00  0.00     0.009 A 
HETATM   10  C   UNK N   1      36.002  14.943  12.901  0.00  0.00     0.018 A 
HETATM   11  C   UNK N   1      36.384  13.974  13.827  0.00  0.00     0.043 A 
HETATM   12  C   UNK N   1      36.037  12.639  13.620  0.00  0.00     0.116 A 
HETATM   13  C   UNK N   1      35.306  12.273  12.483  0.00  0.00     0.043 A 
HETATM   14  F   UNK N   1      36.410  11.701  14.521  0.00  0.00    -0.206 F 
HETATM   15  C   UNK N   1      34.921  13.247  11.551  0.00  0.00     0.018 A 
ENDBRANCH   1   9
BRANCH   7  16
HETATM   16  C   UNK N   1      33.350  16.802   7.851  0.00  0.00     0.009 A 
HETATM   17  C   UNK N   1      31.975  16.532   7.781  0.00  0.00     0.015 A 
HETATM   18  C   UNK N   1      31.276  16.724   6.588  0.00  0.00     0.001 A 
HETATM   19  C   UNK N   1      31.949  17.188   5.456  0.00  0.00     0.000 A 
HETATM   20  C   UNK N   1      33.320  17.459   5.518  0.00  0.00     0.001 A 
HETATM   21  C   UNK N   1      34.022  17.267   6.713  0.00  0.00     0.015 A 
ENDBRANCH   7  16
TORSDOF 2
ENDMDL
MODEL 7
REMARK VINA RESULT:      -6.6     19.328     21.664
REMARK  2 active torsions:
REMARK  status: ('A' for Active; 'I' for Inactive)
REMARK    1  A    between atoms: C_8  and  C_7 
REMARK    2  A    between atoms: C_15  and  C_14 
ROOT
HETATM    1  C   UNK N   1      28.037  23.981  -3.536  0.00  0.00     0.132 A 
HETATM    2  N   UNK N   1      29.011  23.375  -4.234  0.00  0.00    -0.325 N 
HETATM    3  N   UNK N   1      28.081  23.645  -2.232  0.00  0.00    -0.283 N 
ATOM      4  HN  UNK N   1      27.451  23.971  -1.498  1.00  0.00     0.188 HD
HETATM    5  N   UNK N   1      29.099  22.809  -2.085  0.00  0.00    -0.283 N 
ATOM      6  HN  UNK N   1      29.403  22.369  -1.217  1.00  0.00     0.188 HD
HETATM    7  C   UNK N   1      29.656  22.653  -3.303  0.00  0.00     0.132 A 
HETATM    8  H   UNK N   1      29.207  23.444  -5.196  0.00  0.00     0.169 HD
ENDROOT
BRANCH   1   9
HETATM    9  C   UNK N   1      27.064  24.891  -4.158  0.00  0.00     0.009 A 
HETATM   10  C   UNK N   1      26.441  24.504  -5.352  0.00  0.00     0.018 A 
HETATM   11  C   UNK N   1      25.514  25.341  -5.970  0.00  0.00     0.043 A 
HETATM   12  C   UNK N   1      25.201  26.574  -5.397  0.00  0.00     0.116 A 
HETATM   13  C   UNK N   1      25.818  26.970  -4.204  0.00  0.00     0.043 A 
HETATM   14  F   UNK N   1      24.300  27.384  -6.000  0.00  0.00    -0.206 F 
HETATM   15  C   UNK N   1      26.751  26.129  -3.582  0.00  0.00     0.018 A 
ENDBRANCH   1   9
BRANCH   7  16
HETATM   16  C   UNK N   1      30.817  21.810  -3.612  0.00  0.00     0.009 A 
HETATM   17  C   UNK N   1      30.736  20.897  -4.674  0.00  0.00     0.015 A 
HETATM   18  C   UNK N   1      31.824  20.082  -4.991  0.00  0.00     0.001 A 
HETATM   19  C   UNK N   1      33.002  20.175  -4.247  0.00  0.00     0.000 A 
HETATM   20  C   UNK N   1      33.090  21.083  -3.187  0.00  0.00     0.001 A 
HETATM   21  C   UNK N   1      32.000  21.900  -2.868  0.00  0.00     0.015 A 
ENDBRANCH   7  16
TORSDOF 2
ENDMDL
MODEL 8
REMARK VINA RESULT:      -6.5     10.753     13.575
REMARK  2 active torsions:
REMARK  status: ('A' for Active; 'I' for Inactive)
REMARK    1  A    between atoms: C_8  and  C_7 
REMARK    2  A    between atoms: C_15  and  C_14 
ROOT
HETATM    1  C   UNK N   1      26.309  19.187   4.497  0.00  0.00     0.132 A 
HETATM    2  N   UNK N   1      26.614  18.745   5.727  0.00  0.00    -0.325 N 
HETATM    3  N   UNK N   1      27.417  19.420   3.767  0.00  0.00    -0.283 N 
ATOM      4  HN  UNK N   1      27.452  19.759   2.805  1.00  0.00     0.188 HD
HETATM    5  N   UNK N   1      28.454  19.124   4.538  0.00  0.00    -0.283 N 
ATOM      6  HN  UNK N   1      29.439  19.192   4.284  1.00  0.00     0.188 HD
HETATM    7  C   UNK N   1      27.957  18.717   5.723  0.00  0.00     0.132 A 
HETATM    8  H   UNK N   1      26.001  18.501   6.458  0.00  0.00     0.169 HD
ENDROOT
BRANCH   1   9
HETATM    9  C   UNK N   1      24.924  19.378   4.043  0.00  0.00     0.009 A 
HETATM   10  C   UNK N   1      24.636  20.439   3.174  0.00  0.00     0.018 A 
HETATM   11  C   UNK N   1      23.334  20.651   2.723  0.00  0.00     0.043 A 
HETATM   12  C   UNK N   1      22.309  19.801   3.138  0.00  0.00     0.116 A 
HETATM   13  C   UNK N   1      22.586  18.738   4.006  0.00  0.00     0.043 A 
HETATM   14  F   UNK N   1      21.046  20.010   2.698  0.00  0.00    -0.206 F 
HETATM   15  C   UNK N   1      23.894  18.525   4.460  0.00  0.00     0.018 A 
ENDBRANCH   1   9
BRANCH   7  16
HETATM   16  C   UNK N   1      28.748  18.289   6.883  0.00  0.00     0.009 A 
HETATM   17  C   UNK N   1      29.793  17.372   6.697  0.00  0.00     0.015 A 
HETATM   18  C   UNK N   1      30.563  16.947   7.781  0.00  0.00     0.001 A 
HETATM   19  C   UNK N   1      30.292  17.438   9.060  0.00  0.00     0.000 A 
HETATM   20  C   UNK N   1      29.252  18.353   9.253  0.00  0.00     0.001 A 
HETATM   21  C   UNK N   1      28.479  18.779   8.168  0.00  0.00     0.015 A 
ENDBRANCH   7  16
TORSDOF 2
ENDMDL
MODEL 9
REMARK VINA RESULT:      -6.4      3.098      7.417
REMARK  2 active torsions:
REMARK  status: ('A' for Active; 'I' for Inactive)
REMARK    1  A    between atoms: C_8  and  C_7 
REMARK    2  A    between atoms: C_15  and  C_14 
ROOT
HETATM    1  C   UNK N   1      35.606  14.798  12.060  0.00  0.00     0.132 A 
HETATM    2  N   UNK N   1      34.472  14.939  11.355  0.00  0.00    -0.325 N 
HETATM    3  N   UNK N   1      36.598  15.562  11.560  0.00  0.00    -0.283 N 
ATOM      4  HN  UNK N   1      37.551  15.631  11.916  1.00  0.00     0.188 HD
HETATM    5  N   UNK N   1      36.096  16.206  10.515  0.00  0.00    -0.283 N 
ATOM      6  HN  UNK N   1      36.589  16.866   9.914  1.00  0.00     0.188 HD
HETATM    7  C   UNK N   1      34.808  15.822  10.400  0.00  0.00     0.132 A 
HETATM    8  H   UNK N   1      33.603  14.501  11.502  0.00  0.00     0.169 HD
ENDROOT
BRANCH   1   9
HETATM    9  C   UNK N   1      35.710  13.911  13.226  0.00  0.00     0.009 A 
HETATM   10  C   UNK N   1      36.543  14.283  14.290  0.00  0.00     0.018 A 
HETATM   11  C   UNK N   1      36.666  13.466  15.412  0.00  0.00     0.043 A 
HETATM   12  C   UNK N   1      35.955  12.267  15.480  0.00  0.00     0.116 A 
HETATM   13  C   UNK N   1      35.120  11.886  14.423  0.00  0.00     0.043 A 
HETATM   14  F   UNK N   1      36.077  11.476  16.572  0.00  0.00    -0.206 F 
HETATM   15  C   UNK N   1      34.996  12.707  13.294  0.00  0.00     0.018 A 
ENDBRANCH   1   9
BRANCH   7  16
HETATM   16  C   UNK N   1      33.865  16.286   9.376  0.00  0.00     0.009 A 
HETATM   17  C   UNK N   1      34.111  17.501   8.719  0.00  0.00     0.015 A 
HETATM   18  C   UNK N   1      33.231  17.968   7.741  0.00  0.00     0.001 A 
HETATM   19  C   UNK N   1      32.098  17.221   7.413  0.00  0.00     0.000 A 
HETATM   20  C   UNK N   1      31.845  16.009   8.064  0.00  0.00     0.001 A 
HETATM   21  C   UNK N   1      32.727  15.540   9.044  0.00  0.00     0.015 A 
ENDBRANCH   7  16
TORSDOF 2
ENDMDL
