MODEL 1
REMARK VINA RESULT:      -7.5      0.000      0.000
REMARK  4 active torsions:
REMARK  status: ('A' for Active; 'I' for Inactive)
REMARK    1  A    between atoms: C_5  and  C_6 
REMARK    2  A    between atoms: C_7  and  C_6 
REMARK       I    between atoms: C_7  and  N_9 
REMARK    3  A    between atoms: C_14  and  C_15 
REMARK    4  A    between atoms: C_22  and  C_21 
ROOT
HETATM    1  C   UNK N   1      27.808  19.481   6.240  0.00  0.00     0.224 C 
HETATM    2  O   UNK N   1      27.290  20.437   6.798  0.00  0.00    -0.273 OA
HETATM    3  N   UNK N   1      28.440  18.520   6.970  0.00  0.00    -0.352 N 
HETATM    4  C   UNK N   1      28.593  18.656   8.403  0.00  0.00     0.126 C 
HETATM    5  C   UNK N   1      30.090  18.659   8.732  0.00  0.00     0.033 C 
HETATM    6  C   UNK N   1      29.020  17.360   6.329  0.00  0.00     0.126 C 
HETATM    7  C   UNK N   1      30.504  17.289   6.657  0.00  0.00     0.033 C 
HETATM    8  C   UNK N   1      30.725  17.385   8.172  0.00  0.00     0.066 C 
ENDROOT
BRANCH   8   9
HETATM    9  C   UNK N   1      32.184  17.270   8.492  0.00  0.00     0.152 A 
HETATM   10  O   UNK N   1      33.073  18.218   8.307  0.00  0.00    -0.222 OA
HETATM   11  N   UNK N   1      34.219  17.842   8.794  0.00  0.00    -0.242 N 
HETATM   12  C   UNK N   1      34.009  16.614   9.309  0.00  0.00     0.144 A 
ATOM     13  HN  UNK N   1      35.094  18.365   8.787  1.00  0.00     0.196 HD
HETATM   14  N   UNK N   1      32.736  16.221   9.132  0.00  0.00    -0.322 N 
ATOM     15  HN  UNK N   1      32.296  15.345   9.414  1.00  0.00     0.169 HD
BRANCH  12  16
HETATM   16  C   UNK N   1      34.998  15.844  10.066  0.00  0.00     0.050 A 
HETATM   17  C   UNK N   1      35.269  15.944  11.428  0.00  0.00     0.023 A 
HETATM   18  C   UNK N   1      36.242  14.999  11.866  0.00  0.00     0.009 A 
HETATM   19  C   UNK N   1      36.725  14.160  10.849  0.00  0.00     0.050 A 
HETATM   20  S   UNK N   1      35.935  14.622   9.466  0.00  0.00    -0.098 SA
ENDBRANCH  12  16
ENDBRANCH   8   9
BRANCH   1  21
HETATM   21  C   UNK N   1      27.787  19.414   4.738  0.00  0.00     0.149 C 
BRANCH  21  22
HETATM   22  C   UNK N   1      26.438  19.666   4.162  0.00  0.00    -0.009 A 
HETATM   23  S   UNK N   1      25.056  18.883   4.608  0.00  0.00    -0.106 SA
HETATM   24  C   UNK N   1      23.978  19.591   3.566  0.00  0.00     0.050 A 
HETATM   25  C   UNK N   1      24.722  20.505   2.803  0.00  0.00     0.008 A 
HETATM   26  C   UNK N   1      26.108  20.544   3.133  0.00  0.00     0.015 A 
ENDBRANCH  21  22
ENDBRANCH   1  21
TORSDOF 4
ENDMDL
MODEL 2
REMARK VINA RESULT:      -7.2      1.787      9.986
REMARK  4 active torsions:
REMARK  status: ('A' for Active; 'I' for Inactive)
REMARK    1  A    between atoms: C_5  and  C_6 
REMARK    2  A    between atoms: C_7  and  C_6 
REMARK       I    between atoms: C_7  and  N_9 
REMARK    3  A    between atoms: C_14  and  C_15 
REMARK    4  A    between atoms: C_22  and  C_21 
ROOT
HETATM    1  C   UNK N   1      35.112  16.407  10.357  0.00  0.00     0.224 C 
HETATM    2  O   UNK N   1      35.884  17.347  10.484  0.00  0.00    -0.273 OA
HETATM    3  N   UNK N   1      34.270  16.350   9.288  0.00  0.00    -0.352 N 
HETATM    4  C   UNK N   1      34.203  17.438   8.336  0.00  0.00     0.126 C 
HETATM    5  C   UNK N   1      32.773  17.987   8.327  0.00  0.00     0.033 C 
HETATM    6  C   UNK N   1      33.382  15.223   9.100  0.00  0.00     0.126 C 
HETATM    7  C   UNK N   1      31.944  15.716   9.042  0.00  0.00     0.033 C 
HETATM    8  C   UNK N   1      31.804  16.845   8.013  0.00  0.00     0.066 C 
ENDROOT
BRANCH   8   9
HETATM    9  C   UNK N   1      30.377  17.297   7.928  0.00  0.00     0.152 A 
HETATM   10  O   UNK N   1      29.513  17.253   8.915  0.00  0.00    -0.222 OA
HETATM   11  N   UNK N   1      28.404  17.825   8.549  0.00  0.00    -0.242 N 
HETATM   12  C   UNK N   1      28.613  18.245   7.285  0.00  0.00     0.144 A 
ATOM     13  HN  UNK N   1      27.553  17.932   9.102  1.00  0.00     0.196 HD
HETATM   14  N   UNK N   1      29.847  17.925   6.861  0.00  0.00    -0.322 N 
ATOM     15  HN  UNK N   1      30.276  18.111   5.955  1.00  0.00     0.169 HD
BRANCH  12  16
HETATM   16  C   UNK N   1      27.668  19.047   6.505  0.00  0.00     0.050 A 
HETATM   17  C   UNK N   1      27.418  20.409   6.642  0.00  0.00     0.023 A 
HETATM   18  C   UNK N   1      26.492  20.898   5.675  0.00  0.00     0.009 A 
HETATM   19  C   UNK N   1      26.025  19.922   4.782  0.00  0.00     0.050 A 
HETATM   20  S   UNK N   1      26.771  18.508   5.225  0.00  0.00    -0.098 SA
ENDBRANCH  12  16
ENDBRANCH   8   9
BRANCH   1  21
HETATM   21  C   UNK N   1      35.068  15.351  11.426  0.00  0.00     0.149 C 
BRANCH  21  22
HETATM   22  C   UNK N   1      36.185  14.372  11.325  0.00  0.00    -0.009 A 
HETATM   23  S   UNK N   1      37.175  14.196  10.018  0.00  0.00    -0.106 SA
HETATM   24  C   UNK N   1      38.122  12.940  10.543  0.00  0.00     0.050 A 
HETATM   25  C   UNK N   1      37.652  12.614  11.825  0.00  0.00     0.008 A 
HETATM   26  C   UNK N   1      36.559  13.415  12.265  0.00  0.00     0.015 A 
ENDBRANCH  21  22
ENDBRANCH   1  21
TORSDOF 4
ENDMDL
MODEL 3
REMARK VINA RESULT:      -7.1      3.563     10.790
REMARK  4 active torsions:
REMARK  status: ('A' for Active; 'I' for Inactive)
REMARK    1  A    between atoms: C_5  and  C_6 
REMARK    2  A    between atoms: C_7  and  C_6 
REMARK       I    between atoms: C_7  and  N_9 
REMARK    3  A    between atoms: C_14  and  C_15 
REMARK    4  A    between atoms: C_22  and  C_21 
ROOT
HETATM    1  C   UNK N   1      35.835  13.930  13.131  0.00  0.00     0.224 C 
HETATM    2  O   UNK N   1      36.500  14.543  13.953  0.00  0.00    -0.273 OA
HETATM    3  N   UNK N   1      35.815  14.329  11.829  0.00  0.00    -0.352 N 
HETATM    4  C   UNK N   1      36.499  15.535  11.411  0.00  0.00     0.126 C 
HETATM    5  C   UNK N   1      35.464  16.496  10.814  0.00  0.00     0.033 C 
HETATM    6  C   UNK N   1      35.069  13.589  10.835  0.00  0.00     0.126 C 
HETATM    7  C   UNK N   1      34.051  14.508  10.177  0.00  0.00     0.033 C 
HETATM    8  C   UNK N   1      34.729  15.789   9.674  0.00  0.00     0.066 C 
ENDROOT
BRANCH   8   9
HETATM    9  C   UNK N   1      33.730  16.671   8.988  0.00  0.00     0.152 A 
HETATM   10  O   UNK N   1      33.982  17.429   7.947  0.00  0.00    -0.222 OA
HETATM   11  N   UNK N   1      32.879  17.973   7.526  0.00  0.00    -0.242 N 
HETATM   12  C   UNK N   1      31.912  17.512   8.344  0.00  0.00     0.144 A 
ATOM     13  HN  UNK N   1      32.768  18.616   6.742  1.00  0.00     0.196 HD
HETATM   14  N   UNK N   1      32.415  16.690   9.280  0.00  0.00    -0.322 N 
ATOM     15  HN  UNK N   1      31.923  16.201  10.028  1.00  0.00     0.169 HD
BRANCH  12  16
HETATM   16  C   UNK N   1      30.481  17.773   8.176  0.00  0.00     0.050 A 
HETATM   17  C   UNK N   1      29.667  18.531   9.013  0.00  0.00     0.023 A 
HETATM   18  C   UNK N   1      28.333  18.647   8.525  0.00  0.00     0.009 A 
HETATM   19  C   UNK N   1      28.108  17.987   7.307  0.00  0.00     0.050 A 
HETATM   20  S   UNK N   1      29.556  17.292   6.893  0.00  0.00    -0.098 SA
ENDBRANCH  12  16
ENDBRANCH   8   9
BRANCH   1  21
HETATM   21  C   UNK N   1      35.000  12.768  13.590  0.00  0.00     0.149 C 
BRANCH  21  22
HETATM   22  C   UNK N   1      35.255  12.390  15.006  0.00  0.00    -0.009 A 
HETATM   23  S   UNK N   1      36.268  11.184  15.498  0.00  0.00    -0.106 SA
HETATM   24  C   UNK N   1      36.041  11.270  17.138  0.00  0.00     0.050 A 
HETATM   25  C   UNK N   1      35.112  12.302  17.345  0.00  0.00     0.008 A 
HETATM   26  C   UNK N   1      34.664  12.929  16.146  0.00  0.00     0.015 A 
ENDBRANCH  21  22
ENDBRANCH   1  21
TORSDOF 4
ENDMDL
MODEL 4
REMARK VINA RESULT:      -7.1      4.633      6.274
REMARK  4 active torsions:
REMARK  status: ('A' for Active; 'I' for Inactive)
REMARK    1  A    between atoms: C_5  and  C_6 
REMARK    2  A    between atoms: C_7  and  C_6 
REMARK       I    between atoms: C_7  and  N_9 
REMARK    3  A    between atoms: C_14  and  C_15 
REMARK    4  A    between atoms: C_22  and  C_21 
ROOT
HETATM    1  C   UNK N   1      34.117  16.758   6.740  0.00  0.00     0.224 C 
HETATM    2  O   UNK N   1      34.515  17.899   6.554  0.00  0.00    -0.273 OA
HETATM    3  N   UNK N   1      33.788  16.342   7.994  0.00  0.00    -0.352 N 
HETATM    4  C   UNK N   1      33.990  17.203   9.140  0.00  0.00     0.126 C 
HETATM    5  C   UNK N   1      34.956  16.507  10.105  0.00  0.00     0.033 C 
HETATM    6  C   UNK N   1      33.274  15.009   8.226  0.00  0.00     0.126 C 
HETATM    7  C   UNK N   1      34.174  14.283   9.212  0.00  0.00     0.033 C 
HETATM    8  C   UNK N   1      34.390  15.134  10.471  0.00  0.00     0.066 C 
ENDROOT
BRANCH   8   9
HETATM    9  C   UNK N   1      35.242  14.395  11.458  0.00  0.00     0.152 A 
HETATM   10  O   UNK N   1      36.554  14.401  11.475  0.00  0.00    -0.222 OA
HETATM   11  N   UNK N   1      36.980  13.759  12.523  0.00  0.00    -0.242 N 
HETATM   12  C   UNK N   1      35.871  13.357  13.176  0.00  0.00     0.144 A 
ATOM     13  HN  UNK N   1      37.949  13.594  12.793  1.00  0.00     0.196 HD
HETATM   14  N   UNK N   1      34.757  13.738  12.530  0.00  0.00    -0.322 N 
ATOM     15  HN  UNK N   1      33.784  13.572  12.787  1.00  0.00     0.169 HD
BRANCH  12  16
HETATM   16  C   UNK N   1      35.866  12.690  14.480  0.00  0.00     0.050 A 
HETATM   17  C   UNK N   1      35.061  13.001  15.572  0.00  0.00     0.023 A 
HETATM   18  C   UNK N   1      35.254  12.110  16.669  0.00  0.00     0.009 A 
HETATM   19  C   UNK N   1      36.202  11.103  16.430  0.00  0.00     0.050 A 
HETATM   20  S   UNK N   1      36.756  11.359  14.887  0.00  0.00    -0.098 SA
ENDBRANCH  12  16
ENDBRANCH   8   9
BRANCH   1  21
HETATM   21  C   UNK N   1      34.053  15.810   5.575  0.00  0.00     0.149 C 
BRANCH  21  22
HETATM   22  C   UNK N   1      32.947  16.122   4.630  0.00  0.00    -0.009 A 
HETATM   23  S   UNK N   1      31.361  15.732   4.864  0.00  0.00    -0.106 SA
HETATM   24  C   UNK N   1      30.713  16.306   3.449  0.00  0.00     0.050 A 
HETATM   25  C   UNK N   1      31.788  16.844   2.724  0.00  0.00     0.008 A 
HETATM   26  C   UNK N   1      33.047  16.736   3.384  0.00  0.00     0.015 A 
ENDBRANCH  21  22
ENDBRANCH   1  21
TORSDOF 4
ENDMDL
MODEL 5
REMARK VINA RESULT:      -7.0      1.633      9.745
REMARK  4 active torsions:
REMARK  status: ('A' for Active; 'I' for Inactive)
REMARK    1  A    between atoms: C_5  and  C_6 
REMARK    2  A    between atoms: C_7  and  C_6 
REMARK       I    between atoms: C_7  and  N_9 
REMARK    3  A    between atoms: C_14  and  C_15 
REMARK    4  A    between atoms: C_22  and  C_21 
ROOT
HETATM    1  C   UNK N   1      33.450  17.547   7.003  0.00  0.00     0.224 C 
HETATM    2  O   UNK N   1      34.204  17.736   6.060  0.00  0.00    -0.273 OA
HETATM    3  N   UNK N   1      32.190  17.076   6.790  0.00  0.00    -0.352 N 
HETATM    4  C   UNK N   1      31.686  16.880   5.447  0.00  0.00     0.126 C 
HETATM    5  C   UNK N   1      30.449  17.765   5.261  0.00  0.00     0.033 C 
HETATM    6  C   UNK N   1      31.300  16.804   7.898  0.00  0.00     0.126 C 
HETATM    7  C   UNK N   1      30.031  17.628   7.742  0.00  0.00     0.033 C 
HETATM    8  C   UNK N   1      29.427  17.426   6.346  0.00  0.00     0.066 C 
ENDROOT
BRANCH   8   9
HETATM    9  C   UNK N   1      28.153  18.206   6.214  0.00  0.00     0.152 A 
HETATM   10  O   UNK N   1      27.821  19.238   6.953  0.00  0.00    -0.222 OA
HETATM   11  N   UNK N   1      26.714  19.755   6.507  0.00  0.00    -0.242 N 
HETATM   12  C   UNK N   1      26.368  19.007   5.440  0.00  0.00     0.144 A 
ATOM     13  HN  UNK N   1      26.212  20.558   6.885  1.00  0.00     0.196 HD
HETATM   14  N   UNK N   1      27.253  18.018   5.229  0.00  0.00    -0.322 N 
ATOM     15  HN  UNK N   1      27.245  17.301   4.503  1.00  0.00     0.169 HD
BRANCH  12  16
HETATM   16  C   UNK N   1      25.242  19.292   4.549  0.00  0.00     0.050 A 
HETATM   17  C   UNK N   1      23.967  18.736   4.613  0.00  0.00     0.023 A 
HETATM   18  C   UNK N   1      23.080  19.283   3.640  0.00  0.00     0.009 A 
HETATM   19  C   UNK N   1      23.659  20.267   2.824  0.00  0.00     0.050 A 
HETATM   20  S   UNK N   1      25.230  20.414   3.336  0.00  0.00    -0.098 SA
ENDBRANCH  12  16
ENDBRANCH   8   9
BRANCH   1  21
HETATM   21  C   UNK N   1      33.915  17.896   8.389  0.00  0.00     0.149 C 
BRANCH  21  22
HETATM   22  C   UNK N   1      34.693  16.804   9.035  0.00  0.00    -0.009 A 
HETATM   23  S   UNK N   1      34.932  15.303   8.394  0.00  0.00    -0.106 SA
HETATM   24  C   UNK N   1      35.805  14.604   9.618  0.00  0.00     0.050 A 
HETATM   25  C   UNK N   1      35.931  15.588  10.612  0.00  0.00     0.008 A 
HETATM   26  C   UNK N   1      35.300  16.825  10.288  0.00  0.00     0.015 A 
ENDBRANCH  21  22
ENDBRANCH   1  21
TORSDOF 4
ENDMDL
MODEL 6
REMARK VINA RESULT:      -6.8      5.695     12.135
REMARK  4 active torsions:
REMARK  status: ('A' for Active; 'I' for Inactive)
REMARK    1  A    between atoms: C_5  and  C_6 
REMARK    2  A    between atoms: C_7  and  C_6 
REMARK       I    between atoms: C_7  and  N_9 
REMARK    3  A    between atoms: C_14  and  C_15 
REMARK    4  A    between atoms: C_22  and  C_21 
ROOT
HETATM    1  C   UNK N   1      36.467  10.312  15.248  0.00  0.00     0.224 C 
HETATM    2  O   UNK N   1      37.627  10.118  15.580  0.00  0.00    -0.273 OA
HETATM    3  N   UNK N   1      36.174  10.709  13.979  0.00  0.00    -0.352 N 
HETATM    4  C   UNK N   1      37.227  10.999  13.029  0.00  0.00     0.126 C 
HETATM    5  C   UNK N   1      37.090  12.460  12.586  0.00  0.00     0.033 C 
HETATM    6  C   UNK N   1      34.803  10.900  13.556  0.00  0.00     0.126 C 
HETATM    7  C   UNK N   1      34.619  12.327  13.065  0.00  0.00     0.033 C 
HETATM    8  C   UNK N   1      35.686  12.678  12.020  0.00  0.00     0.066 C 
ENDROOT
BRANCH   8   9
HETATM    9  C   UNK N   1      35.473  14.071  11.507  0.00  0.00     0.152 A 
HETATM   10  O   UNK N   1      36.244  15.098  11.774  0.00  0.00    -0.222 OA
HETATM   11  N   UNK N   1      35.852  16.128  11.084  0.00  0.00    -0.242 N 
HETATM   12  C   UNK N   1      34.801  15.699  10.357  0.00  0.00     0.144 A 
ATOM     13  HN  UNK N   1      36.254  17.065  11.091  1.00  0.00     0.196 HD
HETATM   14  N   UNK N   1      34.533  14.405  10.603  0.00  0.00    -0.322 N 
ATOM     15  HN  UNK N   1      33.798  13.821  10.203  1.00  0.00     0.169 HD
BRANCH  12  16
HETATM   16  C   UNK N   1      34.106  16.494   9.343  0.00  0.00     0.050 A 
HETATM   17  C   UNK N   1      34.561  17.665   8.744  0.00  0.00     0.023 A 
HETATM   18  C   UNK N   1      33.672  18.152   7.742  0.00  0.00     0.009 A 
HETATM   19  C   UNK N   1      32.530  17.358   7.553  0.00  0.00     0.050 A 
HETATM   20  S   UNK N   1      32.668  16.102   8.628  0.00  0.00    -0.098 SA
ENDBRANCH  12  16
ENDBRANCH   8   9
BRANCH   1  21
HETATM   21  C   UNK N   1      35.380  10.161  16.275  0.00  0.00     0.149 C 
BRANCH  21  22
HETATM   22  C   UNK N   1      35.340  11.285  17.250  0.00  0.00    -0.009 A 
HETATM   23  S   UNK N   1      35.414  11.120  18.890  0.00  0.00    -0.106 SA
HETATM   24  C   UNK N   1      35.267  12.707  19.345  0.00  0.00     0.050 A 
HETATM   25  C   UNK N   1      35.148  13.440  18.153  0.00  0.00     0.008 A 
HETATM   26  C   UNK N   1      35.182  12.640  16.974  0.00  0.00     0.015 A 
ENDBRANCH  21  22
ENDBRANCH   1  21
TORSDOF 4
ENDMDL
MODEL 7
REMARK VINA RESULT:      -6.7      5.476     11.323
REMARK  4 active torsions:
REMARK  status: ('A' for Active; 'I' for Inactive)
REMARK    1  A    between atoms: C_5  and  C_6 
REMARK    2  A    between atoms: C_7  and  C_6 
REMARK       I    between atoms: C_7  and  N_9 
REMARK    3  A    between atoms: C_14  and  C_15 
REMARK    4  A    between atoms: C_22  and  C_21 
ROOT
HETATM    1  C   UNK N   1      35.076  12.740  14.759  0.00  0.00     0.224 C 
HETATM    2  O   UNK N   1      35.206  13.294  15.841  0.00  0.00    -0.273 OA
HETATM    3  N   UNK N   1      35.708  13.231  13.657  0.00  0.00    -0.352 N 
HETATM    4  C   UNK N   1      36.466  14.463  13.722  0.00  0.00     0.126 C 
HETATM    5  C   UNK N   1      35.846  15.464  12.740  0.00  0.00     0.033 C 
HETATM    6  C   UNK N   1      35.601  12.563  12.378  0.00  0.00     0.126 C 
HETATM    7  C   UNK N   1      35.029  13.526  11.350  0.00  0.00     0.033 C 
HETATM    8  C   UNK N   1      35.822  14.840  11.344  0.00  0.00     0.066 C 
ENDROOT
BRANCH   8   9
HETATM    9  C   UNK N   1      35.281  15.768  10.298  0.00  0.00     0.152 A 
HETATM   10  O   UNK N   1      35.353  17.078  10.343  0.00  0.00    -0.222 OA
HETATM   11  N   UNK N   1      34.897  17.578   9.233  0.00  0.00    -0.242 N 
HETATM   12  C   UNK N   1      34.544  16.519   8.476  0.00  0.00     0.144 A 
ATOM     13  HN  UNK N   1      34.821  18.564   8.986  1.00  0.00     0.196 HD
HETATM   14  N   UNK N   1      34.770  15.362   9.120  0.00  0.00    -0.322 N 
ATOM     15  HN  UNK N   1      34.597  14.410   8.797  1.00  0.00     0.169 HD
BRANCH  12  16
HETATM   16  C   UNK N   1      34.081  16.600   7.090  0.00  0.00     0.050 A 
HETATM   17  C   UNK N   1      33.416  17.667   6.494  0.00  0.00     0.023 A 
HETATM   18  C   UNK N   1      33.168  17.455   5.106  0.00  0.00     0.009 A 
HETATM   19  C   UNK N   1      33.646  16.228   4.619  0.00  0.00     0.050 A 
HETATM   20  S   UNK N   1      34.344  15.466   5.917  0.00  0.00    -0.098 SA
ENDBRANCH  12  16
ENDBRANCH   8   9
BRANCH   1  21
HETATM   21  C   UNK N   1      34.166  11.549  14.654  0.00  0.00     0.149 C 
BRANCH  21  22
HETATM   22  C   UNK N   1      34.768  10.304  15.205  0.00  0.00    -0.009 A 
HETATM   23  S   UNK N   1      35.505   9.131  14.309  0.00  0.00    -0.106 SA
HETATM   24  C   UNK N   1      35.881   8.049  15.508  0.00  0.00     0.050 A 
HETATM   25  C   UNK N   1      35.407   8.617  16.701  0.00  0.00     0.008 A 
HETATM   26  C   UNK N   1      34.776   9.883  16.532  0.00  0.00     0.015 A 
ENDBRANCH  21  22
ENDBRANCH   1  21
TORSDOF 4
ENDMDL
MODEL 8
REMARK VINA RESULT:      -6.7      3.994      9.942
REMARK  4 active torsions:
REMARK  status: ('A' for Active; 'I' for Inactive)
REMARK    1  A    between atoms: C_5  and  C_6 
REMARK    2  A    between atoms: C_7  and  C_6 
REMARK       I    between atoms: C_7  and  N_9 
REMARK    3  A    between atoms: C_14  and  C_15 
REMARK    4  A    between atoms: C_22  and  C_21 
ROOT
HETATM    1  C   UNK N   1      36.365  12.338  12.568  0.00  0.00     0.224 C 
HETATM    2  O   UNK N   1      35.958  12.205  13.713  0.00  0.00    -0.273 OA
HETATM    3  N   UNK N   1      36.609  13.581  12.066  0.00  0.00    -0.352 N 
HETATM    4  C   UNK N   1      36.305  14.767  12.839  0.00  0.00     0.126 C 
HETATM    5  C   UNK N   1      35.285  15.604  12.059  0.00  0.00     0.033 C 
HETATM    6  C   UNK N   1      37.132  13.754  10.729  0.00  0.00     0.126 C 
HETATM    7  C   UNK N   1      36.177  14.616   9.918  0.00  0.00     0.033 C 
HETATM    8  C   UNK N   1      35.851  15.912  10.672  0.00  0.00     0.066 C 
ENDROOT
BRANCH   8   9
HETATM    9  C   UNK N   1      34.945  16.777   9.849  0.00  0.00     0.152 A 
HETATM   10  O   UNK N   1      35.289  17.915   9.293  0.00  0.00    -0.222 OA
HETATM   11  N   UNK N   1      34.311  18.353   8.556  0.00  0.00    -0.242 N 
HETATM   12  C   UNK N   1      33.335  17.429   8.662  0.00  0.00     0.144 A 
ATOM     13  HN  UNK N   1      34.287  19.215   8.011  1.00  0.00     0.196 HD
HETATM   14  N   UNK N   1      33.700  16.423   9.474  0.00  0.00    -0.322 N 
ATOM     15  HN  UNK N   1      33.167  15.596   9.741  1.00  0.00     0.169 HD
BRANCH  12  16
HETATM   16  C   UNK N   1      32.080  17.449   7.908  0.00  0.00     0.050 A 
HETATM   17  C   UNK N   1      31.909  17.130   6.564  0.00  0.00     0.023 A 
HETATM   18  C   UNK N   1      30.544  17.181   6.156  0.00  0.00     0.009 A 
HETATM   19  C   UNK N   1      29.652  17.532   7.180  0.00  0.00     0.050 A 
HETATM   20  S   UNK N   1      30.583  17.765   8.533  0.00  0.00    -0.098 SA
ENDBRANCH  12  16
ENDBRANCH   8   9
BRANCH   1  21
HETATM   21  C   UNK N   1      36.535  11.117  11.708  0.00  0.00     0.149 C 
BRANCH  21  22
HETATM   22  C   UNK N   1      35.245  10.583  11.192  0.00  0.00    -0.009 A 
HETATM   23  S   UNK N   1      34.439  11.163   9.875  0.00  0.00    -0.106 SA
HETATM   24  C   UNK N   1      33.104  10.180   9.901  0.00  0.00     0.050 A 
HETATM   25  C   UNK N   1      33.272   9.331  11.007  0.00  0.00     0.008 A 
HETATM   26  C   UNK N   1      34.474   9.561  11.738  0.00  0.00     0.015 A 
ENDBRANCH  21  22
ENDBRANCH   1  21
TORSDOF 4
ENDMDL
MODEL 9
REMARK VINA RESULT:      -6.6      2.622      3.596
REMARK  4 active torsions:
REMARK  status: ('A' for Active; 'I' for Inactive)
REMARK    1  A    between atoms: C_5  and  C_6 
REMARK    2  A    between atoms: C_7  and  C_6 
REMARK       I    between atoms: C_7  and  N_9 
REMARK    3  A    between atoms: C_14  and  C_15 
REMARK    4  A    between atoms: C_22  and  C_21 
ROOT
HETATM    1  C   UNK N   1      31.115  16.503   5.148  0.00  0.00     0.224 C 
HETATM    2  O   UNK N   1      31.583  16.216   4.056  0.00  0.00    -0.273 OA
HETATM    3  N   UNK N   1      31.858  17.201   6.051  0.00  0.00    -0.352 N 
HETATM    4  C   UNK N   1      33.240  17.534   5.778  0.00  0.00     0.126 C 
HETATM    5  C   UNK N   1      34.115  16.893   6.861  0.00  0.00     0.033 C 
HETATM    6  C   UNK N   1      31.304  17.587   7.331  0.00  0.00     0.126 C 
HETATM    7  C   UNK N   1      32.160  17.012   8.448  0.00  0.00     0.033 C 
HETATM    8  C   UNK N   1      33.636  17.370   8.234  0.00  0.00     0.066 C 
ENDROOT
BRANCH   8   9
HETATM    9  C   UNK N   1      34.469  16.838   9.360  0.00  0.00     0.152 A 
HETATM   10  O   UNK N   1      35.297  17.551  10.087  0.00  0.00    -0.222 OA
HETATM   11  N   UNK N   1      35.773  16.819  11.051  0.00  0.00    -0.242 N 
HETATM   12  C   UNK N   1      35.194  15.610  10.907  0.00  0.00     0.144 A 
ATOM     13  HN  UNK N   1      36.444  17.099  11.766  1.00  0.00     0.196 HD
HETATM   14  N   UNK N   1      34.368  15.587   9.847  0.00  0.00    -0.322 N 
ATOM     15  HN  UNK N   1      33.803  14.812   9.497  1.00  0.00     0.169 HD
BRANCH  12  16
HETATM   16  C   UNK N   1      35.347  14.493  11.842  0.00  0.00     0.050 A 
HETATM   17  C   UNK N   1      34.921  13.182  11.652  0.00  0.00     0.023 A 
HETATM   18  C   UNK N   1      35.290  12.322  12.727  0.00  0.00     0.009 A 
HETATM   19  C   UNK N   1      36.010  12.960  13.750  0.00  0.00     0.050 A 
HETATM   20  S   UNK N   1      36.152  14.545  13.284  0.00  0.00    -0.098 SA
ENDBRANCH  12  16
ENDBRANCH   8   9
BRANCH   1  21
HETATM   21  C   UNK N   1      29.733  16.026   5.496  0.00  0.00     0.149 C 
BRANCH  21  22
HETATM   22  C   UNK N   1      28.658  16.838   4.863  0.00  0.00    -0.009 A 
HETATM   23  S   UNK N   1      27.386  16.225   4.010  0.00  0.00    -0.106 SA
HETATM   24  C   UNK N   1      26.638  17.635   3.560  0.00  0.00     0.050 A 
HETATM   25  C   UNK N   1      27.416  18.673   4.098  0.00  0.00     0.008 A 
HETATM   26  C   UNK N   1      28.557  18.226   4.826  0.00  0.00     0.015 A 
ENDBRANCH  21  22
ENDBRANCH   1  21
TORSDOF 4
ENDMDL
