REMARK  4 active torsions:
REMARK  status: ('A' for Active; 'I' for Inactive)
REMARK    1  A    between atoms: C_5  and  C_6 
REMARK    2  A    between atoms: C_7  and  C_6 
REMARK       I    between atoms: C_7  and  N_9 
REMARK    3  A    between atoms: C_14  and  C_15 
REMARK    4  A    between atoms: C_22  and  C_21 
ROOT
HETATM    1  C   UNK N   1      -0.811   2.848  -0.825  0.00  0.00     0.224 C 
HETATM    2  O   UNK N   1      -0.240   3.808  -1.322  0.00  0.00    -0.273 OA
HETATM    3  N   UNK N   1      -0.159   2.046   0.062  0.00  0.00    -0.352 N 
HETATM    4  C   UNK N   1       1.242   2.254   0.362  0.00  0.00     0.126 C 
HETATM    5  C   UNK N   1       2.012   0.985  -0.019  0.00  0.00     0.033 C 
HETATM    6  C   UNK N   1      -0.833   0.932   0.693  0.00  0.00     0.126 C 
HETATM    7  C   UNK N   1      -0.085  -0.355   0.382  0.00  0.00     0.033 C 
HETATM    8  C   UNK N   1       1.404  -0.207   0.722  0.00  0.00     0.066 C 
ENDROOT
BRANCH   8   9
HETATM    9  C   UNK N   1       2.128  -1.492   0.455  0.00  0.00     0.152 A 
HETATM   10  O   UNK N   1       3.426  -1.660   0.551  0.00  0.00    -0.222 OA
HETATM   11  N   UNK N   1       3.718  -2.914   0.369  0.00  0.00    -0.242 N 
HETATM   12  C   UNK N   1       2.539  -3.535   0.166  0.00  0.00     0.144 A 
ATOM     13  HN  UNK N   1       4.645  -3.339   0.377  1.00  0.00     0.196 HD
HETATM   14  N   UNK N   1       1.515  -2.666   0.210  0.00  0.00    -0.322 N 
ATOM     15  HN  UNK N   1       0.519  -2.850   0.088  1.00  0.00     0.169 HD
BRANCH  12  16
HETATM   16  C   UNK N   1       2.370  -4.983   0.028  0.00  0.00     0.050 A 
HETATM   17  C   UNK N   1       3.373  -5.947   0.065  0.00  0.00     0.023 A 
HETATM   18  C   UNK N   1       2.863  -7.275  -0.028  0.00  0.00     0.009 A 
HETATM   19  C   UNK N   1       1.465  -7.347  -0.130  0.00  0.00     0.050 A 
HETATM   20  S   UNK N   1       0.927  -5.778  -0.104  0.00  0.00    -0.098 SA
ENDBRANCH  12  16
ENDBRANCH   8   9
BRANCH   1  21
HETATM   21  C   UNK N   1      -2.218   2.536  -1.251  0.00  0.00     0.149 C 
BRANCH  21  22
HETATM   22  C   UNK N   1      -3.232   3.407  -0.597  0.00  0.00    -0.009 A 
HETATM   23  S   UNK N   1      -4.508   2.868   0.299  0.00  0.00    -0.106 SA
HETATM   24  C   UNK N   1      -5.233   4.314   0.664  0.00  0.00     0.050 A 
HETATM   25  C   UNK N   1      -4.446   5.304   0.054  0.00  0.00     0.008 A 
HETATM   26  C   UNK N   1      -3.323   4.795  -0.661  0.00  0.00     0.015 A 
ENDBRANCH  21  22
ENDBRANCH   1  21
TORSDOF 4
