MODEL 1
REMARK VINA RESULT:      -6.6      0.000      0.000
REMARK  7 active torsions:
REMARK  status: ('A' for Active; 'I' for Inactive)
REMARK    1  A    between atoms: C_2  and  C_5 
REMARK    2  A    between atoms: C_8  and  O_11 
REMARK    3  A    between atoms: C_12  and  O_11 
REMARK    4  A    between atoms: C_12  and  C_17 
REMARK    5  A    between atoms: C_12  and  C_13 
REMARK    6  A    between atoms: C_14  and  C_13 
REMARK    7  A    between atoms: C_14  and  N_15 
ROOT
HETATM    1  C   UNK N   1      35.762  13.482  12.506  0.00  0.00     0.163 C 
ENDROOT
BRANCH   1   2
HETATM    2  O   UNK N   1      34.581  14.088  12.098  0.00  0.00    -0.341 OA
BRANCH   2   3
HETATM    3  C   UNK N   1      34.577  14.983  11.077  0.00  0.00     0.069 A 
HETATM    4  C   UNK N   1      33.681  14.816  10.017  0.00  0.00     0.037 A 
HETATM    5  C   UNK N   1      33.546  15.818   9.050  0.00  0.00     0.019 A 
HETATM    6  C   UNK N   1      34.325  16.984   9.124  0.00  0.00     0.048 A 
HETATM    7  C   UNK N   1      35.263  17.121  10.154  0.00  0.00     0.019 A 
HETATM    8  C   UNK N   1      35.380  16.135  11.128  0.00  0.00     0.037 A 
BRANCH   6   9
HETATM    9  C   UNK N   1      34.120  18.090   8.133  0.00  0.00     0.417 C 
HETATM   10  F   UNK N   1      35.001  19.135   8.363  0.00  0.00    -0.166 F 
HETATM   11  F   UNK N   1      34.314  17.616   6.849  0.00  0.00    -0.166 F 
HETATM   12  F   UNK N   1      32.827  18.569   8.252  0.00  0.00    -0.166 F 
ENDBRANCH   6   9
ENDBRANCH   2   3
ENDBRANCH   1   2
BRANCH   1  13
HETATM   13  C   UNK N   1      35.678  13.245  14.004  0.00  0.00    -0.029 A 
HETATM   14  C   UNK N   1      36.481  13.985  14.882  0.00  0.00     0.010 A 
HETATM   15  C   UNK N   1      36.330  13.842  16.264  0.00  0.00     0.001 A 
HETATM   16  C   UNK N   1      35.370  12.965  16.778  0.00  0.00     0.000 A 
HETATM   17  C   UNK N   1      34.564  12.225  15.911  0.00  0.00     0.001 A 
HETATM   18  C   UNK N   1      34.712  12.369  14.531  0.00  0.00     0.010 A 
ENDBRANCH   1  13
BRANCH   1  19
HETATM   19  C   UNK N   1      36.037  12.197  11.720  0.00  0.00     0.056 C 
BRANCH  19  20
HETATM   20  C   UNK N   1      37.387  12.166  11.018  0.00  0.00     0.116 C 
BRANCH  20  21
HETATM   21  N   UNK N   1      38.014  13.476  11.109  0.00  0.00    -0.425 N 
HETATM   22  C   UNK N   1      38.287  13.924   9.752  0.00  0.00     0.139 C 
HETATM   23  H   UNK N   1      38.222  13.986  11.967  0.00  0.00     0.152 HD
ENDBRANCH  20  21
ENDBRANCH  19  20
ENDBRANCH   1  19
TORSDOF 7
ENDMDL
MODEL 2
REMARK VINA RESULT:      -6.4     18.124     22.019
REMARK  7 active torsions:
REMARK  status: ('A' for Active; 'I' for Inactive)
REMARK    1  A    between atoms: C_2  and  C_5 
REMARK    2  A    between atoms: C_8  and  O_11 
REMARK    3  A    between atoms: C_12  and  O_11 
REMARK    4  A    between atoms: C_12  and  C_17 
REMARK    5  A    between atoms: C_12  and  C_13 
REMARK    6  A    between atoms: C_14  and  C_13 
REMARK    7  A    between atoms: C_14  and  N_15 
ROOT
HETATM    1  C   UNK N   1      25.474  25.635  -6.727  0.00  0.00     0.163 C 
ENDROOT
BRANCH   1   2
HETATM    2  O   UNK N   1      25.486  24.590  -5.813  0.00  0.00    -0.341 OA
BRANCH   2   3
HETATM    3  C   UNK N   1      26.596  24.327  -5.075  0.00  0.00     0.069 A 
HETATM    4  C   UNK N   1      26.533  24.415  -3.681  0.00  0.00     0.037 A 
HETATM    5  C   UNK N   1      27.613  23.981  -2.904  0.00  0.00     0.019 A 
HETATM    6  C   UNK N   1      28.771  23.478  -3.516  0.00  0.00     0.048 A 
HETATM    7  C   UNK N   1      28.852  23.446  -4.913  0.00  0.00     0.019 A 
HETATM    8  C   UNK N   1      27.770  23.855  -5.686  0.00  0.00     0.037 A 
BRANCH   6   9
HETATM    9  C   UNK N   1      29.892  22.940  -2.679  0.00  0.00     0.417 C 
HETATM   10  F   UNK N   1      31.040  23.700  -2.834  0.00  0.00    -0.166 F 
HETATM   11  F   UNK N   1      29.529  22.944  -1.346  0.00  0.00    -0.166 F 
HETATM   12  F   UNK N   1      30.167  21.642  -3.073  0.00  0.00    -0.166 F 
ENDBRANCH   6   9
ENDBRANCH   2   3
ENDBRANCH   1   2
BRANCH   1  13
HETATM   13  C   UNK N   1      26.015  26.874  -6.034  0.00  0.00    -0.029 A 
HETATM   14  C   UNK N   1      27.143  27.532  -6.544  0.00  0.00     0.010 A 
HETATM   15  C   UNK N   1      27.578  28.730  -5.969  0.00  0.00     0.001 A 
HETATM   16  C   UNK N   1      26.886  29.282  -4.887  0.00  0.00     0.000 A 
HETATM   17  C   UNK N   1      25.761  28.634  -4.375  0.00  0.00     0.001 A 
HETATM   18  C   UNK N   1      25.322  27.440  -4.949  0.00  0.00     0.010 A 
ENDBRANCH   1  13
BRANCH   1  19
HETATM   19  C   UNK N   1      26.252  25.283  -7.998  0.00  0.00     0.056 C 
BRANCH  19  20
HETATM   20  C   UNK N   1      25.499  24.383  -8.967  0.00  0.00     0.116 C 
BRANCH  20  21
HETATM   21  N   UNK N   1      24.814  23.335  -8.228  0.00  0.00    -0.425 N 
HETATM   22  C   UNK N   1      25.511  22.086  -8.496  0.00  0.00     0.139 C 
HETATM   23  H   UNK N   1      23.997  23.454  -7.630  0.00  0.00     0.152 HD
ENDBRANCH  20  21
ENDBRANCH  19  20
ENDBRANCH   1  19
TORSDOF 7
ENDMDL
MODEL 3
REMARK VINA RESULT:      -6.1     13.874     15.800
REMARK  7 active torsions:
REMARK  status: ('A' for Active; 'I' for Inactive)
REMARK    1  A    between atoms: C_2  and  C_5 
REMARK    2  A    between atoms: C_8  and  O_11 
REMARK    3  A    between atoms: C_12  and  O_11 
REMARK    4  A    between atoms: C_12  and  C_17 
REMARK    5  A    between atoms: C_12  and  C_13 
REMARK    6  A    between atoms: C_14  and  C_13 
REMARK    7  A    between atoms: C_14  and  N_15 
ROOT
HETATM    1  C   UNK N   1      20.816  15.382   7.969  0.00  0.00     0.163 C 
ENDROOT
BRANCH   1   2
HETATM    2  O   UNK N   1      21.810  15.831   7.109  0.00  0.00    -0.341 OA
BRANCH   2   3
HETATM    3  C   UNK N   1      21.498  16.587   6.025  0.00  0.00     0.069 A 
HETATM    4  C   UNK N   1      20.529  16.134   5.124  0.00  0.00     0.037 A 
HETATM    5  C   UNK N   1      20.075  16.976   4.103  0.00  0.00     0.019 A 
HETATM    6  C   UNK N   1      20.605  18.268   3.961  0.00  0.00     0.048 A 
HETATM    7  C   UNK N   1      21.616  18.697   4.829  0.00  0.00     0.019 A 
HETATM    8  C   UNK N   1      22.050  17.869   5.859  0.00  0.00     0.037 A 
BRANCH   6   9
HETATM    9  C   UNK N   1      20.058  19.195   2.918  0.00  0.00     0.417 C 
HETATM   10  F   UNK N   1      18.732  18.904   2.638  0.00  0.00    -0.166 F 
HETATM   11  F   UNK N   1      20.145  20.503   3.355  0.00  0.00    -0.166 F 
HETATM   12  F   UNK N   1      20.794  19.052   1.755  0.00  0.00    -0.166 F 
ENDBRANCH   6   9
ENDBRANCH   2   3
ENDBRANCH   1   2
BRANCH   1  13
HETATM   13  C   UNK N   1      21.396  14.262   8.815  0.00  0.00    -0.029 A 
HETATM   14  C   UNK N   1      20.692  13.781   9.928  0.00  0.00     0.010 A 
HETATM   15  C   UNK N   1      21.175  12.682  10.645  0.00  0.00     0.001 A 
HETATM   16  C   UNK N   1      22.358  12.051  10.250  0.00  0.00     0.000 A 
HETATM   17  C   UNK N   1      23.064  12.522   9.141  0.00  0.00     0.001 A 
HETATM   18  C   UNK N   1      22.582  13.617   8.423  0.00  0.00     0.010 A 
ENDBRANCH   1  13
BRANCH   1  19
HETATM   19  C   UNK N   1      20.243  16.524   8.814  0.00  0.00     0.056 C 
BRANCH  19  20
HETATM   20  C   UNK N   1      18.743  16.728   8.661  0.00  0.00     0.116 C 
BRANCH  20  21
HETATM   21  N   UNK N   1      18.349  17.961   9.323  0.00  0.00    -0.425 N 
HETATM   22  C   UNK N   1      16.989  17.780   9.810  0.00  0.00     0.139 C 
HETATM   23  H   UNK N   1      18.921  18.799   9.429  0.00  0.00     0.152 HD
ENDBRANCH  20  21
ENDBRANCH  19  20
ENDBRANCH   1  19
TORSDOF 7
ENDMDL
MODEL 4
REMARK VINA RESULT:      -6.1     17.693     21.002
REMARK  7 active torsions:
REMARK  status: ('A' for Active; 'I' for Inactive)
REMARK    1  A    between atoms: C_2  and  C_5 
REMARK    2  A    between atoms: C_8  and  O_11 
REMARK    3  A    between atoms: C_12  and  O_11 
REMARK    4  A    between atoms: C_12  and  C_17 
REMARK    5  A    between atoms: C_12  and  C_13 
REMARK    6  A    between atoms: C_14  and  C_13 
REMARK    7  A    between atoms: C_14  and  N_15 
ROOT
HETATM    1  C   UNK N   1      26.598  23.903  -5.064  0.00  0.00     0.163 C 
ENDROOT
BRANCH   1   2
HETATM    2  O   UNK N   1      27.878  23.999  -5.594  0.00  0.00    -0.341 OA
BRANCH   2   3
HETATM    3  C   UNK N   1      28.906  23.293  -5.056  0.00  0.00     0.069 A 
HETATM    4  C   UNK N   1      29.391  22.164  -5.723  0.00  0.00     0.037 A 
HETATM    5  C   UNK N   1      30.555  21.532  -5.273  0.00  0.00     0.019 A 
HETATM    6  C   UNK N   1      31.228  22.010  -4.138  0.00  0.00     0.048 A 
HETATM    7  C   UNK N   1      30.707  23.105  -3.439  0.00  0.00     0.019 A 
HETATM    8  C   UNK N   1      29.563  23.749  -3.900  0.00  0.00     0.037 A 
BRANCH   6   9
HETATM    9  C   UNK N   1      32.518  21.380  -3.708  0.00  0.00     0.417 C 
HETATM   10  F   UNK N   1      32.661  21.428  -2.330  0.00  0.00    -0.166 F 
HETATM   11  F   UNK N   1      32.558  20.060  -4.115  0.00  0.00    -0.166 F 
HETATM   12  F   UNK N   1      33.572  22.068  -4.283  0.00  0.00    -0.166 F 
ENDBRANCH   6   9
ENDBRANCH   2   3
ENDBRANCH   1   2
BRANCH   1  13
HETATM   13  C   UNK N   1      26.114  25.306  -4.743  0.00  0.00    -0.029 A 
HETATM   14  C   UNK N   1      26.543  25.951  -3.575  0.00  0.00     0.010 A 
HETATM   15  C   UNK N   1      26.182  27.280  -3.331  0.00  0.00     0.001 A 
HETATM   16  C   UNK N   1      25.397  27.974  -4.255  0.00  0.00     0.000 A 
HETATM   17  C   UNK N   1      24.967  27.341  -5.423  0.00  0.00     0.001 A 
HETATM   18  C   UNK N   1      25.329  26.016  -5.669  0.00  0.00     0.010 A 
ENDBRANCH   1  13
BRANCH   1  19
HETATM   19  C   UNK N   1      25.652  23.154  -6.007  0.00  0.00     0.056 C 
BRANCH  19  20
HETATM   20  C   UNK N   1      26.136  23.068  -7.447  0.00  0.00     0.116 C 
BRANCH  20  21
HETATM   21  N   UNK N   1      25.066  23.471  -8.346  0.00  0.00    -0.425 N 
HETATM   22  C   UNK N   1      25.554  24.597  -9.128  0.00  0.00     0.139 C 
HETATM   23  H   UNK N   1      24.144  23.041  -8.417  0.00  0.00     0.152 HD
ENDBRANCH  20  21
ENDBRANCH  19  20
ENDBRANCH   1  19
TORSDOF 7
ENDMDL
MODEL 5
REMARK VINA RESULT:      -6.1      5.899      8.408
REMARK  7 active torsions:
REMARK  status: ('A' for Active; 'I' for Inactive)
REMARK    1  A    between atoms: C_2  and  C_5 
REMARK    2  A    between atoms: C_8  and  O_11 
REMARK    3  A    between atoms: C_12  and  O_11 
REMARK    4  A    between atoms: C_12  and  C_17 
REMARK    5  A    between atoms: C_12  and  C_13 
REMARK    6  A    between atoms: C_14  and  C_13 
REMARK    7  A    between atoms: C_14  and  N_15 
ROOT
HETATM    1  C   UNK N   1      31.579  16.714   5.918  0.00  0.00     0.163 C 
ENDROOT
BRANCH   1   2
HETATM    2  O   UNK N   1      30.307  16.484   6.426  0.00  0.00    -0.341 OA
BRANCH   2   3
HETATM    3  C   UNK N   1      29.380  17.476   6.450  0.00  0.00     0.069 A 
HETATM    4  C   UNK N   1      28.993  18.028   7.675  0.00  0.00     0.037 A 
HETATM    5  C   UNK N   1      28.174  19.162   7.704  0.00  0.00     0.019 A 
HETATM    6  C   UNK N   1      27.716  19.737   6.508  0.00  0.00     0.048 A 
HETATM    7  C   UNK N   1      28.058  19.147   5.286  0.00  0.00     0.019 A 
HETATM    8  C   UNK N   1      28.892  18.034   5.256  0.00  0.00     0.037 A 
BRANCH   6   9
HETATM    9  C   UNK N   1      26.906  20.998   6.541  0.00  0.00     0.417 C 
HETATM   10  F   UNK N   1      27.720  22.115   6.444  0.00  0.00    -0.166 F 
HETATM   11  F   UNK N   1      26.006  21.008   5.493  0.00  0.00    -0.166 F 
HETATM   12  F   UNK N   1      26.215  21.059   7.738  0.00  0.00    -0.166 F 
ENDBRANCH   6   9
ENDBRANCH   2   3
ENDBRANCH   1   2
BRANCH   1  13
HETATM   13  C   UNK N   1      32.530  16.892   7.089  0.00  0.00    -0.029 A 
HETATM   14  C   UNK N   1      32.570  15.939   8.116  0.00  0.00     0.010 A 
HETATM   15  C   UNK N   1      33.517  16.047   9.139  0.00  0.00     0.001 A 
HETATM   16  C   UNK N   1      34.433  17.102   9.139  0.00  0.00     0.000 A 
HETATM   17  C   UNK N   1      34.401  18.055   8.119  0.00  0.00     0.001 A 
HETATM   18  C   UNK N   1      33.459  17.947   7.095  0.00  0.00     0.010 A 
ENDBRANCH   1  13
BRANCH   1  19
HETATM   19  C   UNK N   1      32.017  15.597   4.967  0.00  0.00     0.056 C 
BRANCH  19  20
HETATM   20  C   UNK N   1      30.872  14.783   4.383  0.00  0.00     0.116 C 
BRANCH  20  21
HETATM   21  N   UNK N   1      30.542  13.690   5.284  0.00  0.00    -0.425 N 
HETATM   22  C   UNK N   1      29.920  12.642   4.489  0.00  0.00     0.139 C 
HETATM   23  H   UNK N   1      30.717  13.662   6.288  0.00  0.00     0.152 HD
ENDBRANCH  20  21
ENDBRANCH  19  20
ENDBRANCH   1  19
TORSDOF 7
ENDMDL
MODEL 6
REMARK VINA RESULT:      -6.0      6.378     10.076
REMARK  7 active torsions:
REMARK  status: ('A' for Active; 'I' for Inactive)
REMARK    1  A    between atoms: C_2  and  C_5 
REMARK    2  A    between atoms: C_8  and  O_11 
REMARK    3  A    between atoms: C_12  and  O_11 
REMARK    4  A    between atoms: C_12  and  C_17 
REMARK    5  A    between atoms: C_12  and  C_13 
REMARK    6  A    between atoms: C_14  and  C_13 
REMARK    7  A    between atoms: C_14  and  N_15 
ROOT
HETATM    1  C   UNK N   1      28.597  17.314   5.096  0.00  0.00     0.163 C 
ENDROOT
BRANCH   1   2
HETATM    2  O   UNK N   1      29.896  17.454   4.624  0.00  0.00    -0.341 OA
BRANCH   2   3
HETATM    3  C   UNK N   1      30.956  17.305   5.458  0.00  0.00     0.069 A 
HETATM    4  C   UNK N   1      32.254  17.436   4.953  0.00  0.00     0.037 A 
HETATM    5  C   UNK N   1      33.346  17.457   5.828  0.00  0.00     0.019 A 
HETATM    6  C   UNK N   1      33.149  17.322   7.211  0.00  0.00     0.048 A 
HETATM    7  C   UNK N   1      31.854  17.132   7.707  0.00  0.00     0.019 A 
HETATM    8  C   UNK N   1      30.766  17.135   6.840  0.00  0.00     0.037 A 
BRANCH   6   9
HETATM    9  C   UNK N   1      34.313  17.426   8.150  0.00  0.00     0.417 C 
HETATM   10  F   UNK N   1      35.205  16.383   7.956  0.00  0.00    -0.166 F 
HETATM   11  F   UNK N   1      34.975  18.623   7.951  0.00  0.00    -0.166 F 
HETATM   12  F   UNK N   1      33.849  17.372   9.453  0.00  0.00    -0.166 F 
ENDBRANCH   6   9
ENDBRANCH   2   3
ENDBRANCH   1   2
BRANCH   1  13
HETATM   13  C   UNK N   1      27.994  18.701   5.237  0.00  0.00    -0.029 A 
HETATM   14  C   UNK N   1      27.438  19.345   4.124  0.00  0.00     0.010 A 
HETATM   15  C   UNK N   1      26.790  20.575   4.274  0.00  0.00     0.001 A 
HETATM   16  C   UNK N   1      26.686  21.165   5.537  0.00  0.00     0.000 A 
HETATM   17  C   UNK N   1      27.235  20.528   6.652  0.00  0.00     0.001 A 
HETATM   18  C   UNK N   1      27.879  19.299   6.505  0.00  0.00     0.010 A 
ENDBRANCH   1  13
BRANCH   1  19
HETATM   19  C   UNK N   1      27.765  16.398   4.194  0.00  0.00     0.056 C 
BRANCH  19  20
HETATM   20  C   UNK N   1      28.426  15.066   3.869  0.00  0.00     0.116 C 
BRANCH  20  21
HETATM   21  N   UNK N   1      29.348  15.238   2.758  0.00  0.00    -0.425 N 
HETATM   22  C   UNK N   1      30.429  14.281   2.936  0.00  0.00     0.139 C 
HETATM   23  H   UNK N   1      29.253  15.906   1.993  0.00  0.00     0.152 HD
ENDBRANCH  20  21
ENDBRANCH  19  20
ENDBRANCH   1  19
TORSDOF 7
ENDMDL
MODEL 7
REMARK VINA RESULT:      -6.0      3.011      4.394
REMARK  7 active torsions:
REMARK  status: ('A' for Active; 'I' for Inactive)
REMARK    1  A    between atoms: C_2  and  C_5 
REMARK    2  A    between atoms: C_8  and  O_11 
REMARK    3  A    between atoms: C_12  and  O_11 
REMARK    4  A    between atoms: C_12  and  C_17 
REMARK    5  A    between atoms: C_12  and  C_13 
REMARK    6  A    between atoms: C_14  and  C_13 
REMARK    7  A    between atoms: C_14  and  N_15 
ROOT
HETATM    1  C   UNK N   1      35.344  12.017  15.278  0.00  0.00     0.163 C 
ENDROOT
BRANCH   1   2
HETATM    2  O   UNK N   1      35.661  13.237  14.696  0.00  0.00    -0.341 OA
BRANCH   2   3
HETATM    3  C   UNK N   1      36.054  13.305  13.398  0.00  0.00     0.069 A 
HETATM    4  C   UNK N   1      35.552  14.321  12.579  0.00  0.00     0.037 A 
HETATM    5  C   UNK N   1      36.078  14.508  11.296  0.00  0.00     0.019 A 
HETATM    6  C   UNK N   1      37.090  13.664  10.814  0.00  0.00     0.048 A 
HETATM    7  C   UNK N   1      37.548  12.611  11.615  0.00  0.00     0.019 A 
HETATM    8  C   UNK N   1      37.043  12.440  12.900  0.00  0.00     0.037 A 
BRANCH   6   9
HETATM    9  C   UNK N   1      37.706  13.917   9.471  0.00  0.00     0.417 C 
HETATM   10  F   UNK N   1      38.835  14.714   9.583  0.00  0.00    -0.166 F 
HETATM   11  F   UNK N   1      38.060  12.720   8.880  0.00  0.00    -0.166 F 
HETATM   12  F   UNK N   1      36.786  14.568   8.668  0.00  0.00    -0.166 F 
ENDBRANCH   6   9
ENDBRANCH   2   3
ENDBRANCH   1   2
BRANCH   1  13
HETATM   13  C   UNK N   1      35.407  12.182  16.787  0.00  0.00    -0.029 A 
HETATM   14  C   UNK N   1      35.146  13.429  17.371  0.00  0.00     0.010 A 
HETATM   15  C   UNK N   1      35.101  13.558  18.763  0.00  0.00     0.001 A 
HETATM   16  C   UNK N   1      35.308  12.442  19.578  0.00  0.00     0.000 A 
HETATM   17  C   UNK N   1      35.567  11.196  19.004  0.00  0.00     0.001 A 
HETATM   18  C   UNK N   1      35.609  11.064  17.616  0.00  0.00     0.010 A 
ENDBRANCH   1  13
BRANCH   1  19
HETATM   19  C   UNK N   1      33.985  11.498  14.798  0.00  0.00     0.056 C 
BRANCH  19  20
HETATM   20  C   UNK N   1      34.064  10.304  13.858  0.00  0.00     0.116 C 
BRANCH  20  21
HETATM   21  N   UNK N   1      33.791  10.737  12.496  0.00  0.00    -0.425 N 
HETATM   22  C   UNK N   1      33.979   9.585  11.627  0.00  0.00     0.139 C 
HETATM   23  H   UNK N   1      33.518  11.675  12.205  0.00  0.00     0.152 HD
ENDBRANCH  20  21
ENDBRANCH  19  20
ENDBRANCH   1  19
TORSDOF 7
ENDMDL
MODEL 8
REMARK VINA RESULT:      -5.9      6.454     10.205
REMARK  7 active torsions:
REMARK  status: ('A' for Active; 'I' for Inactive)
REMARK    1  A    between atoms: C_2  and  C_5 
REMARK    2  A    between atoms: C_8  and  O_11 
REMARK    3  A    between atoms: C_12  and  O_11 
REMARK    4  A    between atoms: C_12  and  C_17 
REMARK    5  A    between atoms: C_12  and  C_13 
REMARK    6  A    between atoms: C_14  and  C_13 
REMARK    7  A    between atoms: C_14  and  N_15 
ROOT
HETATM    1  C   UNK N   1      28.327  17.013   6.167  0.00  0.00     0.163 C 
ENDROOT
BRANCH   1   2
HETATM    2  O   UNK N   1      29.560  16.853   5.547  0.00  0.00    -0.341 OA
BRANCH   2   3
HETATM    3  C   UNK N   1      30.710  17.159   6.201  0.00  0.00     0.069 A 
HETATM    4  C   UNK N   1      30.697  17.290   7.593  0.00  0.00     0.037 A 
HETATM    5  C   UNK N   1      31.900  17.433   8.294  0.00  0.00     0.019 A 
HETATM    6  C   UNK N   1      33.122  17.469   7.604  0.00  0.00     0.048 A 
HETATM    7  C   UNK N   1      33.126  17.395   6.206  0.00  0.00     0.019 A 
HETATM    8  C   UNK N   1      31.932  17.230   5.511  0.00  0.00     0.037 A 
BRANCH   6   9
HETATM    9  C   UNK N   1      34.412  17.540   8.363  0.00  0.00     0.417 C 
HETATM   10  F   UNK N   1      34.207  17.316   9.716  0.00  0.00    -0.166 F 
HETATM   11  F   UNK N   1      35.296  16.592   7.882  0.00  0.00    -0.166 F 
HETATM   12  F   UNK N   1      34.962  18.800   8.204  0.00  0.00    -0.166 F 
ENDBRANCH   6   9
ENDBRANCH   2   3
ENDBRANCH   1   2
BRANCH   1  13
HETATM   13  C   UNK N   1      27.800  18.395   5.820  0.00  0.00    -0.029 A 
HETATM   14  C   UNK N   1      27.727  19.390   6.803  0.00  0.00     0.010 A 
HETATM   15  C   UNK N   1      27.341  20.690   6.462  0.00  0.00     0.001 A 
HETATM   16  C   UNK N   1      27.033  21.005   5.135  0.00  0.00     0.000 A 
HETATM   17  C   UNK N   1      27.106  20.020   4.149  0.00  0.00     0.001 A 
HETATM   18  C   UNK N   1      27.494  18.723   4.487  0.00  0.00     0.010 A 
ENDBRANCH   1  13
BRANCH   1  19
HETATM   19  C   UNK N   1      27.353  15.896   5.783  0.00  0.00     0.056 C 
BRANCH  19  20
HETATM   20  C   UNK N   1      26.279  15.613   6.823  0.00  0.00     0.116 C 
BRANCH  20  21
HETATM   21  N   UNK N   1      24.980  16.014   6.305  0.00  0.00    -0.425 N 
HETATM   22  C   UNK N   1      24.520  14.957   5.416  0.00  0.00     0.139 C 
HETATM   23  H   UNK N   1      24.483  16.877   6.525  0.00  0.00     0.152 HD
ENDBRANCH  20  21
ENDBRANCH  19  20
ENDBRANCH   1  19
TORSDOF 7
ENDMDL
MODEL 9
REMARK VINA RESULT:      -5.9      7.483     10.603
REMARK  7 active torsions:
REMARK  status: ('A' for Active; 'I' for Inactive)
REMARK    1  A    between atoms: C_2  and  C_5 
REMARK    2  A    between atoms: C_8  and  O_11 
REMARK    3  A    between atoms: C_12  and  O_11 
REMARK    4  A    between atoms: C_12  and  C_17 
REMARK    5  A    between atoms: C_12  and  C_13 
REMARK    6  A    between atoms: C_14  and  C_13 
REMARK    7  A    between atoms: C_14  and  N_15 
ROOT
HETATM    1  C   UNK N   1      34.041   9.013  21.570  0.00  0.00     0.163 C 
ENDROOT
BRANCH   1   2
HETATM    2  O   UNK N   1      35.116   9.057  20.692  0.00  0.00    -0.341 OA
BRANCH   2   3
HETATM    3  C   UNK N   1      35.273  10.104  19.841  0.00  0.00     0.069 A 
HETATM    4  C   UNK N   1      35.276   9.876  18.461  0.00  0.00     0.037 A 
HETATM    5  C   UNK N   1      35.262  10.958  17.574  0.00  0.00     0.019 A 
HETATM    6  C   UNK N   1      35.271  12.275  18.061  0.00  0.00     0.048 A 
HETATM    7  C   UNK N   1      35.327  12.498  19.441  0.00  0.00     0.019 A 
HETATM    8  C   UNK N   1      35.316  11.423  20.324  0.00  0.00     0.037 A 
BRANCH   6   9
HETATM    9  C   UNK N   1      35.174  13.429  17.109  0.00  0.00     0.417 C 
HETATM   10  F   UNK N   1      33.959  13.424  16.442  0.00  0.00    -0.166 F 
HETATM   11  F   UNK N   1      35.302  14.620  17.797  0.00  0.00    -0.166 F 
HETATM   12  F   UNK N   1      36.190  13.330  16.174  0.00  0.00    -0.166 F 
ENDBRANCH   6   9
ENDBRANCH   2   3
ENDBRANCH   1   2
BRANCH   1  13
HETATM   13  C   UNK N   1      32.943   8.181  20.932  0.00  0.00    -0.029 A 
HETATM   14  C   UNK N   1      31.659   8.716  20.764  0.00  0.00     0.010 A 
HETATM   15  C   UNK N   1      30.677   7.991  20.083  0.00  0.00     0.001 A 
HETATM   16  C   UNK N   1      30.973   6.729  19.559  0.00  0.00     0.000 A 
HETATM   17  C   UNK N   1      32.251   6.189  19.720  0.00  0.00     0.001 A 
HETATM   18  C   UNK N   1      33.233   6.913  20.396  0.00  0.00     0.010 A 
ENDBRANCH   1  13
BRANCH   1  19
HETATM   19  C   UNK N   1      34.459   8.483  22.946  0.00  0.00     0.056 C 
BRANCH  19  20
HETATM   20  C   UNK N   1      34.463   9.532  24.049  0.00  0.00     0.116 C 
BRANCH  20  21
HETATM   21  N   UNK N   1      33.478  10.559  23.749  0.00  0.00    -0.425 N 
HETATM   22  C   UNK N   1      32.260  10.218  24.468  0.00  0.00     0.139 C 
HETATM   23  H   UNK N   1      33.617  11.370  23.146  0.00  0.00     0.152 HD
ENDBRANCH  20  21
ENDBRANCH  19  20
ENDBRANCH   1  19
TORSDOF 7
ENDMDL
