MODEL 1
REMARK VINA RESULT:      -6.5      0.000      0.000
REMARK  5 active torsions:
REMARK  status: ('A' for Active; 'I' for Inactive)
REMARK    1  A    between atoms: C_13  and  N_12 
REMARK    2  A    between atoms: C_15  and  C_16 
REMARK    3  A    between atoms: C_16  and  O_17 
REMARK    4  A    between atoms: C_18  and  O_19 
REMARK    5  A    between atoms: C_20  and  O_21 
ROOT
HETATM    1  C   UNK N   1      34.219  16.052   7.387  0.00  0.00     0.066 A 
HETATM    2  C   UNK N   1      34.098  14.947   6.547  0.00  0.00     0.057 A 
HETATM    3  C   UNK N   1      33.667  15.167   5.223  0.00  0.00     0.058 A 
HETATM    4 Cl   UNK N   1      33.519  13.789   4.146  0.00  0.00    -0.082 Cl
HETATM    5  C   UNK N   1      33.376  16.485   4.777  0.00  0.00     0.058 A 
HETATM    6 Cl   UNK N   1      32.863  16.790   3.126  0.00  0.00    -0.082 Cl
HETATM    7  C   UNK N   1      33.512  17.574   5.658  0.00  0.00     0.057 A 
HETATM    8  C   UNK N   1      33.938  17.311   6.956  0.00  0.00     0.062 A 
HETATM    9  N   UNK N   1      34.184  18.197   7.933  0.00  0.00    -0.350 N 
ATOM     10  HN  UNK N   1      34.058  19.209   7.903  1.00  0.00     0.166 HD
HETATM   11  C   UNK N   1      34.639  17.445   8.970  0.00  0.00     0.186 A 
HETATM   12  N   UNK N   1      34.656  16.124   8.662  0.00  0.00    -0.311 N 
ENDROOT
BRANCH  12  13
HETATM   13  C   UNK N   1      35.183  15.077   9.555  0.00  0.00     0.261 C 
HETATM   14  O   UNK N   1      35.963  15.625  10.593  0.00  0.00    -0.353 OA
HETATM   15  C   UNK N   1      36.160  14.548  11.496  0.00  0.00     0.179 C 
HETATM   16  C   UNK N   1      35.060  13.500  11.216  0.00  0.00     0.182 C 
HETATM   17  C   UNK N   1      34.140  14.240  10.279  0.00  0.00     0.198 C 
BRANCH  15  18
HETATM   18  C   UNK N   1      36.185  15.059  12.933  0.00  0.00     0.198 C 
BRANCH  18  19
HETATM   19  O   UNK N   1      36.902  14.168  13.737  0.00  0.00    -0.398 OA
HETATM   20  H   UNK N   1      36.473  13.692  14.465  0.00  0.00     0.209 HD
ENDBRANCH  18  19
ENDBRANCH  15  18
BRANCH  16  21
HETATM   21  O   UNK N   1      34.397  13.018  12.352  0.00  0.00    -0.390 OA
HETATM   22  H   UNK N   1      34.622  12.224  12.859  0.00  0.00     0.210 HD
ENDBRANCH  16  21
BRANCH  17  23
HETATM   23  O   UNK N   1      33.293  15.086  11.009  0.00  0.00    -0.388 OA
HETATM   24  H   UNK N   1      32.727  15.404  11.730  0.00  0.00     0.210 HD
ENDBRANCH  17  23
ENDBRANCH  12  13
TORSDOF 5
ENDMDL
MODEL 2
REMARK VINA RESULT:      -6.4      7.656     10.719
REMARK  5 active torsions:
REMARK  status: ('A' for Active; 'I' for Inactive)
REMARK    1  A    between atoms: C_13  and  N_12 
REMARK    2  A    between atoms: C_15  and  C_16 
REMARK    3  A    between atoms: C_16  and  O_17 
REMARK    4  A    between atoms: C_18  and  O_19 
REMARK    5  A    between atoms: C_20  and  O_21 
ROOT
HETATM    1  C   UNK N   1      35.316  11.774  17.782  0.00  0.00     0.066 A 
HETATM    2  C   UNK N   1      35.209  10.385  17.785  0.00  0.00     0.057 A 
HETATM    3  C   UNK N   1      34.970   9.742  19.015  0.00  0.00     0.058 A 
HETATM    4 Cl   UNK N   1      34.821   7.993  19.038  0.00  0.00    -0.082 Cl
HETATM    5  C   UNK N   1      34.841  10.508  20.207  0.00  0.00     0.058 A 
HETATM    6 Cl   UNK N   1      34.518   9.734  21.750  0.00  0.00    -0.082 Cl
HETATM    7  C   UNK N   1      34.955  11.909  20.161  0.00  0.00     0.057 A 
HETATM    8  C   UNK N   1      35.191  12.501  18.925  0.00  0.00     0.062 A 
HETATM    9  N   UNK N   1      35.281  13.811  18.648  0.00  0.00    -0.350 N 
ATOM     10  HN  UNK N   1      35.233  14.592  19.302  1.00  0.00     0.166 HD
HETATM   11  C   UNK N   1      35.446  13.865  17.300  0.00  0.00     0.186 A 
HETATM   12  N   UNK N   1      35.485  12.626  16.749  0.00  0.00    -0.311 N 
ENDROOT
BRANCH  12  13
HETATM   13  C   UNK N   1      35.565  12.370  15.300  0.00  0.00     0.261 C 
HETATM   14  O   UNK N   1      34.974  13.412  14.557  0.00  0.00    -0.353 OA
HETATM   15  C   UNK N   1      35.367  13.159  13.216  0.00  0.00     0.179 C 
HETATM   16  C   UNK N   1      36.611  12.243  13.262  0.00  0.00     0.182 C 
HETATM   17  C   UNK N   1      36.969  12.258  14.726  0.00  0.00     0.198 C 
BRANCH  15  18
HETATM   18  C   UNK N   1      35.587  14.472  12.472  0.00  0.00     0.198 C 
BRANCH  18  19
HETATM   19  O   UNK N   1      36.493  15.268  13.181  0.00  0.00    -0.398 OA
HETATM   20  H   UNK N   1      37.201  14.871  13.712  0.00  0.00     0.209 HD
ENDBRANCH  18  19
ENDBRANCH  15  18
BRANCH  16  21
HETATM   21  O   UNK N   1      37.674  12.644  12.444  0.00  0.00    -0.390 OA
HETATM   22  H   UNK N   1      38.338  13.319  12.648  0.00  0.00     0.210 HD
ENDBRANCH  16  21
BRANCH  17  23
HETATM   23  O   UNK N   1      37.689  13.422  15.031  0.00  0.00    -0.388 OA
HETATM   24  H   UNK N   1      37.866  14.336  15.304  0.00  0.00     0.210 HD
ENDBRANCH  17  23
ENDBRANCH  12  13
TORSDOF 5
ENDMDL
MODEL 3
REMARK VINA RESULT:      -6.3      5.207      7.906
REMARK  5 active torsions:
REMARK  status: ('A' for Active; 'I' for Inactive)
REMARK    1  A    between atoms: C_13  and  N_12 
REMARK    2  A    between atoms: C_15  and  C_16 
REMARK    3  A    between atoms: C_16  and  O_17 
REMARK    4  A    between atoms: C_18  and  O_19 
REMARK    5  A    between atoms: C_20  and  O_21 
ROOT
HETATM    1  C   UNK N   1      34.905  12.193  13.117  0.00  0.00     0.066 A 
HETATM    2  C   UNK N   1      35.214  12.894  14.281  0.00  0.00     0.057 A 
HETATM    3  C   UNK N   1      35.070  12.227  15.513  0.00  0.00     0.058 A 
HETATM    4 Cl   UNK N   1      35.466  13.090  16.990  0.00  0.00    -0.082 Cl
HETATM    5  C   UNK N   1      34.625  10.877  15.546  0.00  0.00     0.058 A 
HETATM    6 Cl   UNK N   1      34.462  10.014  17.066  0.00  0.00    -0.082 Cl
HETATM    7  C   UNK N   1      34.323  10.204  14.348  0.00  0.00     0.057 A 
HETATM    8  C   UNK N   1      34.479  10.902  13.154  0.00  0.00     0.062 A 
HETATM    9  N   UNK N   1      34.300  10.441  11.907  0.00  0.00    -0.350 N 
ATOM     10  HN  UNK N   1      33.979   9.515  11.624  1.00  0.00     0.166 HD
HETATM   11  C   UNK N   1      34.645  11.483  11.105  0.00  0.00     0.186 A 
HETATM   12  N   UNK N   1      35.007  12.573  11.826  0.00  0.00    -0.311 N 
ENDROOT
BRANCH  12  13
HETATM   13  C   UNK N   1      35.515  13.822  11.233  0.00  0.00     0.261 C 
HETATM   14  O   UNK N   1      35.494  13.773   9.824  0.00  0.00    -0.353 OA
HETATM   15  C   UNK N   1      35.743  15.110   9.418  0.00  0.00     0.179 C 
HETATM   16  C   UNK N   1      35.408  16.029  10.614  0.00  0.00     0.182 C 
HETATM   17  C   UNK N   1      34.730  15.081  11.570  0.00  0.00     0.198 C 
BRANCH  15  18
HETATM   18  C   UNK N   1      34.964  15.431   8.147  0.00  0.00     0.198 C 
BRANCH  18  19
HETATM   19  O   UNK N   1      33.618  15.096   8.324  0.00  0.00    -0.398 OA
HETATM   20  H   UNK N   1      33.274  14.233   8.043  0.00  0.00     0.209 HD
ENDBRANCH  18  19
ENDBRANCH  15  18
BRANCH  16  21
HETATM   21  O   UNK N   1      34.615  17.140  10.305  0.00  0.00    -0.390 OA
HETATM   22  H   UNK N   1      33.871  17.482  10.823  0.00  0.00     0.210 HD
ENDBRANCH  16  21
BRANCH  17  23
HETATM   23  O   UNK N   1      33.390  14.905  11.198  0.00  0.00    -0.388 OA
HETATM   24  H   UNK N   1      32.610  14.535  10.754  0.00  0.00     0.210 HD
ENDBRANCH  17  23
ENDBRANCH  12  13
TORSDOF 5
ENDMDL
MODEL 4
REMARK VINA RESULT:      -6.1      6.674      9.415
REMARK  5 active torsions:
REMARK  status: ('A' for Active; 'I' for Inactive)
REMARK    1  A    between atoms: C_13  and  N_12 
REMARK    2  A    between atoms: C_15  and  C_16 
REMARK    3  A    between atoms: C_16  and  O_17 
REMARK    4  A    between atoms: C_18  and  O_19 
REMARK    5  A    between atoms: C_20  and  O_21 
ROOT
HETATM    1  C   UNK N   1      35.201  11.480  15.455  0.00  0.00     0.066 A 
HETATM    2  C   UNK N   1      35.249  12.760  16.002  0.00  0.00     0.057 A 
HETATM    3  C   UNK N   1      35.268  12.880  17.406  0.00  0.00     0.058 A 
HETATM    4 Cl   UNK N   1      35.340  14.484  18.115  0.00  0.00    -0.082 Cl
HETATM    5  C   UNK N   1      35.243  11.715  18.222  0.00  0.00     0.058 A 
HETATM    6 Cl   UNK N   1      35.292  11.835  19.972  0.00  0.00    -0.082 Cl
HETATM    7  C   UNK N   1      35.195  10.440  17.629  0.00  0.00     0.057 A 
HETATM    8  C   UNK N   1      35.177  10.369  16.240  0.00  0.00     0.062 A 
HETATM    9  N   UNK N   1      35.185   9.266  15.476  0.00  0.00    -0.350 N 
ATOM     10  HN  UNK N   1      35.163   8.294  15.783  1.00  0.00     0.166 HD
HETATM   11  C   UNK N   1      35.232   9.735  14.201  0.00  0.00     0.186 A 
HETATM   12  N   UNK N   1      35.228  11.091  14.163  0.00  0.00    -0.311 N 
ENDROOT
BRANCH  12  13
HETATM   13  C   UNK N   1      35.362  11.881  12.927  0.00  0.00     0.261 C 
HETATM   14  O   UNK N   1      34.901  13.201  13.103  0.00  0.00    -0.353 OA
HETATM   15  C   UNK N   1      35.341  13.890  11.942  0.00  0.00     0.179 C 
HETATM   16  C   UNK N   1      36.498  13.070  11.327  0.00  0.00     0.182 C 
HETATM   17  C   UNK N   1      36.780  12.052  12.402  0.00  0.00     0.198 C 
BRANCH  15  18
HETATM   18  C   UNK N   1      35.710  15.328  12.288  0.00  0.00     0.198 C 
BRANCH  18  19
HETATM   19  O   UNK N   1      36.534  15.344  13.418  0.00  0.00    -0.398 OA
HETATM   20  H   UNK N   1      37.244  15.997  13.512  0.00  0.00     0.209 HD
ENDBRANCH  18  19
ENDBRANCH  15  18
BRANCH  16  21
HETATM   21  O   UNK N   1      37.632  13.813  10.980  0.00  0.00    -0.390 OA
HETATM   22  H   UNK N   1      38.141  13.742  10.158  0.00  0.00     0.210 HD
ENDBRANCH  16  21
BRANCH  17  23
HETATM   23  O   UNK N   1      37.579  12.621  13.403  0.00  0.00    -0.388 OA
HETATM   24  H   UNK N   1      38.014  12.739  14.263  0.00  0.00     0.210 HD
ENDBRANCH  17  23
ENDBRANCH  12  13
TORSDOF 5
ENDMDL
MODEL 5
REMARK VINA RESULT:      -6.1      3.712      5.173
REMARK  5 active torsions:
REMARK  status: ('A' for Active; 'I' for Inactive)
REMARK    1  A    between atoms: C_13  and  N_12 
REMARK    2  A    between atoms: C_15  and  C_16 
REMARK    3  A    between atoms: C_16  and  O_17 
REMARK    4  A    between atoms: C_18  and  O_19 
REMARK    5  A    between atoms: C_20  and  O_21 
ROOT
HETATM    1  C   UNK N   1      30.523  16.213   5.717  0.00  0.00     0.066 A 
HETATM    2  C   UNK N   1      29.853  17.397   5.418  0.00  0.00     0.057 A 
HETATM    3  C   UNK N   1      28.769  17.335   4.521  0.00  0.00     0.058 A 
HETATM    4 Cl   UNK N   1      27.905  18.815   4.139  0.00  0.00    -0.082 Cl
HETATM    5  C   UNK N   1      28.383  16.090   3.953  0.00  0.00     0.058 A 
HETATM    6 Cl   UNK N   1      27.019  15.980   2.853  0.00  0.00    -0.082 Cl
HETATM    7  C   UNK N   1      29.086  14.916   4.282  0.00  0.00     0.057 A 
HETATM    8  C   UNK N   1      30.150  15.025   5.171  0.00  0.00     0.062 A 
HETATM    9  N   UNK N   1      30.915  14.035   5.658  0.00  0.00    -0.350 N 
ATOM     10  HN  UNK N   1      30.873  13.043   5.426  1.00  0.00     0.166 HD
HETATM   11  C   UNK N   1      31.756  14.651   6.530  0.00  0.00     0.186 A 
HETATM   12  N   UNK N   1      31.543  15.990   6.573  0.00  0.00    -0.311 N 
ENDROOT
BRANCH  12  13
HETATM   13  C   UNK N   1      32.241  16.906   7.491  0.00  0.00     0.261 C 
HETATM   14  O   UNK N   1      32.917  16.204   8.510  0.00  0.00    -0.353 OA
HETATM   15  C   UNK N   1      33.742  17.180   9.127  0.00  0.00     0.179 C 
HETATM   16  C   UNK N   1      33.910  18.346   8.127  0.00  0.00     0.182 C 
HETATM   17  C   UNK N   1      33.320  17.775   6.863  0.00  0.00     0.198 C 
BRANCH  15  18
HETATM   18  C   UNK N   1      35.056  16.554   9.582  0.00  0.00     0.198 C 
BRANCH  18  19
HETATM   19  O   UNK N   1      35.723  17.432  10.442  0.00  0.00    -0.398 OA
HETATM   20  H   UNK N   1      36.027  17.143  11.317  0.00  0.00     0.209 HD
ENDBRANCH  18  19
ENDBRANCH  15  18
BRANCH  16  21
HETATM   21  O   UNK N   1      35.225  18.794   7.953  0.00  0.00    -0.390 OA
HETATM   22  H   UNK N   1      35.827  18.555   7.232  0.00  0.00     0.210 HD
ENDBRANCH  16  21
BRANCH  17  23
HETATM   23  O   UNK N   1      34.261  16.956   6.224  0.00  0.00    -0.388 OA
HETATM   24  H   UNK N   1      34.779  16.551   5.510  0.00  0.00     0.210 HD
ENDBRANCH  17  23
ENDBRANCH  12  13
TORSDOF 5
ENDMDL
MODEL 6
REMARK VINA RESULT:      -6.0      1.802      2.425
REMARK  5 active torsions:
REMARK  status: ('A' for Active; 'I' for Inactive)
REMARK    1  A    between atoms: C_13  and  N_12 
REMARK    2  A    between atoms: C_15  and  C_16 
REMARK    3  A    between atoms: C_16  and  O_17 
REMARK    4  A    between atoms: C_18  and  O_19 
REMARK    5  A    between atoms: C_20  and  O_21 
ROOT
HETATM    1  C   UNK N   1      35.129  15.413   9.313  0.00  0.00     0.066 A 
HETATM    2  C   UNK N   1      35.010  14.696   8.125  0.00  0.00     0.057 A 
HETATM    3  C   UNK N   1      34.546  15.379   6.983  0.00  0.00     0.058 A 
HETATM    4 Cl   UNK N   1      34.400  14.495   5.474  0.00  0.00    -0.082 Cl
HETATM    5  C   UNK N   1      34.220  16.761   7.062  0.00  0.00     0.058 A 
HETATM    6 Cl   UNK N   1      33.666  17.642   5.649  0.00  0.00    -0.082 Cl
HETATM    7  C   UNK N   1      34.356  17.449   8.281  0.00  0.00     0.057 A 
HETATM    8  C   UNK N   1      34.816  16.735   9.383  0.00  0.00     0.062 A 
HETATM    9  N   UNK N   1      35.066  17.202  10.616  0.00  0.00    -0.350 N 
ATOM     10  HN  UNK N   1      34.921  18.149  10.966  1.00  0.00     0.166 HD
HETATM   11  C   UNK N   1      35.558  16.131  11.293  0.00  0.00     0.186 A 
HETATM   12  N   UNK N   1      35.593  15.019  10.518  0.00  0.00    -0.311 N 
ENDROOT
BRANCH  12  13
HETATM   13  C   UNK N   1      36.159  13.730  10.951  0.00  0.00     0.261 C 
HETATM   14  O   UNK N   1      36.886  13.860  12.151  0.00  0.00    -0.353 OA
HETATM   15  C   UNK N   1      37.125  12.525  12.570  0.00  0.00     0.179 C 
HETATM   16  C   UNK N   1      36.090  11.624  11.859  0.00  0.00     0.182 C 
HETATM   17  C   UNK N   1      35.149  12.632  11.249  0.00  0.00     0.198 C 
BRANCH  15  18
HETATM   18  C   UNK N   1      37.092  12.433  14.092  0.00  0.00     0.198 C 
BRANCH  18  19
HETATM   19  O   UNK N   1      35.966  13.105  14.579  0.00  0.00    -0.398 OA
HETATM   20  H   UNK N   1      35.092  12.686  14.576  0.00  0.00     0.209 HD
ENDBRANCH  18  19
ENDBRANCH  15  18
BRANCH  16  21
HETATM   21  O   UNK N   1      35.432  10.707  12.688  0.00  0.00    -0.390 OA
HETATM   22  H   UNK N   1      35.846  10.025  13.239  0.00  0.00     0.210 HD
ENDBRANCH  16  21
BRANCH  17  23
HETATM   23  O   UNK N   1      34.242  13.086  12.216  0.00  0.00    -0.388 OA
HETATM   24  H   UNK N   1      33.501  13.079  12.842  0.00  0.00     0.210 HD
ENDBRANCH  17  23
ENDBRANCH  12  13
TORSDOF 5
ENDMDL
MODEL 7
REMARK VINA RESULT:      -6.0     13.550     15.534
REMARK  5 active torsions:
REMARK  status: ('A' for Active; 'I' for Inactive)
REMARK    1  A    between atoms: C_13  and  N_12 
REMARK    2  A    between atoms: C_15  and  C_16 
REMARK    3  A    between atoms: C_16  and  O_17 
REMARK    4  A    between atoms: C_18  and  O_19 
REMARK    5  A    between atoms: C_20  and  O_21 
ROOT
HETATM    1  C   UNK N   1      21.116  16.303   4.862  0.00  0.00     0.066 A 
HETATM    2  C   UNK N   1      22.394  16.107   5.380  0.00  0.00     0.057 A 
HETATM    3  C   UNK N   1      22.579  15.066   6.311  0.00  0.00     0.058 A 
HETATM    4 Cl   UNK N   1      24.185  14.796   6.967  0.00  0.00    -0.082 Cl
HETATM    5  C   UNK N   1      21.481  14.247   6.693  0.00  0.00     0.058 A 
HETATM    6 Cl   UNK N   1      21.688  12.926   7.831  0.00  0.00    -0.082 Cl
HETATM    7  C   UNK N   1      20.205  14.477   6.146  0.00  0.00     0.057 A 
HETATM    8  C   UNK N   1      20.069  15.517   5.231  0.00  0.00     0.062 A 
HETATM    9  N   UNK N   1      18.966  15.874   4.555  0.00  0.00    -0.350 N 
ATOM     10  HN  UNK N   1      18.032  15.471   4.629  1.00  0.00     0.166 HD
HETATM   11  C   UNK N   1      19.373  16.890   3.749  0.00  0.00     0.186 A 
HETATM   12  N   UNK N   1      20.686  17.179   3.930  0.00  0.00    -0.311 N 
ENDROOT
BRANCH  12  13
HETATM   13  C   UNK N   1      21.428  18.172   3.134  0.00  0.00     0.261 C 
HETATM   14  O   UNK N   1      20.658  18.653   2.056  0.00  0.00    -0.353 OA
HETATM   15  C   UNK N   1      21.387  19.769   1.568  0.00  0.00     0.179 C 
HETATM   16  C   UNK N   1      22.335  20.233   2.696  0.00  0.00     0.182 C 
HETATM   17  C   UNK N   1      21.851  19.431   3.876  0.00  0.00     0.198 C 
BRANCH  15  18
HETATM   18  C   UNK N   1      20.432  20.849   1.071  0.00  0.00     0.198 C 
BRANCH  18  19
HETATM   19  O   UNK N   1      20.683  21.112  -0.280  0.00  0.00    -0.398 OA
HETATM   20  H   UNK N   1      20.014  21.533  -0.842  0.00  0.00     0.209 HD
ENDBRANCH  18  19
ENDBRANCH  15  18
BRANCH  16  21
HETATM   21  O   UNK N   1      22.333  21.611   2.944  0.00  0.00    -0.390 OA
HETATM   22  H   UNK N   1      22.204  22.045   3.801  0.00  0.00     0.210 HD
ENDBRANCH  16  21
BRANCH  17  23
HETATM   23  O   UNK N   1      20.719  20.041   4.437  0.00  0.00    -0.388 OA
HETATM   24  H   UNK N   1      19.880  20.524   4.491  0.00  0.00     0.210 HD
ENDBRANCH  17  23
ENDBRANCH  12  13
TORSDOF 5
ENDMDL
MODEL 8
REMARK VINA RESULT:      -5.9      3.359      3.682
REMARK  5 active torsions:
REMARK  status: ('A' for Active; 'I' for Inactive)
REMARK    1  A    between atoms: C_13  and  N_12 
REMARK    2  A    between atoms: C_15  and  C_16 
REMARK    3  A    between atoms: C_16  and  O_17 
REMARK    4  A    between atoms: C_18  and  O_19 
REMARK    5  A    between atoms: C_20  and  O_21 
ROOT
HETATM    1  C   UNK N   1      30.638  16.750   7.280  0.00  0.00     0.066 A 
HETATM    2  C   UNK N   1      30.565  15.808   6.257  0.00  0.00     0.057 A 
HETATM    3  C   UNK N   1      29.443  15.840   5.405  0.00  0.00     0.058 A 
HETATM    4 Cl   UNK N   1      29.338  14.668   4.103  0.00  0.00    -0.082 Cl
HETATM    5  C   UNK N   1      28.429  16.819   5.599  0.00  0.00     0.058 A 
HETATM    6 Cl   UNK N   1      27.034  16.899   4.536  0.00  0.00    -0.082 Cl
HETATM    7  C   UNK N   1      28.541  17.754   6.644  0.00  0.00     0.057 A 
HETATM    8  C   UNK N   1      29.665  17.683   7.461  0.00  0.00     0.062 A 
HETATM    9  N   UNK N   1      29.994  18.501   8.473  0.00  0.00    -0.350 N 
ATOM     10  HN  UNK N   1      29.457  19.285   8.841  1.00  0.00     0.166 HD
HETATM   11  C   UNK N   1      31.206  18.051   8.895  0.00  0.00     0.186 A 
HETATM   12  N   UNK N   1      31.614  16.969   8.186  0.00  0.00    -0.311 N 
ENDROOT
BRANCH  12  13
HETATM   13  C   UNK N   1      32.925  16.319   8.357  0.00  0.00     0.261 C 
HETATM   14  O   UNK N   1      33.811  17.126   9.098  0.00  0.00    -0.353 OA
HETATM   15  C   UNK N   1      34.901  16.270   9.405  0.00  0.00     0.179 C 
HETATM   16  C   UNK N   1      34.402  14.814   9.262  0.00  0.00     0.182 C 
HETATM   17  C   UNK N   1      32.913  14.997   9.109  0.00  0.00     0.198 C 
BRANCH  15  18
HETATM   18  C   UNK N   1      35.466  16.604  10.781  0.00  0.00     0.198 C 
BRANCH  18  19
HETATM   19  O   UNK N   1      36.807  16.210  10.847  0.00  0.00    -0.398 OA
HETATM   20  H   UNK N   1      37.294  16.226  11.685  0.00  0.00     0.209 HD
ENDBRANCH  18  19
ENDBRANCH  15  18
BRANCH  16  21
HETATM   21  O   UNK N   1      34.734  13.966  10.325  0.00  0.00    -0.390 OA
HETATM   22  H   UNK N   1      34.606  14.144  11.269  0.00  0.00     0.210 HD
ENDBRANCH  16  21
BRANCH  17  23
HETATM   23  O   UNK N   1      32.323  15.184  10.367  0.00  0.00    -0.388 OA
HETATM   24  H   UNK N   1      31.878  14.973  11.203  0.00  0.00     0.210 HD
ENDBRANCH  17  23
ENDBRANCH  12  13
TORSDOF 5
ENDMDL
MODEL 9
REMARK VINA RESULT:      -5.8      4.537      6.881
REMARK  5 active torsions:
REMARK  status: ('A' for Active; 'I' for Inactive)
REMARK    1  A    between atoms: C_13  and  N_12 
REMARK    2  A    between atoms: C_15  and  C_16 
REMARK    3  A    between atoms: C_16  and  O_17 
REMARK    4  A    between atoms: C_18  and  O_19 
REMARK    5  A    between atoms: C_20  and  O_21 
ROOT
HETATM    1  C   UNK N   1      35.968  13.365  11.600  0.00  0.00     0.066 A 
HETATM    2  C   UNK N   1      34.927  12.827  12.354  0.00  0.00     0.057 A 
HETATM    3  C   UNK N   1      35.226  11.774  13.240  0.00  0.00     0.058 A 
HETATM    4 Cl   UNK N   1      33.931  11.090  14.206  0.00  0.00    -0.082 Cl
HETATM    5  C   UNK N   1      36.560  11.292  13.350  0.00  0.00     0.058 A 
HETATM    6 Cl   UNK N   1      36.966   9.998  14.465  0.00  0.00    -0.082 Cl
HETATM    7  C   UNK N   1      37.583  11.863  12.571  0.00  0.00     0.057 A 
HETATM    8  C   UNK N   1      37.241  12.900  11.709  0.00  0.00     0.062 A 
HETATM    9  N   UNK N   1      38.060  13.615  10.923  0.00  0.00    -0.350 N 
ATOM     10  HN  UNK N   1      39.064  13.491  10.792  1.00  0.00     0.166 HD
HETATM   11  C   UNK N   1      37.253  14.542  10.342  0.00  0.00     0.186 A 
HETATM   12  N   UNK N   1      35.962  14.399  10.733  0.00  0.00    -0.311 N 
ENDROOT
BRANCH  12  13
HETATM   13  C   UNK N   1      34.876  15.313  10.339  0.00  0.00     0.261 C 
HETATM   14  O   UNK N   1      35.378  16.547   9.880  0.00  0.00    -0.353 OA
HETATM   15  C   UNK N   1      34.257  17.193   9.295  0.00  0.00     0.179 C 
HETATM   16  C   UNK N   1      33.210  16.102   8.974  0.00  0.00     0.182 C 
HETATM   17  C   UNK N   1      33.986  14.831   9.203  0.00  0.00     0.198 C 
BRANCH  15  18
HETATM   18  C   UNK N   1      34.690  18.018   8.088  0.00  0.00     0.198 C 
BRANCH  18  19
HETATM   19  O   UNK N   1      35.283  19.208   8.521  0.00  0.00    -0.398 OA
HETATM   20  H   UNK N   1      36.192  19.222   8.860  0.00  0.00     0.209 HD
ENDBRANCH  18  19
ENDBRANCH  15  18
BRANCH  16  21
HETATM   21  O   UNK N   1      32.658  16.171   7.689  0.00  0.00    -0.390 OA
HETATM   22  H   UNK N   1      32.742  15.509   6.987  0.00  0.00     0.210 HD
ENDBRANCH  16  21
BRANCH  17  23
HETATM   23  O   UNK N   1      34.779  14.545   8.083  0.00  0.00    -0.388 OA
HETATM   24  H   UNK N   1      35.544  14.260   7.559  0.00  0.00     0.210 HD
ENDBRANCH  17  23
ENDBRANCH  12  13
TORSDOF 5
ENDMDL
