REMARK  5 active torsions:
REMARK  status: ('A' for Active; 'I' for Inactive)
REMARK    1  A    between atoms: C_13  and  N_12 
REMARK    2  A    between atoms: C_15  and  C_16 
REMARK    3  A    between atoms: C_16  and  O_17 
REMARK    4  A    between atoms: C_18  and  O_19 
REMARK    5  A    between atoms: C_20  and  O_21 
ROOT
HETATM    1  C   UNK N   1       0.220   1.630   0.006  0.00  0.00     0.066 A 
HETATM    2  C   UNK N   1       1.385   0.882   0.160  0.00  0.00     0.057 A 
HETATM    3  C   UNK N   1       2.618   1.562   0.123  0.00  0.00     0.058 A 
HETATM    4 Cl   UNK N   1       4.097   0.639   0.326  0.00  0.00    -0.082 Cl
HETATM    5  C   UNK N   1       2.650   2.972  -0.062  0.00  0.00     0.058 A 
HETATM    6 Cl   UNK N   1       4.171   3.848  -0.086  0.00  0.00    -0.082 Cl
HETATM    7  C   UNK N   1       1.450   3.691  -0.213  0.00  0.00     0.057 A 
HETATM    8  C   UNK N   1       0.256   2.978  -0.171  0.00  0.00     0.062 A 
HETATM    9  N   UNK N   1      -0.992   3.466  -0.240  0.00  0.00    -0.350 N 
ATOM     10  HN  UNK N   1      -1.276   4.436  -0.378  1.00  0.00     0.166 HD
HETATM   11  C   UNK N   1      -1.793   2.379  -0.083  0.00  0.00     0.186 A 
HETATM   12  N   UNK N   1      -1.071   1.239   0.056  0.00  0.00    -0.311 N 
ENDROOT
BRANCH  12  13
HETATM   13  C   UNK N   1      -1.662  -0.082   0.331  0.00  0.00     0.261 C 
HETATM   14  O   UNK N   1      -2.758  -0.346  -0.515  0.00  0.00    -0.353 OA
HETATM   15  C   UNK N   1      -3.033  -1.725  -0.321  0.00  0.00     0.179 C 
HETATM   16  C   UNK N   1      -1.761  -2.373   0.271  0.00  0.00     0.182 C 
HETATM   17  C   UNK N   1      -0.740  -1.274   0.124  0.00  0.00     0.198 C 
BRANCH  15  18
HETATM   18  C   UNK N   1      -3.508  -2.359  -1.624  0.00  0.00     0.198 C 
BRANCH  18  19
HETATM   19  O   UNK N   1      -4.036  -3.628  -1.364  0.00  0.00    -0.398 OA
HETATM   20  H   UNK N   1      -4.981  -3.751  -1.184  0.00  0.00     0.209 HD
ENDBRANCH  18  19
ENDBRANCH  15  18
BRANCH  16  21
HETATM   21  O   UNK N   1      -1.361  -3.565  -0.345  0.00  0.00    -0.390 OA
HETATM   22  H   UNK N   1      -1.937  -4.218  -0.771  0.00  0.00     0.210 HD
ENDBRANCH  16  21
BRANCH  17  23
HETATM   23  O   UNK N   1      -0.244  -1.254  -1.187  0.00  0.00    -0.388 OA
HETATM   24  H   UNK N   1      -0.060  -1.545  -2.094  0.00  0.00     0.210 HD
ENDBRANCH  17  23
ENDBRANCH  12  13
TORSDOF 5
