MODEL 1
REMARK VINA RESULT:      -5.3      0.000      0.000
REMARK  7 active torsions:
REMARK  status: ('A' for Active; 'I' for Inactive)
REMARK       I    between atoms: N_1  and  C_2 
REMARK    1  A    between atoms: C_2  and  C_4 
REMARK    2  A    between atoms: C_4  and  C_5 
REMARK    3  A    between atoms: C_4  and  C_9 
REMARK    4  A    between atoms: C_9  and  C_10 
REMARK       I    between atoms: C_10  and  N_12 
REMARK    5  A    between atoms: N_12  and  C_13 
REMARK    6  A    between atoms: C_13  and  C_14 
REMARK    7  A    between atoms: C_13  and  C_16 
ROOT
HETATM    1  C   UNK N   1      27.090  26.787  -4.253  0.00  0.00     0.093 C 
ENDROOT
BRANCH   1   2
HETATM    2  C   UNK N   1      26.639  27.836  -3.240  0.00  0.00     0.220 C 
HETATM    3  N   UNK N   1      27.495  28.753  -2.742  0.00  0.00    -0.370 N 
HETATM    4  H   UNK N   1      28.351  29.018  -3.151  0.00  0.00     0.159 HD
HETATM    5  H   UNK N   1      27.242  29.195  -1.900  0.00  0.00     0.159 HD
HETATM    6  O   UNK N   1      25.476  27.851  -2.870  0.00  0.00    -0.273 OA
ENDBRANCH   1   2
BRANCH   1   7
HETATM    7  C   UNK N   1      26.719  27.150  -5.735  0.00  0.00    -0.039 C 
HETATM    8  C   UNK N   1      27.362  26.216  -6.739  0.00  0.00     0.015 C 
HETATM    9  C   UNK N   1      27.229  28.535  -6.108  0.00  0.00     0.015 C 
HETATM   10  C   UNK N   1      25.213  27.112  -5.958  0.00  0.00     0.015 C 
ENDBRANCH   1   7
BRANCH   1  11
HETATM   11  C   UNK N   1      26.452  25.455  -3.782  0.00  0.00     0.117 C 
BRANCH  11  12
HETATM   12  C   UNK N   1      27.352  24.331  -3.342  0.00  0.00     0.218 C 
HETATM   13  O   UNK N   1      27.097  23.696  -2.337  0.00  0.00    -0.274 OA
HETATM   14  N   UNK N   1      28.507  24.106  -4.020  0.00  0.00    -0.356 N 
HETATM   15  H   UNK N   1      28.683  24.634  -4.833  0.00  0.00     0.162 HD
BRANCH  14  16
HETATM   16  C   UNK N   1      29.494  23.126  -3.607  0.00  0.00     0.083 C 
BRANCH  16  17
HETATM   17  C   UNK N   1      29.821  22.237  -4.800  0.00  0.00     0.021 C 
HETATM   18  C   UNK N   1      29.055  22.671  -6.038  0.00  0.00     0.007 C 
ENDBRANCH  16  17
BRANCH  16  19
HETATM   19  C   UNK N   1      30.773  23.818  -3.135  0.00  0.00     0.021 C 
HETATM   20  C   UNK N   1      30.819  25.245  -3.647  0.00  0.00     0.007 C 
ENDBRANCH  16  19
ENDBRANCH  14  16
ENDBRANCH  11  12
ENDBRANCH   1  11
TORSDOF 7
ENDMDL
MODEL 2
REMARK VINA RESULT:      -5.3     16.765     18.170
REMARK  7 active torsions:
REMARK  status: ('A' for Active; 'I' for Inactive)
REMARK       I    between atoms: N_1  and  C_2 
REMARK    1  A    between atoms: C_2  and  C_4 
REMARK    2  A    between atoms: C_4  and  C_5 
REMARK    3  A    between atoms: C_4  and  C_9 
REMARK    4  A    between atoms: C_9  and  C_10 
REMARK       I    between atoms: C_10  and  N_12 
REMARK    5  A    between atoms: N_12  and  C_13 
REMARK    6  A    between atoms: C_13  and  C_14 
REMARK    7  A    between atoms: C_13  and  C_16 
ROOT
HETATM    1  C   UNK N   1      20.541  16.776   8.441  0.00  0.00     0.093 C 
ENDROOT
BRANCH   1   2
HETATM    2  C   UNK N   1      19.600  17.874   8.927  0.00  0.00     0.220 C 
HETATM    3  N   UNK N   1      18.259  17.720   8.901  0.00  0.00    -0.370 N 
HETATM    4  H   UNK N   1      17.783  16.860   8.850  0.00  0.00     0.159 HD
HETATM    5  H   UNK N   1      17.711  18.537   8.937  0.00  0.00     0.159 HD
HETATM    6  O   UNK N   1      20.067  18.918   9.354  0.00  0.00    -0.273 OA
ENDBRANCH   1   2
BRANCH   1   7
HETATM    7  C   UNK N   1      20.858  16.860   6.904  0.00  0.00    -0.039 C 
HETATM    8  C   UNK N   1      22.142  16.146   6.537  0.00  0.00     0.015 C 
HETATM    9  C   UNK N   1      21.073  18.301   6.463  0.00  0.00     0.015 C 
HETATM   10  C   UNK N   1      19.734  16.260   6.069  0.00  0.00     0.015 C 
ENDBRANCH   1   7
BRANCH   1  11
HETATM   11  C   UNK N   1      19.864  15.441   8.842  0.00  0.00     0.117 C 
BRANCH  11  12
HETATM   12  C   UNK N   1      20.676  14.173   8.815  0.00  0.00     0.218 C 
HETATM   13  O   UNK N   1      20.449  13.314   7.985  0.00  0.00    -0.274 OA
HETATM   14  N   UNK N   1      21.590  13.955   9.796  0.00  0.00    -0.356 N 
HETATM   15  H   UNK N   1      21.754  14.671  10.451  0.00  0.00     0.162 HD
BRANCH  14  16
HETATM   16  C   UNK N   1      22.338  12.718   9.924  0.00  0.00     0.083 C 
BRANCH  16  17
HETATM   17  C   UNK N   1      23.815  13.022   9.715  0.00  0.00     0.021 C 
HETATM   18  C   UNK N   1      24.680  12.266  10.710  0.00  0.00     0.007 C 
ENDBRANCH  16  17
BRANCH  16  19
HETATM   19  C   UNK N   1      22.145  12.116  11.316  0.00  0.00     0.021 C 
HETATM   20  C   UNK N   1      20.672  12.089  11.679  0.00  0.00     0.007 C 
ENDBRANCH  16  19
ENDBRANCH  14  16
ENDBRANCH  11  12
ENDBRANCH   1  11
TORSDOF 7
ENDMDL
MODEL 3
REMARK VINA RESULT:      -5.0      2.126      2.726
REMARK  7 active torsions:
REMARK  status: ('A' for Active; 'I' for Inactive)
REMARK       I    between atoms: N_1  and  C_2 
REMARK    1  A    between atoms: C_2  and  C_4 
REMARK    2  A    between atoms: C_4  and  C_5 
REMARK    3  A    between atoms: C_4  and  C_9 
REMARK    4  A    between atoms: C_9  and  C_10 
REMARK       I    between atoms: C_10  and  N_12 
REMARK    5  A    between atoms: N_12  and  C_13 
REMARK    6  A    between atoms: C_13  and  C_14 
REMARK    7  A    between atoms: C_13  and  C_16 
ROOT
HETATM    1  C   UNK N   1      26.253  25.586  -4.558  0.00  0.00     0.093 C 
ENDROOT
BRANCH   1   2
HETATM    2  C   UNK N   1      26.273  24.665  -5.775  0.00  0.00     0.220 C 
HETATM    3  N   UNK N   1      25.356  23.689  -5.940  0.00  0.00    -0.370 N 
HETATM    4  H   UNK N   1      24.479  23.648  -5.494  0.00  0.00     0.159 HD
HETATM    5  H   UNK N   1      25.583  22.958  -6.558  0.00  0.00     0.159 HD
HETATM    6  O   UNK N   1      27.138  24.814  -6.625  0.00  0.00    -0.273 OA
ENDBRANCH   1   2
BRANCH   1   7
HETATM    7  C   UNK N   1      25.861  27.068  -4.902  0.00  0.00    -0.039 C 
HETATM    8  C   UNK N   1      24.602  27.154  -5.740  0.00  0.00     0.015 C 
HETATM    9  C   UNK N   1      26.936  27.743  -5.741  0.00  0.00     0.015 C 
HETATM   10  C   UNK N   1      25.640  27.893  -3.642  0.00  0.00     0.015 C 
ENDBRANCH   1   7
BRANCH   1  11
HETATM   11  C   UNK N   1      27.664  25.469  -3.926  0.00  0.00     0.117 C 
BRANCH  11  12
HETATM   12  C   UNK N   1      28.138  24.124  -3.443  0.00  0.00     0.218 C 
HETATM   13  O   UNK N   1      27.595  23.582  -2.499  0.00  0.00    -0.274 OA
HETATM   14  N   UNK N   1      29.247  23.575  -4.003  0.00  0.00    -0.356 N 
HETATM   15  H   UNK N   1      29.661  24.036  -4.768  0.00  0.00     0.162 HD
BRANCH  14  16
HETATM   16  C   UNK N   1      29.850  22.343  -3.531  0.00  0.00     0.083 C 
BRANCH  16  17
HETATM   17  C   UNK N   1      30.261  21.511  -4.739  0.00  0.00     0.021 C 
HETATM   18  C   UNK N   1      29.464  21.902  -5.973  0.00  0.00     0.007 C 
ENDBRANCH  16  17
BRANCH  16  19
HETATM   19  C   UNK N   1      31.088  22.641  -2.686  0.00  0.00     0.021 C 
HETATM   20  C   UNK N   1      32.136  21.562  -2.888  0.00  0.00     0.007 C 
ENDBRANCH  16  19
ENDBRANCH  14  16
ENDBRANCH  11  12
ENDBRANCH   1  11
TORSDOF 7
ENDMDL
MODEL 4
REMARK VINA RESULT:      -5.0      2.176      5.389
REMARK  7 active torsions:
REMARK  status: ('A' for Active; 'I' for Inactive)
REMARK       I    between atoms: N_1  and  C_2 
REMARK    1  A    between atoms: C_2  and  C_4 
REMARK    2  A    between atoms: C_4  and  C_5 
REMARK    3  A    between atoms: C_4  and  C_9 
REMARK    4  A    between atoms: C_9  and  C_10 
REMARK       I    between atoms: C_10  and  N_12 
REMARK    5  A    between atoms: N_12  and  C_13 
REMARK    6  A    between atoms: C_13  and  C_14 
REMARK    7  A    between atoms: C_13  and  C_16 
ROOT
HETATM    1  C   UNK N   1      29.791  23.437  -3.818  0.00  0.00     0.093 C 
ENDROOT
BRANCH   1   2
HETATM    2  C   UNK N   1      30.400  22.482  -2.795  0.00  0.00     0.220 C 
HETATM    3  N   UNK N   1      30.711  21.208  -3.113  0.00  0.00    -0.370 N 
HETATM    4  H   UNK N   1      30.845  20.863  -4.026  0.00  0.00     0.159 HD
HETATM    5  H   UNK N   1      30.813  20.570  -2.371  0.00  0.00     0.159 HD
HETATM    6  O   UNK N   1      30.616  22.878  -1.660  0.00  0.00    -0.273 OA
ENDBRANCH   1   2
BRANCH   1   7
HETATM    7  C   UNK N   1      30.838  24.417  -4.459  0.00  0.00    -0.039 C 
HETATM    8  C   UNK N   1      30.518  24.743  -5.902  0.00  0.00     0.015 C 
HETATM    9  C   UNK N   1      32.225  23.793  -4.497  0.00  0.00     0.015 C 
HETATM   10  C   UNK N   1      30.918  25.729  -3.689  0.00  0.00     0.015 C 
ENDBRANCH   1   7
BRANCH   1  11
HETATM   11  C   UNK N   1      28.655  24.178  -3.068  0.00  0.00     0.117 C 
BRANCH  11  12
HETATM   12  C   UNK N   1      27.317  24.335  -3.741  0.00  0.00     0.218 C 
HETATM   13  O   UNK N   1      26.302  23.952  -3.191  0.00  0.00    -0.274 OA
HETATM   14  N   UNK N   1      27.271  24.809  -5.013  0.00  0.00    -0.356 N 
HETATM   15  H   UNK N   1      28.109  25.115  -5.429  0.00  0.00     0.162 HD
BRANCH  14  16
HETATM   16  C   UNK N   1      26.046  24.888  -5.788  0.00  0.00     0.083 C 
BRANCH  16  17
HETATM   17  C   UNK N   1      25.892  26.313  -6.304  0.00  0.00     0.021 C 
HETATM   18  C   UNK N   1      24.773  27.043  -5.579  0.00  0.00     0.007 C 
ENDBRANCH  16  17
BRANCH  16  19
HETATM   19  C   UNK N   1      26.101  23.929  -6.977  0.00  0.00     0.021 C 
HETATM   20  C   UNK N   1      25.558  22.569  -6.583  0.00  0.00     0.007 C 
ENDBRANCH  16  19
ENDBRANCH  14  16
ENDBRANCH  11  12
ENDBRANCH   1  11
TORSDOF 7
ENDMDL
MODEL 5
REMARK VINA RESULT:      -4.7     13.681     16.199
REMARK  7 active torsions:
REMARK  status: ('A' for Active; 'I' for Inactive)
REMARK       I    between atoms: N_1  and  C_2 
REMARK    1  A    between atoms: C_2  and  C_4 
REMARK    2  A    between atoms: C_4  and  C_5 
REMARK    3  A    between atoms: C_4  and  C_9 
REMARK    4  A    between atoms: C_9  and  C_10 
REMARK       I    between atoms: C_10  and  N_12 
REMARK    5  A    between atoms: N_12  and  C_13 
REMARK    6  A    between atoms: C_13  and  C_14 
REMARK    7  A    between atoms: C_13  and  C_16 
ROOT
HETATM    1  C   UNK N   1      33.196  16.778   8.157  0.00  0.00     0.093 C 
ENDROOT
BRANCH   1   2
HETATM    2  C   UNK N   1      34.144  17.839   7.605  0.00  0.00     0.220 C 
HETATM    3  N   UNK N   1      34.749  18.736   8.411  0.00  0.00    -0.370 N 
HETATM    4  H   UNK N   1      34.874  18.638   9.383  0.00  0.00     0.159 HD
HETATM    5  H   UNK N   1      35.096  19.556   7.992  0.00  0.00     0.159 HD
HETATM    6  O   UNK N   1      34.364  17.879   6.405  0.00  0.00    -0.273 OA
ENDBRANCH   1   2
BRANCH   1   7
HETATM    7  C   UNK N   1      33.936  15.593   8.876  0.00  0.00    -0.039 C 
HETATM    8  C   UNK N   1      34.541  16.006  10.201  0.00  0.00     0.015 C 
HETATM    9  C   UNK N   1      35.111  15.093   8.048  0.00  0.00     0.015 C 
HETATM   10  C   UNK N   1      32.994  14.424   9.137  0.00  0.00     0.015 C 
ENDBRANCH   1   7
BRANCH   1  11
HETATM   11  C   UNK N   1      32.346  16.311   6.948  0.00  0.00     0.117 C 
BRANCH  11  12
HETATM   12  C   UNK N   1      31.016  16.969   6.694  0.00  0.00     0.218 C 
HETATM   13  O   UNK N   1      30.789  17.510   5.629  0.00  0.00    -0.274 OA
HETATM   14  N   UNK N   1      30.114  17.046   7.707  0.00  0.00    -0.356 N 
HETATM   15  H   UNK N   1      30.325  16.595   8.557  0.00  0.00     0.162 HD
BRANCH  14  16
HETATM   16  C   UNK N   1      28.855  17.759   7.598  0.00  0.00     0.083 C 
BRANCH  16  17
HETATM   17  C   UNK N   1      27.785  16.783   7.127  0.00  0.00     0.021 C 
HETATM   18  C   UNK N   1      27.115  17.272   5.854  0.00  0.00     0.007 C 
ENDBRANCH  16  17
BRANCH  16  19
HETATM   19  C   UNK N   1      28.444  18.334   8.954  0.00  0.00     0.021 C 
HETATM   20  C   UNK N   1      29.673  18.646   9.788  0.00  0.00     0.007 C 
ENDBRANCH  16  19
ENDBRANCH  14  16
ENDBRANCH  11  12
ENDBRANCH   1  11
TORSDOF 7
ENDMDL
MODEL 6
REMARK VINA RESULT:      -4.7     16.901     19.781
REMARK  7 active torsions:
REMARK  status: ('A' for Active; 'I' for Inactive)
REMARK       I    between atoms: N_1  and  C_2 
REMARK    1  A    between atoms: C_2  and  C_4 
REMARK    2  A    between atoms: C_4  and  C_5 
REMARK    3  A    between atoms: C_4  and  C_9 
REMARK    4  A    between atoms: C_9  and  C_10 
REMARK       I    between atoms: C_10  and  N_12 
REMARK    5  A    between atoms: N_12  and  C_13 
REMARK    6  A    between atoms: C_13  and  C_14 
REMARK    7  A    between atoms: C_13  and  C_16 
ROOT
HETATM    1  C   UNK N   1      35.553  14.346  11.247  0.00  0.00     0.093 C 
ENDROOT
BRANCH   1   2
HETATM    2  C   UNK N   1      35.584  14.206  12.767  0.00  0.00     0.220 C 
HETATM    3  N   UNK N   1      36.454  14.907  13.524  0.00  0.00    -0.370 N 
HETATM    4  H   UNK N   1      36.922  15.728  13.246  0.00  0.00     0.159 HD
HETATM    5  H   UNK N   1      36.635  14.570  14.431  0.00  0.00     0.159 HD
HETATM    6  O   UNK N   1      34.803  13.445  13.315  0.00  0.00    -0.273 OA
ENDBRANCH   1   2
BRANCH   1   7
HETATM    7  C   UNK N   1      36.302  13.186  10.498  0.00  0.00    -0.039 C 
HETATM    8  C   UNK N   1      37.533  12.715  11.244  0.00  0.00     0.015 C 
HETATM    9  C   UNK N   1      36.819  13.647   9.144  0.00  0.00     0.015 C 
HETATM   10  C   UNK N   1      35.394  11.981  10.287  0.00  0.00     0.015 C 
ENDBRANCH   1   7
BRANCH   1  11
HETATM   11  C   UNK N   1      36.153  15.742  10.946  0.00  0.00     0.117 C 
BRANCH  11  12
HETATM   12  C   UNK N   1      35.378  16.699  10.080  0.00  0.00     0.218 C 
HETATM   13  O   UNK N   1      35.632  17.888  10.094  0.00  0.00    -0.274 OA
HETATM   14  N   UNK N   1      34.321  16.233   9.366  0.00  0.00    -0.356 N 
HETATM   15  H   UNK N   1      34.143  15.264   9.371  0.00  0.00     0.162 HD
BRANCH  14  16
HETATM   16  C   UNK N   1      33.441  17.091   8.594  0.00  0.00     0.083 C 
BRANCH  16  17
HETATM   17  C   UNK N   1      33.951  17.142   7.160  0.00  0.00     0.021 C 
HETATM   18  C   UNK N   1      34.585  15.822   6.753  0.00  0.00     0.007 C 
ENDBRANCH  16  17
BRANCH  16  19
HETATM   19  C   UNK N   1      32.015  16.541   8.598  0.00  0.00     0.021 C 
HETATM   20  C   UNK N   1      31.015  17.669   8.426  0.00  0.00     0.007 C 
ENDBRANCH  16  19
ENDBRANCH  14  16
ENDBRANCH  11  12
ENDBRANCH   1  11
TORSDOF 7
ENDMDL
MODEL 7
REMARK VINA RESULT:      -4.7      2.335      3.235
REMARK  7 active torsions:
REMARK  status: ('A' for Active; 'I' for Inactive)
REMARK       I    between atoms: N_1  and  C_2 
REMARK    1  A    between atoms: C_2  and  C_4 
REMARK    2  A    between atoms: C_4  and  C_5 
REMARK    3  A    between atoms: C_4  and  C_9 
REMARK    4  A    between atoms: C_9  and  C_10 
REMARK       I    between atoms: C_10  and  N_12 
REMARK    5  A    between atoms: N_12  and  C_13 
REMARK    6  A    between atoms: C_13  and  C_14 
REMARK    7  A    between atoms: C_13  and  C_16 
ROOT
HETATM    1  C   UNK N   1      26.994  25.643  -5.418  0.00  0.00     0.093 C 
ENDROOT
BRANCH   1   2
HETATM    2  C   UNK N   1      26.065  24.557  -4.884  0.00  0.00     0.220 C 
HETATM    3  N   UNK N   1      25.409  23.716  -5.712  0.00  0.00    -0.370 N 
HETATM    4  H   UNK N   1      25.653  23.528  -6.647  0.00  0.00     0.159 HD
HETATM    5  H   UNK N   1      24.620  23.252  -5.350  0.00  0.00     0.159 HD
HETATM    6  O   UNK N   1      25.911  24.439  -3.678  0.00  0.00    -0.273 OA
ENDBRANCH   1   2
BRANCH   1   7
HETATM    7  C   UNK N   1      26.243  26.772  -6.212  0.00  0.00    -0.039 C 
HETATM    8  C   UNK N   1      26.071  26.433  -7.677  0.00  0.00     0.015 C 
HETATM    9  C   UNK N   1      27.032  28.073  -6.201  0.00  0.00     0.015 C 
HETATM   10  C   UNK N   1      24.862  27.039  -5.628  0.00  0.00     0.015 C 
ENDBRANCH   1   7
BRANCH   1  11
HETATM   11  C   UNK N   1      28.048  24.902  -6.279  0.00  0.00     0.117 C 
BRANCH  11  12
HETATM   12  C   UNK N   1      29.229  24.263  -5.597  0.00  0.00     0.218 C 
HETATM   13  O   UNK N   1      30.225  24.916  -5.350  0.00  0.00    -0.274 OA
HETATM   14  N   UNK N   1      29.210  22.926  -5.361  0.00  0.00    -0.356 N 
HETATM   15  H   UNK N   1      28.387  22.426  -5.568  0.00  0.00     0.162 HD
BRANCH  14  16
HETATM   16  C   UNK N   1      30.342  22.198  -4.817  0.00  0.00     0.083 C 
BRANCH  16  17
HETATM   17  C   UNK N   1      30.054  21.877  -3.357  0.00  0.00     0.021 C 
HETATM   18  C   UNK N   1      30.714  22.886  -2.431  0.00  0.00     0.007 C 
ENDBRANCH  16  17
BRANCH  16  19
HETATM   19  C   UNK N   1      30.557  20.892  -5.582  0.00  0.00     0.021 C 
HETATM   20  C   UNK N   1      31.584  20.029  -4.872  0.00  0.00     0.007 C 
ENDBRANCH  16  19
ENDBRANCH  14  16
ENDBRANCH  11  12
ENDBRANCH   1  11
TORSDOF 7
ENDMDL
MODEL 8
REMARK VINA RESULT:      -4.7     12.516     15.263
REMARK  7 active torsions:
REMARK  status: ('A' for Active; 'I' for Inactive)
REMARK       I    between atoms: N_1  and  C_2 
REMARK    1  A    between atoms: C_2  and  C_4 
REMARK    2  A    between atoms: C_4  and  C_5 
REMARK    3  A    between atoms: C_4  and  C_9 
REMARK    4  A    between atoms: C_9  and  C_10 
REMARK       I    between atoms: C_10  and  N_12 
REMARK    5  A    between atoms: N_12  and  C_13 
REMARK    6  A    between atoms: C_13  and  C_14 
REMARK    7  A    between atoms: C_13  and  C_16 
ROOT
HETATM    1  C   UNK N   1      31.924  16.173   7.488  0.00  0.00     0.093 C 
ENDROOT
BRANCH   1   2
HETATM    2  C   UNK N   1      32.127  15.048   8.498  0.00  0.00     0.220 C 
HETATM    3  N   UNK N   1      32.174  15.287   9.826  0.00  0.00    -0.370 N 
HETATM    4  H   UNK N   1      31.822  16.090  10.275  0.00  0.00     0.159 HD
HETATM    5  H   UNK N   1      32.594  14.601  10.392  0.00  0.00     0.159 HD
HETATM    6  O   UNK N   1      32.249  13.900   8.099  0.00  0.00    -0.273 OA
ENDBRANCH   1   2
BRANCH   1   7
HETATM    7  C   UNK N   1      33.244  16.958   7.154  0.00  0.00    -0.039 C 
HETATM    8  C   UNK N   1      33.419  18.191   8.015  0.00  0.00     0.015 C 
HETATM    9  C   UNK N   1      33.229  17.478   5.724  0.00  0.00     0.015 C 
HETATM   10  C   UNK N   1      34.475  16.081   7.338  0.00  0.00     0.015 C 
ENDBRANCH   1   7
BRANCH   1  11
HETATM   11  C   UNK N   1      30.823  17.080   8.094  0.00  0.00     0.117 C 
BRANCH  11  12
HETATM   12  C   UNK N   1      29.546  17.291   7.324  0.00  0.00     0.218 C 
HETATM   13  O   UNK N   1      28.992  16.355   6.781  0.00  0.00    -0.274 OA
HETATM   14  N   UNK N   1      29.082  18.556   7.152  0.00  0.00    -0.356 N 
HETATM   15  H   UNK N   1      29.550  19.293   7.608  0.00  0.00     0.162 HD
BRANCH  14  16
HETATM   16  C   UNK N   1      27.928  18.875   6.331  0.00  0.00     0.083 C 
BRANCH  16  17
HETATM   17  C   UNK N   1      27.290  20.150   6.868  0.00  0.00     0.021 C 
HETATM   18  C   UNK N   1      27.202  21.218   5.790  0.00  0.00     0.007 C 
ENDBRANCH  16  17
BRANCH  16  19
HETATM   19  C   UNK N   1      28.349  19.101   4.879  0.00  0.00     0.021 C 
HETATM   20  C   UNK N   1      27.804  17.995   3.994  0.00  0.00     0.007 C 
ENDBRANCH  16  19
ENDBRANCH  14  16
ENDBRANCH  11  12
ENDBRANCH   1  11
TORSDOF 7
ENDMDL
MODEL 9
REMARK VINA RESULT:      -4.6     17.003     19.979
REMARK  7 active torsions:
REMARK  status: ('A' for Active; 'I' for Inactive)
REMARK       I    between atoms: N_1  and  C_2 
REMARK    1  A    between atoms: C_2  and  C_4 
REMARK    2  A    between atoms: C_4  and  C_5 
REMARK    3  A    between atoms: C_4  and  C_9 
REMARK    4  A    between atoms: C_9  and  C_10 
REMARK       I    between atoms: C_10  and  N_12 
REMARK    5  A    between atoms: N_12  and  C_13 
REMARK    6  A    between atoms: C_13  and  C_14 
REMARK    7  A    between atoms: C_13  and  C_16 
ROOT
HETATM    1  C   UNK N   1      36.276  14.475  11.606  0.00  0.00     0.093 C 
ENDROOT
BRANCH   1   2
HETATM    2  C   UNK N   1      36.892  14.238  10.230  0.00  0.00     0.220 C 
HETATM    3  N   UNK N   1      38.166  14.589   9.954  0.00  0.00    -0.370 N 
HETATM    4  H   UNK N   1      38.872  14.749  10.622  0.00  0.00     0.159 HD
HETATM    5  H   UNK N   1      38.409  14.691   9.006  0.00  0.00     0.159 HD
HETATM    6  O   UNK N   1      36.219  13.717   9.354  0.00  0.00    -0.273 OA
ENDBRANCH   1   2
BRANCH   1   7
HETATM    7  C   UNK N   1      36.312  13.206  12.532  0.00  0.00    -0.039 C 
HETATM    8  C   UNK N   1      36.494  13.560  13.993  0.00  0.00     0.015 C 
HETATM    9  C   UNK N   1      37.495  12.310  12.196  0.00  0.00     0.015 C 
HETATM   10  C   UNK N   1      35.033  12.388  12.406  0.00  0.00     0.015 C 
ENDBRANCH   1   7
BRANCH   1  11
HETATM   11  C   UNK N   1      34.837  14.982  11.336  0.00  0.00     0.117 C 
BRANCH  11  12
HETATM   12  C   UNK N   1      34.643  16.213  10.491  0.00  0.00     0.218 C 
HETATM   13  O   UNK N   1      35.210  17.250  10.775  0.00  0.00    -0.274 OA
HETATM   14  N   UNK N   1      33.744  16.179   9.473  0.00  0.00    -0.356 N 
HETATM   15  H   UNK N   1      33.305  15.323   9.265  0.00  0.00     0.162 HD
BRANCH  14  16
HETATM   16  C   UNK N   1      33.401  17.342   8.676  0.00  0.00     0.083 C 
BRANCH  16  17
HETATM   17  C   UNK N   1      34.380  17.439   7.514  0.00  0.00     0.021 C 
HETATM   18  C   UNK N   1      33.657  17.387   6.178  0.00  0.00     0.007 C 
ENDBRANCH  16  17
BRANCH  16  19
HETATM   19  C   UNK N   1      31.981  17.215   8.124  0.00  0.00     0.021 C 
HETATM   20  C   UNK N   1      31.073  18.249   8.761  0.00  0.00     0.007 C 
ENDBRANCH  16  19
ENDBRANCH  14  16
ENDBRANCH  11  12
ENDBRANCH   1  11
TORSDOF 7
ENDMDL
