MODEL 1
REMARK VINA RESULT:      -5.4      0.000      0.000
REMARK  9 active torsions:
REMARK  status: ('A' for Active; 'I' for Inactive)
REMARK    1  A    between atoms: C_2  and  C_3 
REMARK    2  A    between atoms: C_3  and  C_4 
REMARK    3  A    between atoms: C_4  and  C_5 
REMARK    4  A    between atoms: C_5  and  C_6 
REMARK    5  A    between atoms: C_6  and  P_7 
REMARK    6  A    between atoms: P_7  and  O_9 
REMARK    7  A    between atoms: P_7  and  O_18 
REMARK    8  A    between atoms: O_9  and  C_10 
REMARK    9  A    between atoms: C_11  and  C_10 
ROOT
HETATM    1  P   UNK N   1      34.241  17.817   7.981  0.00  0.00     0.238 P 
HETATM    2  O   UNK N   1      34.457  17.809   6.441  0.00  0.00    -0.653 OA
ENDROOT
BRANCH   1   3
HETATM    3  C   UNK N   1      32.432  18.021   8.346  0.00  0.00     0.125 C 
BRANCH   3   4
HETATM    4  C   UNK N   1      31.673  16.813   7.831  0.00  0.00     0.012 C 
BRANCH   4   5
HETATM    5  C   UNK N   1      30.180  17.093   7.879  0.00  0.00     0.004 C 
BRANCH   5   6
HETATM    6  C   UNK N   1      29.830  17.959   9.076  0.00  0.00     0.026 C 
BRANCH   6   7
HETATM    7  C   UNK N   1      28.468  18.530   8.894  0.00  0.00    -0.037 C 
HETATM    8  C   UNK N   1      28.119  19.056   7.725  0.00  0.00     0.007 C 
ENDBRANCH   6   7
ENDBRANCH   5   6
ENDBRANCH   4   5
ENDBRANCH   3   4
ENDBRANCH   1   3
BRANCH   1   9
HETATM    9  O   UNK N   1      34.963  16.357   8.626  0.00  0.00    -0.316 OA
BRANCH   9  10
HETATM   10  C   UNK N   1      34.752  16.339  10.009  0.00  0.00     0.212 C 
BRANCH  10  11
HETATM   11  C   UNK N   1      33.939  15.109  10.413  0.00  0.00     0.173 C 
HETATM   12  C   UNK N   1      34.132  13.994   9.440  0.00  0.00     0.205 C 
HETATM   13  O   UNK N   1      35.264  13.325   9.887  0.00  0.00    -0.353 OA
HETATM   14  C   UNK N   1      35.279  13.554  11.278  0.00  0.00     0.157 C 
HETATM   15  O   UNK N   1      34.413  14.614  11.625  0.00  0.00    -0.346 OA
HETATM   16  C   UNK N   1      36.690  13.915  11.703  0.00  0.00     0.078 C 
HETATM   17  C   UNK N   1      34.845  12.292  12.003  0.00  0.00     0.078 C 
ENDBRANCH  10  11
ENDBRANCH   9  10
ENDBRANCH   1   9
BRANCH   1  18
HETATM   18  O   UNK N   1      35.231  19.136   8.521  0.00  0.00    -0.329 OA
HETATM   19  H   UNK N   1      36.201  19.151   8.506  0.00  0.00     0.220 HD
ENDBRANCH   1  18
TORSDOF 9
ENDMDL
MODEL 2
REMARK VINA RESULT:      -5.3      2.833      4.500
REMARK  9 active torsions:
REMARK  status: ('A' for Active; 'I' for Inactive)
REMARK    1  A    between atoms: C_2  and  C_3 
REMARK    2  A    between atoms: C_3  and  C_4 
REMARK    3  A    between atoms: C_4  and  C_5 
REMARK    4  A    between atoms: C_5  and  C_6 
REMARK    5  A    between atoms: C_6  and  P_7 
REMARK    6  A    between atoms: P_7  and  O_9 
REMARK    7  A    between atoms: P_7  and  O_18 
REMARK    8  A    between atoms: O_9  and  C_10 
REMARK    9  A    between atoms: C_11  and  C_10 
ROOT
HETATM    1  P   UNK N   1      35.172  15.530  10.917  0.00  0.00     0.238 P 
HETATM    2  O   UNK N   1      35.165  17.081  10.798  0.00  0.00    -0.653 OA
ENDROOT
BRANCH   1   3
HETATM    3  C   UNK N   1      35.884  14.799   9.368  0.00  0.00     0.125 C 
BRANCH   3   4
HETATM    4  C   UNK N   1      34.772  14.558   8.365  0.00  0.00     0.012 C 
BRANCH   4   5
HETATM    5  C   UNK N   1      34.733  15.701   7.364  0.00  0.00     0.004 C 
BRANCH   5   6
HETATM    6  C   UNK N   1      33.302  16.102   7.055  0.00  0.00     0.026 C 
BRANCH   6   7
HETATM    7  C   UNK N   1      32.878  17.185   7.984  0.00  0.00    -0.037 C 
HETATM    8  C   UNK N   1      33.546  18.332   8.016  0.00  0.00     0.007 C 
ENDBRANCH   6   7
ENDBRANCH   5   6
ENDBRANCH   4   5
ENDBRANCH   3   4
ENDBRANCH   1   3
BRANCH   1   9
HETATM    9  O   UNK N   1      36.026  15.115  12.389  0.00  0.00    -0.316 OA
BRANCH   9  10
HETATM   10  C   UNK N   1      36.419  13.774  12.303  0.00  0.00     0.212 C 
BRANCH  10  11
HETATM   11  C   UNK N   1      35.593  12.910  13.257  0.00  0.00     0.173 C 
HETATM   12  C   UNK N   1      36.402  11.776  13.791  0.00  0.00     0.205 C 
HETATM   13  O   UNK N   1      37.046  12.294  14.907  0.00  0.00    -0.353 OA
HETATM   14  C   UNK N   1      36.185  13.313  15.366  0.00  0.00     0.157 C 
HETATM   15  O   UNK N   1      35.239  13.659  14.376  0.00  0.00    -0.346 OA
HETATM   16  C   UNK N   1      37.011  14.540  15.704  0.00  0.00     0.078 C 
HETATM   17  C   UNK N   1      35.460  12.838  16.613  0.00  0.00     0.078 C 
ENDBRANCH  10  11
ENDBRANCH   9  10
ENDBRANCH   1   9
BRANCH   1  18
HETATM   18  O   UNK N   1      33.502  15.140  11.191  0.00  0.00    -0.329 OA
HETATM   19  H   UNK N   1      32.863  14.899  10.502  0.00  0.00     0.220 HD
ENDBRANCH   1  18
TORSDOF 9
ENDMDL
MODEL 3
REMARK VINA RESULT:      -5.2      2.743      7.087
REMARK  9 active torsions:
REMARK  status: ('A' for Active; 'I' for Inactive)
REMARK    1  A    between atoms: C_2  and  C_3 
REMARK    2  A    between atoms: C_3  and  C_4 
REMARK    3  A    between atoms: C_4  and  C_5 
REMARK    4  A    between atoms: C_5  and  C_6 
REMARK    5  A    between atoms: C_6  and  P_7 
REMARK    6  A    between atoms: P_7  and  O_9 
REMARK    7  A    between atoms: P_7  and  O_18 
REMARK    8  A    between atoms: O_9  and  C_10 
REMARK    9  A    between atoms: C_11  and  C_10 
ROOT
HETATM    1  P   UNK N   1      35.449  15.529  10.336  0.00  0.00     0.238 P 
HETATM    2  O   UNK N   1      36.723  16.302  10.784  0.00  0.00    -0.653 OA
ENDROOT
BRANCH   1   3
HETATM    3  C   UNK N   1      34.932  14.364  11.684  0.00  0.00     0.125 C 
BRANCH   3   4
HETATM    4  C   UNK N   1      35.949  14.406  12.807  0.00  0.00     0.012 C 
BRANCH   4   5
HETATM    5  C   UNK N   1      35.528  13.449  13.911  0.00  0.00     0.004 C 
BRANCH   5   6
HETATM    6  C   UNK N   1      36.387  13.638  15.149  0.00  0.00     0.026 C 
BRANCH   6   7
HETATM    7  C   UNK N   1      35.568  13.382  16.364  0.00  0.00    -0.037 C 
HETATM    8  C   UNK N   1      35.472  12.152  16.854  0.00  0.00     0.007 C 
ENDBRANCH   6   7
ENDBRANCH   5   6
ENDBRANCH   4   5
ENDBRANCH   3   4
ENDBRANCH   1   3
BRANCH   1   9
HETATM    9  O   UNK N   1      34.242  16.715   9.881  0.00  0.00    -0.316 OA
BRANCH   9  10
HETATM   10  C   UNK N   1      33.357  16.113   8.979  0.00  0.00     0.212 C 
BRANCH  10  11
HETATM   11  C   UNK N   1      32.750  17.159   8.043  0.00  0.00     0.173 C 
HETATM   12  C   UNK N   1      33.709  18.274   7.790  0.00  0.00     0.205 C 
HETATM   13  O   UNK N   1      34.479  17.842   6.718  0.00  0.00    -0.353 OA
HETATM   14  C   UNK N   1      33.631  16.969   6.006  0.00  0.00     0.157 C 
HETATM   15  O   UNK N   1      32.522  16.589   6.794  0.00  0.00    -0.346 OA
HETATM   16  C   UNK N   1      34.411  15.724   5.627  0.00  0.00     0.078 C 
HETATM   17  C   UNK N   1      33.142  17.657   4.744  0.00  0.00     0.078 C 
ENDBRANCH  10  11
ENDBRANCH   9  10
ENDBRANCH   1   9
BRANCH   1  18
HETATM   18  O   UNK N   1      35.949  14.748   8.868  0.00  0.00    -0.329 OA
HETATM   19  H   UNK N   1      35.808  15.094   7.973  0.00  0.00     0.220 HD
ENDBRANCH   1  18
TORSDOF 9
ENDMDL
MODEL 4
REMARK VINA RESULT:      -5.1      2.084      3.229
REMARK  9 active torsions:
REMARK  status: ('A' for Active; 'I' for Inactive)
REMARK    1  A    between atoms: C_2  and  C_3 
REMARK    2  A    between atoms: C_3  and  C_4 
REMARK    3  A    between atoms: C_4  and  C_5 
REMARK    4  A    between atoms: C_5  and  C_6 
REMARK    5  A    between atoms: C_6  and  P_7 
REMARK    6  A    between atoms: P_7  and  O_9 
REMARK    7  A    between atoms: P_7  and  O_18 
REMARK    8  A    between atoms: O_9  and  C_10 
REMARK    9  A    between atoms: C_11  and  C_10 
ROOT
HETATM    1  P   UNK N   1      35.014  15.856   9.885  0.00  0.00     0.238 P 
HETATM    2  O   UNK N   1      35.662  17.116  10.528  0.00  0.00    -0.653 OA
ENDROOT
BRANCH   1   3
HETATM    3  C   UNK N   1      34.546  16.235   8.130  0.00  0.00     0.125 C 
BRANCH   3   4
HETATM    4  C   UNK N   1      34.371  17.732   7.965  0.00  0.00     0.012 C 
BRANCH   4   5
HETATM    5  C   UNK N   1      32.953  18.123   8.348  0.00  0.00     0.004 C 
BRANCH   5   6
HETATM    6  C   UNK N   1      31.943  17.172   7.731  0.00  0.00     0.026 C 
BRANCH   6   7
HETATM    7  C   UNK N   1      30.581  17.503   8.230  0.00  0.00    -0.037 C 
HETATM    8  C   UNK N   1      30.402  18.545   9.034  0.00  0.00     0.007 C 
ENDBRANCH   6   7
ENDBRANCH   5   6
ENDBRANCH   4   5
ENDBRANCH   3   4
ENDBRANCH   1   3
BRANCH   1   9
HETATM    9  O   UNK N   1      36.137  14.525  10.078  0.00  0.00    -0.316 OA
BRANCH   9  10
HETATM   10  C   UNK N   1      36.444  14.407  11.439  0.00  0.00     0.212 C 
BRANCH  10  11
HETATM   11  C   UNK N   1      35.535  13.375  12.107  0.00  0.00     0.173 C 
HETATM   12  C   UNK N   1      36.295  12.140  12.463  0.00  0.00     0.205 C 
HETATM   13  O   UNK N   1      36.829  12.402  13.718  0.00  0.00    -0.353 OA
HETATM   14  C   UNK N   1      35.925  13.315  14.300  0.00  0.00     0.157 C 
HETATM   15  O   UNK N   1      35.075  13.877  13.321  0.00  0.00    -0.346 OA
HETATM   16  C   UNK N   1      36.710  14.430  14.964  0.00  0.00     0.078 C 
HETATM   17  C   UNK N   1      35.088  12.601  15.345  0.00  0.00     0.078 C 
ENDBRANCH  10  11
ENDBRANCH   9  10
ENDBRANCH   1   9
BRANCH   1  18
HETATM   18  O   UNK N   1      33.667  15.518  10.927  0.00  0.00    -0.329 OA
HETATM   19  H   UNK N   1      32.755  15.812  10.777  0.00  0.00     0.220 HD
ENDBRANCH   1  18
TORSDOF 9
ENDMDL
MODEL 5
REMARK VINA RESULT:      -5.1     14.832     17.860
REMARK  9 active torsions:
REMARK  status: ('A' for Active; 'I' for Inactive)
REMARK    1  A    between atoms: C_2  and  C_3 
REMARK    2  A    between atoms: C_3  and  C_4 
REMARK    3  A    between atoms: C_4  and  C_5 
REMARK    4  A    between atoms: C_5  and  C_6 
REMARK    5  A    between atoms: C_6  and  P_7 
REMARK    6  A    between atoms: P_7  and  O_9 
REMARK    7  A    between atoms: P_7  and  O_18 
REMARK    8  A    between atoms: O_9  and  C_10 
REMARK    9  A    between atoms: C_11  and  C_10 
ROOT
HETATM    1  P   UNK N   1      30.135  23.603  -3.058  0.00  0.00     0.238 P 
HETATM    2  O   UNK N   1      30.759  22.966  -1.784  0.00  0.00    -0.653 OA
ENDROOT
BRANCH   1   3
HETATM    3  C   UNK N   1      30.735  22.690  -4.558  0.00  0.00     0.125 C 
BRANCH   3   4
HETATM    4  C   UNK N   1      30.528  21.201  -4.360  0.00  0.00     0.012 C 
BRANCH   4   5
HETATM    5  C   UNK N   1      30.659  20.487  -5.696  0.00  0.00     0.004 C 
BRANCH   5   6
HETATM    6  C   UNK N   1      29.925  21.244  -6.788  0.00  0.00     0.026 C 
BRANCH   6   7
HETATM    7  C   UNK N   1      29.061  20.302  -7.550  0.00  0.00    -0.037 C 
HETATM    8  C   UNK N   1      29.377  19.014  -7.614  0.00  0.00     0.007 C 
ENDBRANCH   6   7
ENDBRANCH   5   6
ENDBRANCH   4   5
ENDBRANCH   3   4
ENDBRANCH   1   3
BRANCH   1   9
HETATM    9  O   UNK N   1      28.395  23.614  -2.848  0.00  0.00    -0.316 OA
BRANCH   9  10
HETATM   10  C   UNK N   1      27.817  24.125  -4.015  0.00  0.00     0.212 C 
BRANCH  10  11
HETATM   11  C   UNK N   1      26.931  25.329  -3.694  0.00  0.00     0.173 C 
HETATM   12  C   UNK N   1      27.569  26.600  -4.148  0.00  0.00     0.205 C 
HETATM   13  O   UNK N   1      27.179  26.738  -5.474  0.00  0.00    -0.353 OA
HETATM   14  C   UNK N   1      25.940  26.069  -5.546  0.00  0.00     0.157 C 
HETATM   15  O   UNK N   1      25.746  25.242  -4.418  0.00  0.00    -0.346 OA
HETATM   16  C   UNK N   1      25.918  25.207  -6.794  0.00  0.00     0.078 C 
HETATM   17  C   UNK N   1      24.819  27.089  -5.623  0.00  0.00     0.078 C 
ENDBRANCH  10  11
ENDBRANCH   9  10
ENDBRANCH   1   9
BRANCH   1  18
HETATM   18  O   UNK N   1      30.650  25.259  -2.976  0.00  0.00    -0.329 OA
HETATM   19  H   UNK N   1      30.557  25.911  -3.688  0.00  0.00     0.220 HD
ENDBRANCH   1  18
TORSDOF 9
ENDMDL
MODEL 6
REMARK VINA RESULT:      -5.1      2.917      7.181
REMARK  9 active torsions:
REMARK  status: ('A' for Active; 'I' for Inactive)
REMARK    1  A    between atoms: C_2  and  C_3 
REMARK    2  A    between atoms: C_3  and  C_4 
REMARK    3  A    between atoms: C_4  and  C_5 
REMARK    4  A    between atoms: C_5  and  C_6 
REMARK    5  A    between atoms: C_6  and  P_7 
REMARK    6  A    between atoms: P_7  and  O_9 
REMARK    7  A    between atoms: P_7  and  O_18 
REMARK    8  A    between atoms: O_9  and  C_10 
REMARK    9  A    between atoms: C_11  and  C_10 
ROOT
HETATM    1  P   UNK N   1      35.310  14.743  11.254  0.00  0.00     0.238 P 
HETATM    2  O   UNK N   1      35.509  13.457  10.401  0.00  0.00    -0.653 OA
ENDROOT
BRANCH   1   3
HETATM    3  C   UNK N   1      36.112  14.511  12.911  0.00  0.00     0.125 C 
BRANCH   3   4
HETATM    4  C   UNK N   1      35.378  13.431  13.682  0.00  0.00     0.012 C 
BRANCH   4   5
HETATM    5  C   UNK N   1      35.771  13.496  15.149  0.00  0.00     0.004 C 
BRANCH   5   6
HETATM    6  C   UNK N   1      34.719  12.836  16.022  0.00  0.00     0.026 C 
BRANCH   6   7
HETATM    7  C   UNK N   1      35.148  12.892  17.445  0.00  0.00    -0.037 C 
HETATM    8  C   UNK N   1      35.292  14.065  18.050  0.00  0.00     0.007 C 
ENDBRANCH   6   7
ENDBRANCH   5   6
ENDBRANCH   4   5
ENDBRANCH   3   4
ENDBRANCH   1   3
BRANCH   1   9
HETATM    9  O   UNK N   1      35.919  16.096  10.323  0.00  0.00    -0.316 OA
BRANCH   9  10
HETATM   10  C   UNK N   1      34.825  16.787   9.789  0.00  0.00     0.212 C 
BRANCH  10  11
HETATM   11  C   UNK N   1      34.798  16.658   8.266  0.00  0.00     0.173 C 
HETATM   12  C   UNK N   1      34.106  15.405   7.845  0.00  0.00     0.205 C 
HETATM   13  O   UNK N   1      32.761  15.746   7.785  0.00  0.00    -0.353 OA
HETATM   14  C   UNK N   1      32.762  17.125   7.492  0.00  0.00     0.157 C 
HETATM   15  O   UNK N   1      34.036  17.690   7.725  0.00  0.00    -0.346 OA
HETATM   16  C   UNK N   1      31.749  17.818   8.384  0.00  0.00     0.078 C 
HETATM   17  C   UNK N   1      32.376  17.334   6.039  0.00  0.00     0.078 C 
ENDBRANCH  10  11
ENDBRANCH   9  10
ENDBRANCH   1   9
BRANCH   1  18
HETATM   18  O   UNK N   1      33.584  14.923  11.314  0.00  0.00    -0.329 OA
HETATM   19  H   UNK N   1      32.945  14.349  10.865  0.00  0.00     0.220 HD
ENDBRANCH   1  18
TORSDOF 9
ENDMDL
MODEL 7
REMARK VINA RESULT:      -5.0      2.954      4.199
REMARK  9 active torsions:
REMARK  status: ('A' for Active; 'I' for Inactive)
REMARK    1  A    between atoms: C_2  and  C_3 
REMARK    2  A    between atoms: C_3  and  C_4 
REMARK    3  A    between atoms: C_4  and  C_5 
REMARK    4  A    between atoms: C_5  and  C_6 
REMARK    5  A    between atoms: C_6  and  P_7 
REMARK    6  A    between atoms: P_7  and  O_9 
REMARK    7  A    between atoms: P_7  and  O_18 
REMARK    8  A    between atoms: O_9  and  C_10 
REMARK    9  A    between atoms: C_11  and  C_10 
ROOT
HETATM    1  P   UNK N   1      34.780  15.606  10.310  0.00  0.00     0.238 P 
HETATM    2  O   UNK N   1      35.209  16.874  11.103  0.00  0.00    -0.653 OA
ENDROOT
BRANCH   1   3
HETATM    3  C   UNK N   1      34.438  16.071   8.546  0.00  0.00     0.125 C 
BRANCH   3   4
HETATM    4  C   UNK N   1      33.391  17.167   8.506  0.00  0.00     0.012 C 
BRANCH   4   5
HETATM    5  C   UNK N   1      33.436  17.863   7.156  0.00  0.00     0.004 C 
BRANCH   5   6
HETATM    6  C   UNK N   1      34.084  16.974   6.109  0.00  0.00     0.026 C 
BRANCH   6   7
HETATM    7  C   UNK N   1      33.105  16.690   5.025  0.00  0.00    -0.037 C 
HETATM    8  C   UNK N   1      32.516  17.692   4.382  0.00  0.00     0.007 C 
ENDBRANCH   6   7
ENDBRANCH   5   6
ENDBRANCH   4   5
ENDBRANCH   3   4
ENDBRANCH   1   3
BRANCH   1   9
HETATM    9  O   UNK N   1      36.030  14.397  10.526  0.00  0.00    -0.316 OA
BRANCH   9  10
HETATM   10  C   UNK N   1      35.552  13.429  11.417  0.00  0.00     0.212 C 
BRANCH  10  11
HETATM   11  C   UNK N   1      36.486  13.301  12.622  0.00  0.00     0.173 C 
HETATM   12  C   UNK N   1      36.064  14.212  13.726  0.00  0.00     0.205 C 
HETATM   13  O   UNK N   1      35.125  13.484  14.446  0.00  0.00    -0.353 OA
HETATM   14  C   UNK N   1      35.493  12.138  14.241  0.00  0.00     0.157 C 
HETATM   15  O   UNK N   1      36.386  12.019  13.154  0.00  0.00    -0.346 OA
HETATM   16  C   UNK N   1      34.246  11.328  13.942  0.00  0.00     0.078 C 
HETATM   17  C   UNK N   1      36.152  11.597  15.497  0.00  0.00     0.078 C 
ENDBRANCH  10  11
ENDBRANCH   9  10
ENDBRANCH   1   9
BRANCH   1  18
HETATM   18  O   UNK N   1      33.390  15.037  11.181  0.00  0.00    -0.329 OA
HETATM   19  H   UNK N   1      33.139  15.312  12.077  0.00  0.00     0.220 HD
ENDBRANCH   1  18
TORSDOF 9
ENDMDL
MODEL 8
REMARK VINA RESULT:      -5.0      2.331      3.695
REMARK  9 active torsions:
REMARK  status: ('A' for Active; 'I' for Inactive)
REMARK    1  A    between atoms: C_2  and  C_3 
REMARK    2  A    between atoms: C_3  and  C_4 
REMARK    3  A    between atoms: C_4  and  C_5 
REMARK    4  A    between atoms: C_5  and  C_6 
REMARK    5  A    between atoms: C_6  and  P_7 
REMARK    6  A    between atoms: P_7  and  O_9 
REMARK    7  A    between atoms: P_7  and  O_18 
REMARK    8  A    between atoms: O_9  and  C_10 
REMARK    9  A    between atoms: C_11  and  C_10 
ROOT
HETATM    1  P   UNK N   1      35.378  15.346  10.379  0.00  0.00     0.238 P 
HETATM    2  O   UNK N   1      35.912  14.216   9.453  0.00  0.00    -0.653 OA
ENDROOT
BRANCH   1   3
HETATM    3  C   UNK N   1      34.277  16.474   9.399  0.00  0.00     0.125 C 
BRANCH   3   4
HETATM    4  C   UNK N   1      33.717  15.723   8.206  0.00  0.00     0.012 C 
BRANCH   4   5
HETATM    5  C   UNK N   1      32.260  16.105   8.003  0.00  0.00     0.004 C 
BRANCH   5   6
HETATM    6  C   UNK N   1      32.013  17.543   8.427  0.00  0.00     0.026 C 
BRANCH   6   7
HETATM    7  C   UNK N   1      30.550  17.777   8.557  0.00  0.00    -0.037 C 
HETATM    8  C   UNK N   1      30.101  18.773   9.311  0.00  0.00     0.007 C 
ENDBRANCH   6   7
ENDBRANCH   5   6
ENDBRANCH   4   5
ENDBRANCH   3   4
ENDBRANCH   1   3
BRANCH   1   9
HETATM    9  O   UNK N   1      34.613  14.583  11.758  0.00  0.00    -0.316 OA
BRANCH   9  10
HETATM   10  C   UNK N   1      35.002  13.239  11.786  0.00  0.00     0.212 C 
BRANCH  10  11
HETATM   11  C   UNK N   1      36.058  13.008  12.867  0.00  0.00     0.173 C 
HETATM   12  C   UNK N   1      35.838  13.911  14.035  0.00  0.00     0.205 C 
HETATM   13  O   UNK N   1      34.939  13.230  14.845  0.00  0.00    -0.353 OA
HETATM   14  C   UNK N   1      35.179  11.869  14.568  0.00  0.00     0.157 C 
HETATM   15  O   UNK N   1      35.927  11.720  13.379  0.00  0.00    -0.346 OA
HETATM   16  C   UNK N   1      33.849  11.158  14.401  0.00  0.00     0.078 C 
HETATM   17  C   UNK N   1      35.939  11.243  15.723  0.00  0.00     0.078 C 
ENDBRANCH  10  11
ENDBRANCH   9  10
ENDBRANCH   1   9
BRANCH   1  18
HETATM   18  O   UNK N   1      36.825  16.098  10.973  0.00  0.00    -0.329 OA
HETATM   19  H   UNK N   1      37.088  16.150  11.905  0.00  0.00     0.220 HD
ENDBRANCH   1  18
TORSDOF 9
ENDMDL
MODEL 9
REMARK VINA RESULT:      -4.9      3.545      4.880
REMARK  9 active torsions:
REMARK  status: ('A' for Active; 'I' for Inactive)
REMARK    1  A    between atoms: C_2  and  C_3 
REMARK    2  A    between atoms: C_3  and  C_4 
REMARK    3  A    between atoms: C_4  and  C_5 
REMARK    4  A    between atoms: C_5  and  C_6 
REMARK    5  A    between atoms: C_6  and  P_7 
REMARK    6  A    between atoms: P_7  and  O_9 
REMARK    7  A    between atoms: P_7  and  O_18 
REMARK    8  A    between atoms: O_9  and  C_10 
REMARK    9  A    between atoms: C_11  and  C_10 
ROOT
HETATM    1  P   UNK N   1      28.672  17.623   8.118  0.00  0.00     0.238 P 
HETATM    2  O   UNK N   1      28.819  19.172   8.098  0.00  0.00    -0.653 OA
ENDROOT
BRANCH   1   3
HETATM    3  C   UNK N   1      28.200  17.029   6.425  0.00  0.00     0.125 C 
BRANCH   3   4
HETATM    4  C   UNK N   1      28.818  17.937   5.380  0.00  0.00     0.012 C 
BRANCH   4   5
HETATM    5  C   UNK N   1      27.718  18.578   4.549  0.00  0.00     0.004 C 
BRANCH   5   6
HETATM    6  C   UNK N   1      27.849  20.091   4.551  0.00  0.00     0.026 C 
BRANCH   6   7
HETATM    7  C   UNK N   1      26.773  20.681   5.392  0.00  0.00    -0.037 C 
HETATM    8  C   UNK N   1      27.064  21.625   6.279  0.00  0.00     0.007 C 
ENDBRANCH   6   7
ENDBRANCH   5   6
ENDBRANCH   4   5
ENDBRANCH   3   4
ENDBRANCH   1   3
BRANCH   1   9
HETATM    9  O   UNK N   1      30.166  16.957   8.745  0.00  0.00    -0.316 OA
BRANCH   9  10
HETATM   10  C   UNK N   1      31.145  17.955   8.694  0.00  0.00     0.212 C 
BRANCH  10  11
HETATM   11  C   UNK N   1      32.211  17.610   7.654  0.00  0.00     0.173 C 
HETATM   12  C   UNK N   1      33.540  18.169   8.041  0.00  0.00     0.205 C 
HETATM   13  O   UNK N   1      34.106  17.201   8.861  0.00  0.00    -0.353 OA
HETATM   14  C   UNK N   1      33.535  15.990   8.420  0.00  0.00     0.157 C 
HETATM   15  O   UNK N   1      32.397  16.230   7.618  0.00  0.00    -0.346 OA
HETATM   16  C   UNK N   1      33.117  15.174   9.629  0.00  0.00     0.078 C 
HETATM   17  C   UNK N   1      34.561  15.209   7.620  0.00  0.00     0.078 C 
ENDBRANCH  10  11
ENDBRANCH   9  10
ENDBRANCH   1   9
BRANCH   1  18
HETATM   18  O   UNK N   1      27.463  17.350   9.334  0.00  0.00    -0.329 OA
HETATM   19  H   UNK N   1      26.784  16.658   9.304  0.00  0.00     0.220 HD
ENDBRANCH   1  18
TORSDOF 9
ENDMDL
