MODEL 1
REMARK VINA RESULT:      -6.0      0.000      0.000
REMARK  1 active torsions:
REMARK  status: ('A' for Active; 'I' for Inactive)
REMARK    1  A    between atoms: C_2  and  N_1 
ROOT
HETATM    1  C   UNK N   1      36.164  14.194  14.968  0.00  0.00     0.167 C 
HETATM    2  C   UNK N   1      35.987  13.005  15.915  0.00  0.00     0.034 C 
HETATM    3  C   UNK N   1      34.540  12.542  15.997  0.00  0.00     0.002 C 
HETATM    4  C   UNK N   1      34.467  11.033  15.844  0.00  0.00     0.000 C 
HETATM    5  C   UNK N   1      33.691  10.677  14.588  0.00  0.00     0.000 C 
HETATM    6  C   UNK N   1      34.649  10.351  13.457  0.00  0.00     0.000 C 
HETATM    7  C   UNK N   1      33.878  10.247  12.154  0.00  0.00     0.000 C 
HETATM    8  C   UNK N   1      34.829  10.167  10.968  0.00  0.00     0.000 C 
HETATM    9  C   UNK N   1      35.256  11.557  10.528  0.00  0.00     0.002 C 
HETATM   10  C   UNK N   1      36.574  11.931  11.176  0.00  0.00     0.020 C 
HETATM   11  C   UNK N   1      36.701  13.444  11.238  0.00  0.00     0.122 C 
HETATM   12  N   UNK N   1      36.893  13.863  12.607  0.00  0.00    -0.359 N 
HETATM   13  C   UNK N   1      35.901  13.789  13.535  0.00  0.00     0.239 C 
HETATM   14  O   UNK N   1      34.790  13.396  13.215  0.00  0.00    -0.271 OA
HETATM   15  H   UNK N   1      37.772  14.213  12.879  0.00  0.00     0.162 HD
ENDROOT
BRANCH   1  16
HETATM   16  N   UNK N   1      37.520  14.696  15.116  0.00  0.00    -0.418 N 
HETATM   17  H   UNK N   1      38.173  15.085  14.435  0.00  0.00     0.150 HD
HETATM   18  H   UNK N   1      37.882  14.653  16.068  0.00  0.00     0.150 HD
ENDBRANCH   1  16
TORSDOF 1
ENDMDL
MODEL 2
REMARK VINA RESULT:      -5.7      9.208     10.665
REMARK  1 active torsions:
REMARK  status: ('A' for Active; 'I' for Inactive)
REMARK    1  A    between atoms: C_2  and  N_1 
ROOT
HETATM    1  C   UNK N   1      28.598  17.827   5.109  0.00  0.00     0.167 C 
HETATM    2  C   UNK N   1      28.466  18.630   6.405  0.00  0.00     0.034 C 
HETATM    3  C   UNK N   1      28.570  17.751   7.643  0.00  0.00     0.002 C 
HETATM    4  C   UNK N   1      29.534  18.368   8.640  0.00  0.00     0.000 C 
HETATM    5  C   UNK N   1      30.726  17.449   8.845  0.00  0.00     0.000 C 
HETATM    6  C   UNK N   1      31.902  17.925   8.011  0.00  0.00     0.000 C 
HETATM    7  C   UNK N   1      32.992  16.869   8.023  0.00  0.00     0.000 C 
HETATM    8  C   UNK N   1      34.076  17.198   7.007  0.00  0.00     0.000 C 
HETATM    9  C   UNK N   1      33.690  16.689   5.628  0.00  0.00     0.002 C 
HETATM   10  C   UNK N   1      33.023  17.791   4.829  0.00  0.00     0.020 C 
HETATM   11  C   UNK N   1      32.136  17.179   3.757  0.00  0.00     0.122 C 
HETATM   12  N   UNK N   1      30.780  17.652   3.918  0.00  0.00    -0.359 N 
HETATM   13  C   UNK N   1      29.994  17.266   4.958  0.00  0.00     0.239 C 
HETATM   14  O   UNK N   1      30.412  16.463   5.776  0.00  0.00    -0.271 OA
HETATM   15  H   UNK N   1      30.413  18.276   3.250  0.00  0.00     0.162 HD
ENDROOT
BRANCH   1  16
HETATM   16  N   UNK N   1      28.277  18.704   3.995  0.00  0.00    -0.418 N 
HETATM   17  H   UNK N   1      28.596  18.708   3.026  0.00  0.00     0.150 HD
HETATM   18  H   UNK N   1      27.615  19.446   4.222  0.00  0.00     0.150 HD
ENDBRANCH   1  16
TORSDOF 1
ENDMDL
MODEL 3
REMARK VINA RESULT:      -5.7      8.277     10.017
REMARK  1 active torsions:
REMARK  status: ('A' for Active; 'I' for Inactive)
REMARK    1  A    between atoms: C_2  and  N_1 
ROOT
HETATM    1  C   UNK N   1      33.406  16.817   8.117  0.00  0.00     0.167 C 
HETATM    2  C   UNK N   1      33.888  17.506   6.838  0.00  0.00     0.034 C 
HETATM    3  C   UNK N   1      33.621  16.671   5.595  0.00  0.00     0.002 C 
HETATM    4  C   UNK N   1      32.983  17.529   4.518  0.00  0.00     0.000 C 
HETATM    5  C   UNK N   1      31.587  17.019   4.208  0.00  0.00     0.000 C 
HETATM    6  C   UNK N   1      30.551  17.857   4.936  0.00  0.00     0.000 C 
HETATM    7  C   UNK N   1      29.192  17.191   4.827  0.00  0.00     0.000 C 
HETATM    8  C   UNK N   1      28.183  17.865   5.745  0.00  0.00     0.000 C 
HETATM    9  C   UNK N   1      28.275  17.298   7.151  0.00  0.00     0.002 C 
HETATM   10  C   UNK N   1      29.181  18.160   8.008  0.00  0.00     0.020 C 
HETATM   11  C   UNK N   1      29.742  17.331   9.152  0.00  0.00     0.122 C 
HETATM   12  N   UNK N   1      31.185  17.357   9.112  0.00  0.00    -0.359 N 
HETATM   13  C   UNK N   1      31.897  16.720   8.144  0.00  0.00     0.239 C 
HETATM   14  O   UNK N   1      31.321  16.064   7.291  0.00  0.00    -0.271 OA
HETATM   15  H   UNK N   1      31.672  17.854   9.810  0.00  0.00     0.162 HD
ENDROOT
BRANCH   1  16
HETATM   16  N   UNK N   1      33.889  17.580   9.256  0.00  0.00    -0.418 N 
HETATM   17  H   UNK N   1      34.662  17.414   9.900  0.00  0.00     0.150 HD
HETATM   18  H   UNK N   1      33.362  18.433   9.444  0.00  0.00     0.150 HD
ENDBRANCH   1  16
TORSDOF 1
ENDMDL
MODEL 4
REMARK VINA RESULT:      -5.5      8.582     10.165
REMARK  1 active torsions:
REMARK  status: ('A' for Active; 'I' for Inactive)
REMARK    1  A    between atoms: C_2  and  N_1 
ROOT
HETATM    1  C   UNK N   1      30.278  17.335   8.529  0.00  0.00     0.167 C 
HETATM    2  C   UNK N   1      31.533  18.204   8.631  0.00  0.00     0.034 C 
HETATM    3  C   UNK N   1      32.812  17.392   8.491  0.00  0.00     0.002 C 
HETATM    4  C   UNK N   1      33.751  18.063   7.505  0.00  0.00     0.000 C 
HETATM    5  C   UNK N   1      33.972  17.160   6.304  0.00  0.00     0.000 C 
HETATM    6  C   UNK N   1      33.085  17.594   5.152  0.00  0.00     0.000 C 
HETATM    7  C   UNK N   1      33.125  16.544   4.057  0.00  0.00     0.000 C 
HETATM    8  C   UNK N   1      32.064  16.823   3.002  0.00  0.00     0.000 C 
HETATM    9  C   UNK N   1      30.725  16.242   3.420  0.00  0.00     0.002 C 
HETATM   10  C   UNK N   1      29.886  17.298   4.112  0.00  0.00     0.020 C 
HETATM   11  C   UNK N   1      28.872  16.628   5.024  0.00  0.00     0.122 C 
HETATM   12  N   UNK N   1      29.042  17.105   6.377  0.00  0.00    -0.359 N 
HETATM   13  C   UNK N   1      30.121  16.771   7.134  0.00  0.00     0.239 C 
HETATM   14  O   UNK N   1      30.969  16.013   6.693  0.00  0.00    -0.271 OA
HETATM   15  H   UNK N   1      28.353  17.692   6.764  0.00  0.00     0.162 HD
ENDROOT
BRANCH   1  16
HETATM   16  N   UNK N   1      29.128  18.151   8.882  0.00  0.00    -0.418 N 
HETATM   17  H   UNK N   1      28.132  17.934   8.918  0.00  0.00     0.150 HD
HETATM   18  H   UNK N   1      29.359  19.111   9.140  0.00  0.00     0.150 HD
ENDBRANCH   1  16
TORSDOF 1
ENDMDL
MODEL 5
REMARK VINA RESULT:      -5.4     13.143     14.372
REMARK  1 active torsions:
REMARK  status: ('A' for Active; 'I' for Inactive)
REMARK    1  A    between atoms: C_2  and  N_1 
ROOT
HETATM    1  C   UNK N   1      22.443  15.716   6.247  0.00  0.00     0.167 C 
HETATM    2  C   UNK N   1      21.484  16.346   7.259  0.00  0.00     0.034 C 
HETATM    3  C   UNK N   1      20.286  15.455   7.553  0.00  0.00     0.002 C 
HETATM    4  C   UNK N   1      20.069  15.351   9.052  0.00  0.00     0.000 C 
HETATM    5  C   UNK N   1      20.259  13.914   9.504  0.00  0.00     0.000 C 
HETATM    6  C   UNK N   1      21.647  13.730  10.090  0.00  0.00     0.000 C 
HETATM    7  C   UNK N   1      21.917  12.252  10.301  0.00  0.00     0.000 C 
HETATM    8  C   UNK N   1      23.378  12.013  10.652  0.00  0.00     0.000 C 
HETATM    9  C   UNK N   1      24.224  11.919   9.393  0.00  0.00     0.002 C 
HETATM   10  C   UNK N   1      24.833  13.268   9.068  0.00  0.00     0.020 C 
HETATM   11  C   UNK N   1      25.151  13.341   7.584  0.00  0.00     0.122 C 
HETATM   12  N   UNK N   1      24.467  14.468   6.993  0.00  0.00    -0.359 N 
HETATM   13  C   UNK N   1      23.118  14.493   6.827  0.00  0.00     0.239 C 
HETATM   14  O   UNK N   1      22.442  13.528   7.144  0.00  0.00    -0.271 OA
HETATM   15  H   UNK N   1      24.997  15.245   6.700  0.00  0.00     0.162 HD
ENDROOT
BRANCH   1  16
HETATM   16  N   UNK N   1      23.431  16.715   5.872  0.00  0.00    -0.418 N 
HETATM   17  H   UNK N   1      24.007  16.813   5.037  0.00  0.00     0.150 HD
HETATM   18  H   UNK N   1      23.572  17.447   6.568  0.00  0.00     0.150 HD
ENDBRANCH   1  16
TORSDOF 1
ENDMDL
MODEL 6
REMARK VINA RESULT:      -5.3     12.113     13.362
REMARK  1 active torsions:
REMARK  status: ('A' for Active; 'I' for Inactive)
REMARK    1  A    between atoms: C_2  and  N_1 
ROOT
HETATM    1  C   UNK N   1      28.126  18.848   7.597  0.00  0.00     0.167 C 
HETATM    2  C   UNK N   1      27.436  20.092   7.033  0.00  0.00     0.034 C 
HETATM    3  C   UNK N   1      27.878  20.404   5.611  0.00  0.00     0.002 C 
HETATM    4  C   UNK N   1      26.667  20.671   4.735  0.00  0.00     0.000 C 
HETATM    5  C   UNK N   1      26.576  19.620   3.644  0.00  0.00     0.000 C 
HETATM    6  C   UNK N   1      25.569  18.551   4.029  0.00  0.00     0.000 C 
HETATM    7  C   UNK N   1      25.670  17.386   3.063  0.00  0.00     0.000 C 
HETATM    8  C   UNK N   1      24.857  16.199   3.559  0.00  0.00     0.000 C 
HETATM    9  C   UNK N   1      25.665  15.369   4.542  0.00  0.00     0.002 C 
HETATM   10  C   UNK N   1      25.358  15.792   5.964  0.00  0.00     0.020 C 
HETATM   11  C   UNK N   1      26.526  15.431   6.868  0.00  0.00     0.122 C 
HETATM   12  N   UNK N   1      27.013  16.618   7.532  0.00  0.00    -0.359 N 
HETATM   13  C   UNK N   1      27.676  17.602   6.867  0.00  0.00     0.239 C 
HETATM   14  O   UNK N   1      27.915  17.484   5.676  0.00  0.00    -0.271 OA
HETATM   15  H   UNK N   1      26.861  16.718   8.499  0.00  0.00     0.162 HD
ENDROOT
BRANCH   1  16
HETATM   16  N   UNK N   1      27.808  18.753   9.013  0.00  0.00    -0.418 N 
HETATM   17  H   UNK N   1      28.332  18.364   9.796  0.00  0.00     0.150 HD
HETATM   18  H   UNK N   1      26.901  19.144   9.266  0.00  0.00     0.150 HD
ENDBRANCH   1  16
TORSDOF 1
ENDMDL
MODEL 7
REMARK VINA RESULT:      -5.1     17.782     18.948
REMARK  1 active torsions:
REMARK  status: ('A' for Active; 'I' for Inactive)
REMARK    1  A    between atoms: C_2  and  N_1 
ROOT
HETATM    1  C   UNK N   1      20.378  19.563   2.200  0.00  0.00     0.167 C 
HETATM    2  C   UNK N   1      21.633  19.632   3.073  0.00  0.00     0.034 C 
HETATM    3  C   UNK N   1      21.381  19.135   4.489  0.00  0.00     0.002 C 
HETATM    4  C   UNK N   1      22.471  18.161   4.901  0.00  0.00     0.000 C 
HETATM    5  C   UNK N   1      21.873  16.788   5.149  0.00  0.00     0.000 C 
HETATM    6  C   UNK N   1      22.084  15.899   3.937  0.00  0.00     0.000 C 
HETATM    7  C   UNK N   1      21.269  14.629   4.092  0.00  0.00     0.000 C 
HETATM    8  C   UNK N   1      21.260  13.830   2.796  0.00  0.00     0.000 C 
HETATM    9  C   UNK N   1      20.174  14.335   1.862  0.00  0.00     0.002 C 
HETATM   10  C   UNK N   1      20.746  15.344   0.887  0.00  0.00     0.020 C 
HETATM   11  C   UNK N   1      19.638  16.257   0.388  0.00  0.00     0.122 C 
HETATM   12  N   UNK N   1      19.972  17.632   0.677  0.00  0.00    -0.359 N 
HETATM   13  C   UNK N   1      19.975  18.129   1.943  0.00  0.00     0.239 C 
HETATM   14  O   UNK N   1      19.649  17.418   2.881  0.00  0.00    -0.271 OA
HETATM   15  H   UNK N   1      20.207  18.232  -0.068  0.00  0.00     0.162 HD
ENDROOT
BRANCH   1  16
HETATM   16  N   UNK N   1      20.656  20.248   0.948  0.00  0.00    -0.418 N 
HETATM   17  H   UNK N   1      20.099  20.904   0.401  0.00  0.00     0.150 HD
HETATM   18  H   UNK N   1      21.568  20.033   0.546  0.00  0.00     0.150 HD
ENDBRANCH   1  16
TORSDOF 1
ENDMDL
MODEL 8
REMARK VINA RESULT:      -5.0      9.744     11.544
REMARK  1 active torsions:
REMARK  status: ('A' for Active; 'I' for Inactive)
REMARK    1  A    between atoms: C_2  and  N_1 
ROOT
HETATM    1  C   UNK N   1      26.923  17.204   5.499  0.00  0.00     0.167 C 
HETATM    2  C   UNK N   1      27.668  16.128   4.705  0.00  0.00     0.034 C 
HETATM    3  C   UNK N   1      28.800  16.706   3.869  0.00  0.00     0.002 C 
HETATM    4  C   UNK N   1      30.064  15.890   4.069  0.00  0.00     0.000 C 
HETATM    5  C   UNK N   1      31.141  16.751   4.706  0.00  0.00     0.000 C 
HETATM    6  C   UNK N   1      31.206  16.487   6.199  0.00  0.00     0.000 C 
HETATM    7  C   UNK N   1      32.096  17.523   6.859  0.00  0.00     0.000 C 
HETATM    8  C   UNK N   1      31.989  17.441   8.375  0.00  0.00     0.000 C 
HETATM    9  C   UNK N   1      30.799  18.244   8.873  0.00  0.00     0.002 C 
HETATM   10  C   UNK N   1      29.591  17.344   9.038  0.00  0.00     0.020 C 
HETATM   11  C   UNK N   1      28.320  18.173   8.944  0.00  0.00     0.122 C 
HETATM   12  N   UNK N   1      27.482  17.663   7.884  0.00  0.00    -0.359 N 
HETATM   13  C   UNK N   1      27.809  17.797   6.571  0.00  0.00     0.239 C 
HETATM   14  O   UNK N   1      28.820  18.400   6.249  0.00  0.00    -0.271 OA
HETATM   15  H   UNK N   1      26.645  17.201   8.120  0.00  0.00     0.162 HD
ENDROOT
BRANCH   1  16
HETATM   16  N   UNK N   1      25.742  16.597   6.091  0.00  0.00    -0.418 N 
HETATM   17  H   UNK N   1      25.260  16.778   6.971  0.00  0.00     0.150 HD
HETATM   18  H   UNK N   1      25.320  15.860   5.525  0.00  0.00     0.150 HD
ENDBRANCH   1  16
TORSDOF 1
ENDMDL
MODEL 9
REMARK VINA RESULT:      -4.9      9.024     10.755
REMARK  1 active torsions:
REMARK  status: ('A' for Active; 'I' for Inactive)
REMARK    1  A    between atoms: C_2  and  N_1 
ROOT
HETATM    1  C   UNK N   1      32.201  16.805   4.997  0.00  0.00     0.167 C 
HETATM    2  C   UNK N   1      31.119  17.384   4.082  0.00  0.00     0.034 C 
HETATM    3  C   UNK N   1      29.895  16.485   3.993  0.00  0.00     0.002 C 
HETATM    4  C   UNK N   1      28.632  17.305   4.190  0.00  0.00     0.000 C 
HETATM    5  C   UNK N   1      27.909  16.848   5.445  0.00  0.00     0.000 C 
HETATM    6  C   UNK N   1      28.223  17.782   6.599  0.00  0.00     0.000 C 
HETATM    7  C   UNK N   1      27.708  17.181   7.894  0.00  0.00     0.000 C 
HETATM    8  C   UNK N   1      28.219  17.963   9.095  0.00  0.00     0.000 C 
HETATM    9  C   UNK N   1      29.602  17.484   9.499  0.00  0.00     0.002 C 
HETATM   10  C   UNK N   1      30.667  18.351   8.859  0.00  0.00     0.020 C 
HETATM   11  C   UNK N   1      31.967  17.571   8.754  0.00  0.00     0.122 C 
HETATM   12  N   UNK N   1      32.397  17.521   7.376  0.00  0.00    -0.359 N 
HETATM   13  C   UNK N   1      31.741  16.787   6.437  0.00  0.00     0.239 C 
HETATM   14  O   UNK N   1      30.778  16.108   6.752  0.00  0.00    -0.271 OA
HETATM   15  H   UNK N   1      33.191  18.036   7.106  0.00  0.00     0.162 HD
ENDROOT
BRANCH   1  16
HETATM   16  N   UNK N   1      33.401  17.614   4.853  0.00  0.00    -0.418 N 
HETATM   17  H   UNK N   1      34.021  18.028   5.548  0.00  0.00     0.150 HD
HETATM   18  H   UNK N   1      33.668  17.800   3.887  0.00  0.00     0.150 HD
ENDBRANCH   1  16
TORSDOF 1
ENDMDL
