MODEL 1
REMARK VINA RESULT:      -6.6      0.000      0.000
REMARK  2 active torsions:
REMARK  status: ('A' for Active; 'I' for Inactive)
REMARK    1  A    between atoms: C_8  and  C_1 
REMARK    2  A    between atoms: C_5  and  N_12 
REMARK       I    between atoms: N_12  and  C_13 
REMARK       I    between atoms: C_13  and  N_14 
REMARK       I    between atoms: N_14  and  C_15 
REMARK       I    between atoms: C_15  and  N_16 
ROOT
HETATM    1  N   UNK N   1      35.020  13.198  15.130  0.00  0.00    -0.190 N 
HETATM    2  C   UNK N   1      36.086  13.553  14.258  0.00  0.00     0.690 C 
HETATM    3  N   UNK N   1      35.825  14.442  13.180  0.00  0.00    -0.023 N 
HETATM    4  C   UNK N   1      36.650  14.522  12.023  0.00  0.00     0.683 C 
HETATM    5  N   UNK N   1      36.451  15.574  11.104  0.00  0.00    -0.234 N 
HETATM    6  N   UNK N   1      37.294  13.228  14.545  0.00  0.00    -0.234 N 
ATOM      7  HN  UNK N   1      37.819  13.228  13.671  1.00  0.00     0.174 HD
HETATM    8  N   UNK N   1      37.422  13.549  11.708  0.00  0.00    -0.234 N 
ATOM      9  HN  UNK N   1      37.939  13.581  10.829  1.00  0.00     0.174 HD
HETATM   10  H   UNK N   1      34.229  13.785  15.129  0.00  0.00     0.184 HD
HETATM   11  H   UNK N   1      35.038  15.031  13.237  0.00  0.00     0.203 HD
HETATM   12  H   UNK N   1      36.763  15.512  10.172  0.00  0.00     0.174 HD
HETATM   13  H   UNK N   1      35.988  16.390  11.401  0.00  0.00     0.174 HD
HETATM   14  H   UNK N   1      37.925  12.979  15.259  0.00  0.00     0.174 HD
HETATM   15  H   UNK N   1      37.522  12.771  12.304  0.00  0.00     0.174 HD
ENDROOT
BRANCH   1  16
HETATM   16  C   UNK N   1      34.991  12.073  16.006  0.00  0.00     0.071 A 
HETATM   17  C   UNK N   1      34.599  10.766  15.598  0.00  0.00     0.061 A 
HETATM   18  C   UNK N   1      34.574   9.730  16.535  0.00  0.00     0.027 A 
HETATM   19 Cl   UNK N   1      34.043  10.366  13.976  0.00  0.00    -0.082 Cl
HETATM   20  C   UNK N   1      34.910   9.967  17.866  0.00  0.00     0.018 A 
HETATM   21  C   UNK N   1      35.260  11.251  18.286  0.00  0.00     0.050 A 
HETATM   22  C   UNK N   1      35.298  12.295  17.353  0.00  0.00     0.048 A 
BRANCH  21  23
HETATM   23  C   UNK N   1      35.575  11.498  19.733  0.00  0.00     0.417 C 
HETATM   24  F   UNK N   1      35.685  12.853  19.996  0.00  0.00    -0.166 F 
HETATM   25  F   UNK N   1      36.767  10.880  20.060  0.00  0.00    -0.166 F 
HETATM   26  F   UNK N   1      34.563  10.974  20.517  0.00  0.00    -0.166 F 
ENDBRANCH  21  23
ENDBRANCH   1  16
TORSDOF 2
ENDMDL
MODEL 2
REMARK VINA RESULT:      -6.5      8.568     10.847
REMARK  2 active torsions:
REMARK  status: ('A' for Active; 'I' for Inactive)
REMARK    1  A    between atoms: C_8  and  C_1 
REMARK    2  A    between atoms: C_5  and  N_12 
REMARK       I    between atoms: N_12  and  C_13 
REMARK       I    between atoms: C_13  and  N_14 
REMARK       I    between atoms: N_14  and  C_15 
REMARK       I    between atoms: C_15  and  N_16 
ROOT
HETATM    1  N   UNK N   1      32.987  15.983   7.818  0.00  0.00    -0.190 N 
HETATM    2  C   UNK N   1      33.973  16.583   8.649  0.00  0.00     0.690 C 
HETATM    3  N   UNK N   1      34.954  15.755   9.260  0.00  0.00    -0.023 N 
HETATM    4  C   UNK N   1      35.686  16.145  10.416  0.00  0.00     0.683 C 
HETATM    5  N   UNK N   1      36.787  15.366  10.832  0.00  0.00    -0.234 N 
HETATM    6  N   UNK N   1      34.089  17.861   8.698  0.00  0.00    -0.234 N 
ATOM      7  HN  UNK N   1      34.551  18.085   9.579  1.00  0.00     0.174 HD
HETATM    8  N   UNK N   1      35.238  17.063  11.190  0.00  0.00    -0.234 N 
ATOM      9  HN  UNK N   1      35.725  17.268  12.062  1.00  0.00     0.174 HD
HETATM   10  H   UNK N   1      33.183  15.081   7.475  0.00  0.00     0.184 HD
HETATM   11  H   UNK N   1      35.136  14.873   8.864  0.00  0.00     0.203 HD
HETATM   12  H   UNK N   1      37.127  15.401  11.755  0.00  0.00     0.174 HD
HETATM   13  H   UNK N   1      37.227  14.772  10.182  0.00  0.00     0.174 HD
HETATM   14  H   UNK N   1      33.917  18.714   8.238  0.00  0.00     0.174 HD
HETATM   15  H   UNK N   1      34.429  17.572  10.953  0.00  0.00     0.174 HD
ENDROOT
BRANCH   1  16
HETATM   16  C   UNK N   1      31.744  16.565   7.435  0.00  0.00     0.071 A 
HETATM   17  C   UNK N   1      31.348  16.760   6.080  0.00  0.00     0.061 A 
HETATM   18  C   UNK N   1      30.121  17.367   5.801  0.00  0.00     0.027 A 
HETATM   19 Cl   UNK N   1      32.358  16.364   4.694  0.00  0.00    -0.082 Cl
HETATM   20  C   UNK N   1      29.289  17.798   6.833  0.00  0.00     0.018 A 
HETATM   21  C   UNK N   1      29.682  17.646   8.163  0.00  0.00     0.050 A 
HETATM   22  C   UNK N   1      30.906  17.031   8.455  0.00  0.00     0.048 A 
BRANCH  21  23
HETATM   23  C   UNK N   1      28.796  18.158   9.261  0.00  0.00     0.417 C 
HETATM   24  F   UNK N   1      27.792  18.967   8.758  0.00  0.00    -0.166 F 
HETATM   25  F   UNK N   1      29.548  18.886  10.163  0.00  0.00    -0.166 F 
HETATM   26  F   UNK N   1      28.215  17.087   9.918  0.00  0.00    -0.166 F 
ENDBRANCH  21  23
ENDBRANCH   1  16
TORSDOF 2
ENDMDL
MODEL 3
REMARK VINA RESULT:      -6.5      2.751      3.864
REMARK  2 active torsions:
REMARK  status: ('A' for Active; 'I' for Inactive)
REMARK    1  A    between atoms: C_8  and  C_1 
REMARK    2  A    between atoms: C_5  and  N_12 
REMARK       I    between atoms: N_12  and  C_13 
REMARK       I    between atoms: C_13  and  N_14 
REMARK       I    between atoms: N_14  and  C_15 
REMARK       I    between atoms: C_15  and  N_16 
ROOT
HETATM    1  N   UNK N   1      36.104  14.325  12.113  0.00  0.00    -0.190 N 
HETATM    2  C   UNK N   1      34.990  14.266  11.230  0.00  0.00     0.690 C 
HETATM    3  N   UNK N   1      34.654  15.420  10.471  0.00  0.00    -0.023 N 
HETATM    4  C   UNK N   1      33.361  15.634   9.916  0.00  0.00     0.683 C 
HETATM    5  N   UNK N   1      33.168  16.689   9.000  0.00  0.00    -0.234 N 
HETATM    6  N   UNK N   1      34.417  13.145  10.983  0.00  0.00    -0.234 N 
ATOM      7  HN  UNK N   1      33.472  13.357  10.663  1.00  0.00     0.174 HD
HETATM    8  N   UNK N   1      32.342  15.019  10.390  0.00  0.00    -0.234 N 
ATOM      9  HN  UNK N   1      31.410  15.248  10.045  1.00  0.00     0.174 HD
HETATM   10  H   UNK N   1      36.756  15.047  11.961  0.00  0.00     0.184 HD
HETATM   11  H   UNK N   1      35.349  16.102  10.320  0.00  0.00     0.203 HD
HETATM   12  H   UNK N   1      32.276  17.068   8.827  0.00  0.00     0.174 HD
HETATM   13  H   UNK N   1      33.945  17.057   8.520  0.00  0.00     0.174 HD
HETATM   14  H   UNK N   1      34.510  12.165  10.974  0.00  0.00     0.174 HD
HETATM   15  H   UNK N   1      32.448  14.326  11.082  0.00  0.00     0.174 HD
ENDROOT
BRANCH   1  16
HETATM   16  C   UNK N   1      36.364  13.435  13.197  0.00  0.00     0.071 A 
HETATM   17  C   UNK N   1      37.130  12.241  13.070  0.00  0.00     0.061 A 
HETATM   18  C   UNK N   1      37.307  11.415  14.183  0.00  0.00     0.027 A 
HETATM   19 Cl   UNK N   1      37.811  11.665  11.553  0.00  0.00    -0.082 Cl
HETATM   20  C   UNK N   1      36.730  11.739  15.409  0.00  0.00     0.018 A 
HETATM   21  C   UNK N   1      35.948  12.888  15.537  0.00  0.00     0.050 A 
HETATM   22  C   UNK N   1      35.770  13.728  14.430  0.00  0.00     0.048 A 
BRANCH  21  23
HETATM   23  C   UNK N   1      35.294  13.199  16.852  0.00  0.00     0.417 C 
HETATM   24  F   UNK N   1      33.949  13.479  16.689  0.00  0.00    -0.166 F 
HETATM   25  F   UNK N   1      35.913  14.291  17.430  0.00  0.00    -0.166 F 
HETATM   26  F   UNK N   1      35.422  12.108  17.694  0.00  0.00    -0.166 F 
ENDBRANCH  21  23
ENDBRANCH   1  16
TORSDOF 2
ENDMDL
MODEL 4
REMARK VINA RESULT:      -6.5     11.326     13.541
REMARK  2 active torsions:
REMARK  status: ('A' for Active; 'I' for Inactive)
REMARK    1  A    between atoms: C_8  and  C_1 
REMARK    2  A    between atoms: C_5  and  N_12 
REMARK       I    between atoms: N_12  and  C_13 
REMARK       I    between atoms: C_13  and  N_14 
REMARK       I    between atoms: N_14  and  C_15 
REMARK       I    between atoms: C_15  and  N_16 
ROOT
HETATM    1  N   UNK N   1      29.766  17.224   7.987  0.00  0.00    -0.190 N 
HETATM    2  C   UNK N   1      31.164  17.214   7.729  0.00  0.00     0.690 C 
HETATM    3  N   UNK N   1      32.064  17.088   8.823  0.00  0.00    -0.023 N 
HETATM    4  C   UNK N   1      33.425  17.497   8.759  0.00  0.00     0.683 C 
HETATM    5  N   UNK N   1      34.303  17.142   9.805  0.00  0.00    -0.234 N 
HETATM    6  N   UNK N   1      31.601  17.132   6.525  0.00  0.00    -0.234 N 
ATOM      7  HN  UNK N   1      32.549  17.507   6.526  1.00  0.00     0.174 HD
HETATM    8  N   UNK N   1      33.807  18.346   7.878  0.00  0.00    -0.234 N 
ATOM      9  HN  UNK N   1      34.764  18.699   7.901  1.00  0.00     0.174 HD
HETATM   10  H   UNK N   1      29.470  16.867   8.856  0.00  0.00     0.184 HD
HETATM   11  H   UNK N   1      31.729  16.698   9.664  0.00  0.00     0.203 HD
HETATM   12  H   UNK N   1      35.140  17.635   9.968  0.00  0.00     0.174 HD
HETATM   13  H   UNK N   1      34.074  16.382  10.388  0.00  0.00     0.174 HD
HETATM   14  H   UNK N   1      31.402  16.857   5.601  0.00  0.00     0.174 HD
HETATM   15  H   UNK N   1      33.188  18.661   7.180  0.00  0.00     0.174 HD
ENDROOT
BRANCH   1  16
HETATM   16  C   UNK N   1      28.753  17.701   7.104  0.00  0.00     0.071 A 
HETATM   17  C   UNK N   1      28.192  16.921   6.052  0.00  0.00     0.061 A 
HETATM   18  C   UNK N   1      27.223  17.485   5.218  0.00  0.00     0.027 A 
HETATM   19 Cl   UNK N   1      28.710  15.286   5.655  0.00  0.00    -0.082 Cl
HETATM   20  C   UNK N   1      26.812  18.804   5.395  0.00  0.00     0.018 A 
HETATM   21  C   UNK N   1      27.380  19.589   6.400  0.00  0.00     0.050 A 
HETATM   22  C   UNK N   1      28.346  19.033   7.247  0.00  0.00     0.048 A 
BRANCH  21  23
HETATM   23  C   UNK N   1      26.959  21.023   6.547  0.00  0.00     0.417 C 
HETATM   24  F   UNK N   1      28.052  21.871   6.508  0.00  0.00    -0.166 F 
HETATM   25  F   UNK N   1      26.304  21.192   7.752  0.00  0.00    -0.166 F 
HETATM   26  F   UNK N   1      26.101  21.356   5.514  0.00  0.00    -0.166 F 
ENDBRANCH  21  23
ENDBRANCH   1  16
TORSDOF 2
ENDMDL
MODEL 5
REMARK VINA RESULT:      -6.4      2.270      2.803
REMARK  2 active torsions:
REMARK  status: ('A' for Active; 'I' for Inactive)
REMARK    1  A    between atoms: C_8  and  C_1 
REMARK    2  A    between atoms: C_5  and  N_12 
REMARK       I    between atoms: N_12  and  C_13 
REMARK       I    between atoms: C_13  and  N_14 
REMARK       I    between atoms: N_14  and  C_15 
REMARK       I    between atoms: C_15  and  N_16 
ROOT
HETATM    1  N   UNK N   1      34.978  13.296  15.619  0.00  0.00    -0.190 N 
HETATM    2  C   UNK N   1      36.051  13.484  14.704  0.00  0.00     0.690 C 
HETATM    3  N   UNK N   1      35.751  13.768  13.344  0.00  0.00    -0.023 N 
HETATM    4  C   UNK N   1      36.673  13.543  12.283  0.00  0.00     0.683 C 
HETATM    5  N   UNK N   1      36.384  14.048  10.998  0.00  0.00    -0.234 N 
HETATM    6  N   UNK N   1      37.257  13.582  15.130  0.00  0.00    -0.234 N 
ATOM      7  HN  UNK N   1      37.869  13.337  14.352  1.00  0.00     0.174 HD
HETATM    8  N   UNK N   1      37.646  12.723  12.432  0.00  0.00    -0.234 N 
ATOM      9  HN  UNK N   1      38.245  12.502  11.637  1.00  0.00     0.174 HD
HETATM   10  H   UNK N   1      34.096  13.640  15.349  0.00  0.00     0.184 HD
HETATM   11  H   UNK N   1      34.865  14.138  13.125  0.00  0.00     0.203 HD
HETATM   12  H   UNK N   1      36.807  13.678  10.189  0.00  0.00     0.174 HD
HETATM   13  H   UNK N   1      35.744  14.791  10.906  0.00  0.00     0.174 HD
HETATM   14  H   UNK N   1      37.838  13.795  15.896  0.00  0.00     0.174 HD
HETATM   15  H   UNK N   1      37.823  12.303  13.306  0.00  0.00     0.174 HD
ENDROOT
BRANCH   1  16
HETATM   16  C   UNK N   1      35.062  12.657  16.891  0.00  0.00     0.071 A 
HETATM   17  C   UNK N   1      35.231  13.360  18.118  0.00  0.00     0.061 A 
HETATM   18  C   UNK N   1      35.332  12.645  19.314  0.00  0.00     0.027 A 
HETATM   19 Cl   UNK N   1      35.418  15.107  18.233  0.00  0.00    -0.082 Cl
HETATM   20  C   UNK N   1      35.287  11.253  19.317  0.00  0.00     0.018 A 
HETATM   21  C   UNK N   1      35.158  10.550  18.117  0.00  0.00     0.050 A 
HETATM   22  C   UNK N   1      35.047  11.257  16.913  0.00  0.00     0.048 A 
BRANCH  21  23
HETATM   23  C   UNK N   1      35.157   9.049  18.133  0.00  0.00     0.417 C 
HETATM   24  F   UNK N   1      36.118   8.558  19.000  0.00  0.00    -0.166 F 
HETATM   25  F   UNK N   1      35.416   8.572  16.862  0.00  0.00    -0.166 F 
HETATM   26  F   UNK N   1      33.916   8.597  18.543  0.00  0.00    -0.166 F 
ENDBRANCH  21  23
ENDBRANCH   1  16
TORSDOF 2
ENDMDL
MODEL 6
REMARK VINA RESULT:      -6.2      2.333      3.070
REMARK  2 active torsions:
REMARK  status: ('A' for Active; 'I' for Inactive)
REMARK    1  A    between atoms: C_8  and  C_1 
REMARK    2  A    between atoms: C_5  and  N_12 
REMARK       I    between atoms: N_12  and  C_13 
REMARK       I    between atoms: C_13  and  N_14 
REMARK       I    between atoms: N_14  and  C_15 
REMARK       I    between atoms: C_15  and  N_16 
ROOT
HETATM    1  N   UNK N   1      38.020  11.951  13.575  0.00  0.00    -0.190 N 
HETATM    2  C   UNK N   1      37.450  12.247  12.306  0.00  0.00     0.690 C 
HETATM    3  N   UNK N   1      38.214  12.992  11.366  0.00  0.00    -0.023 N 
HETATM    4  C   UNK N   1      37.629  13.711  10.287  0.00  0.00     0.683 C 
HETATM    5  N   UNK N   1      38.461  14.242   9.279  0.00  0.00    -0.234 N 
HETATM    6  N   UNK N   1      36.347  11.697  11.946  0.00  0.00    -0.234 N 
ATOM      7  HN  UNK N   1      35.937  12.293  11.227  1.00  0.00     0.174 HD
HETATM    8  N   UNK N   1      36.394  14.053  10.327  0.00  0.00    -0.234 N 
ATOM      9  HN  UNK N   1      36.011  14.645   9.591  1.00  0.00     0.174 HD
HETATM   10  H   UNK N   1      38.999  12.022  13.652  0.00  0.00     0.184 HD
HETATM   11  H   UNK N   1      39.194  13.010  11.467  0.00  0.00     0.203 HD
HETATM   12  H   UNK N   1      38.165  14.981   8.699  0.00  0.00     0.174 HD
HETATM   13  H   UNK N   1      39.362  13.865   9.151  0.00  0.00     0.174 HD
HETATM   14  H   UNK N   1      35.733  10.939  12.075  0.00  0.00     0.174 HD
HETATM   15  H   UNK N   1      35.811  13.750  11.061  0.00  0.00     0.174 HD
ENDROOT
BRANCH   1  16
HETATM   16  C   UNK N   1      37.305  11.560  14.745  0.00  0.00     0.071 A 
HETATM   17  C   UNK N   1      37.216  10.213  15.201  0.00  0.00     0.061 A 
HETATM   18  C   UNK N   1      36.468   9.922  16.345  0.00  0.00     0.027 A 
HETATM   19 Cl   UNK N   1      37.921   8.839  14.357  0.00  0.00    -0.082 Cl
HETATM   20  C   UNK N   1      35.796  10.930  17.032  0.00  0.00     0.018 A 
HETATM   21  C   UNK N   1      35.847  12.248  16.575  0.00  0.00     0.050 A 
HETATM   22  C   UNK N   1      36.601  12.554  15.435  0.00  0.00     0.048 A 
BRANCH  21  23
HETATM   23  C   UNK N   1      35.080  13.315  17.301  0.00  0.00     0.417 C 
HETATM   24  F   UNK N   1      34.765  12.917  18.589  0.00  0.00    -0.166 F 
HETATM   25  F   UNK N   1      33.910  13.590  16.619  0.00  0.00    -0.166 F 
HETATM   26  F   UNK N   1      35.847  14.465  17.367  0.00  0.00    -0.166 F 
ENDBRANCH  21  23
ENDBRANCH   1  16
TORSDOF 2
ENDMDL
MODEL 7
REMARK VINA RESULT:      -6.1      3.861      5.256
REMARK  2 active torsions:
REMARK  status: ('A' for Active; 'I' for Inactive)
REMARK    1  A    between atoms: C_8  and  C_1 
REMARK    2  A    between atoms: C_5  and  N_12 
REMARK       I    between atoms: N_12  and  C_13 
REMARK       I    between atoms: C_13  and  N_14 
REMARK       I    between atoms: N_14  and  C_15 
REMARK       I    between atoms: C_15  and  N_16 
ROOT
HETATM    1  N   UNK N   1      34.180  14.524  11.032  0.00  0.00    -0.190 N 
HETATM    2  C   UNK N   1      34.249  15.842  10.504  0.00  0.00     0.690 C 
HETATM    3  N   UNK N   1      33.235  16.277   9.607  0.00  0.00    -0.023 N 
HETATM    4  C   UNK N   1      33.415  17.356   8.697  0.00  0.00     0.683 C 
HETATM    5  N   UNK N   1      32.300  17.865   7.999  0.00  0.00    -0.234 N 
HETATM    6  N   UNK N   1      35.101  16.683  10.968  0.00  0.00    -0.234 N 
ATOM      7  HN  UNK N   1      35.246  17.389  10.247  1.00  0.00     0.174 HD
HETATM    8  N   UNK N   1      34.593  17.729   8.357  0.00  0.00    -0.234 N 
ATOM      9  HN  UNK N   1      34.707  18.442   7.636  1.00  0.00     0.174 HD
HETATM   10  H   UNK N   1      33.307  14.070  10.986  0.00  0.00     0.184 HD
HETATM   11  H   UNK N   1      32.368  15.810   9.617  0.00  0.00     0.203 HD
HETATM   12  H   UNK N   1      32.401  18.377   7.164  0.00  0.00     0.174 HD
HETATM   13  H   UNK N   1      31.396  17.704   8.355  0.00  0.00     0.174 HD
HETATM   14  H   UNK N   1      35.671  16.930  11.731  0.00  0.00     0.174 HD
HETATM   15  H   UNK N   1      35.389  17.336   8.783  0.00  0.00     0.174 HD
ENDROOT
BRANCH   1  16
HETATM   16  C   UNK N   1      35.256  13.799  11.624  0.00  0.00     0.071 A 
HETATM   17  C   UNK N   1      36.156  12.979  10.885  0.00  0.00     0.061 A 
HETATM   18  C   UNK N   1      37.164  12.282  11.557  0.00  0.00     0.027 A 
HETATM   19 Cl   UNK N   1      36.034  12.699   9.151  0.00  0.00    -0.082 Cl
HETATM   20  C   UNK N   1      37.286  12.368  12.942  0.00  0.00     0.018 A 
HETATM   21  C   UNK N   1      36.388  13.139  13.681  0.00  0.00     0.050 A 
HETATM   22  C   UNK N   1      35.379  13.849  13.017  0.00  0.00     0.048 A 
BRANCH  21  23
HETATM   23  C   UNK N   1      36.505  13.184  15.177  0.00  0.00     0.417 C 
HETATM   24  F   UNK N   1      37.415  14.146  15.579  0.00  0.00    -0.166 F 
HETATM   25  F   UNK N   1      36.921  11.952  15.646  0.00  0.00    -0.166 F 
HETATM   26  F   UNK N   1      35.270  13.484  15.724  0.00  0.00    -0.166 F 
ENDBRANCH  21  23
ENDBRANCH   1  16
TORSDOF 2
ENDMDL
MODEL 8
REMARK VINA RESULT:      -6.1      2.407      3.308
REMARK  2 active torsions:
REMARK  status: ('A' for Active; 'I' for Inactive)
REMARK    1  A    between atoms: C_8  and  C_1 
REMARK    2  A    between atoms: C_5  and  N_12 
REMARK       I    between atoms: N_12  and  C_13 
REMARK       I    between atoms: C_13  and  N_14 
REMARK       I    between atoms: N_14  and  C_15 
REMARK       I    between atoms: C_15  and  N_16 
ROOT
HETATM    1  N   UNK N   1      37.513  12.355  13.614  0.00  0.00    -0.190 N 
HETATM    2  C   UNK N   1      37.082  12.890  12.369  0.00  0.00     0.690 C 
HETATM    3  N   UNK N   1      38.051  13.165  11.366  0.00  0.00    -0.023 N 
HETATM    4  C   UNK N   1      37.825  14.077  10.298  0.00  0.00     0.683 C 
HETATM    5  N   UNK N   1      38.745  14.132   9.229  0.00  0.00    -0.234 N 
HETATM    6  N   UNK N   1      35.831  12.950  12.088  0.00  0.00    -0.234 N 
ATOM      7  HN  UNK N   1      35.720  13.670  11.374  1.00  0.00     0.174 HD
HETATM    8  N   UNK N   1      36.920  14.980  10.395  0.00  0.00    -0.234 N 
ATOM      9  HN  UNK N   1      36.829  15.683   9.662  1.00  0.00     0.174 HD
HETATM   10  H   UNK N   1      38.405  11.937  13.635  0.00  0.00     0.184 HD
HETATM   11  H   UNK N   1      38.919  12.701  11.412  0.00  0.00     0.203 HD
HETATM   12  H   UNK N   1      38.811  14.920   8.643  0.00  0.00     0.174 HD
HETATM   13  H   UNK N   1      39.336  13.362   9.065  0.00  0.00     0.174 HD
HETATM   14  H   UNK N   1      34.934  12.590  12.275  0.00  0.00     0.174 HD
HETATM   15  H   UNK N   1      36.311  15.002  11.169  0.00  0.00     0.174 HD
ENDROOT
BRANCH   1  16
HETATM   16  C   UNK N   1      36.775  12.364  14.834  0.00  0.00     0.071 A 
HETATM   17  C   UNK N   1      36.455  13.551  15.553  0.00  0.00     0.061 A 
HETATM   18  C   UNK N   1      35.751  13.458  16.756  0.00  0.00     0.027 A 
HETATM   19 Cl   UNK N   1      36.973  15.163  15.072  0.00  0.00    -0.082 Cl
HETATM   20  C   UNK N   1      35.375  12.218  17.267  0.00  0.00     0.018 A 
HETATM   21  C   UNK N   1      35.714  11.046  16.590  0.00  0.00     0.050 A 
HETATM   22  C   UNK N   1      36.412  11.127  15.378  0.00  0.00     0.048 A 
BRANCH  21  23
HETATM   23  C   UNK N   1      35.341   9.716  17.178  0.00  0.00     0.417 C 
HETATM   24  F   UNK N   1      35.047   8.796  16.187  0.00  0.00    -0.166 F 
HETATM   25  F   UNK N   1      34.236   9.863  17.995  0.00  0.00    -0.166 F 
HETATM   26  F   UNK N   1      36.399   9.236  17.930  0.00  0.00    -0.166 F 
ENDBRANCH  21  23
ENDBRANCH   1  16
TORSDOF 2
ENDMDL
MODEL 9
REMARK VINA RESULT:      -6.1     17.917     18.954
REMARK  2 active torsions:
REMARK  status: ('A' for Active; 'I' for Inactive)
REMARK    1  A    between atoms: C_8  and  C_1 
REMARK    2  A    between atoms: C_5  and  N_12 
REMARK       I    between atoms: N_12  and  C_13 
REMARK       I    between atoms: C_13  and  N_14 
REMARK       I    between atoms: N_14  and  C_15 
REMARK       I    between atoms: C_15  and  N_16 
ROOT
HETATM    1  N   UNK N   1      21.687  17.798   5.332  0.00  0.00    -0.190 N 
HETATM    2  C   UNK N   1      21.082  17.731   4.047  0.00  0.00     0.690 C 
HETATM    3  N   UNK N   1      21.189  18.851   3.178  0.00  0.00    -0.023 N 
HETATM    4  C   UNK N   1      20.294  19.082   2.096  0.00  0.00     0.683 C 
HETATM    5  N   UNK N   1      20.593  20.089   1.154  0.00  0.00    -0.234 N 
HETATM    6  N   UNK N   1      20.611  16.620   3.609  0.00  0.00    -0.234 N 
ATOM      7  HN  UNK N   1      19.923  16.850   2.892  1.00  0.00     0.174 HD
HETATM    8  N   UNK N   1      19.135  18.535   2.085  0.00  0.00    -0.234 N 
ATOM      9  HN  UNK N   1      18.469  18.781   1.352  1.00  0.00     0.174 HD
HETATM   10  H   UNK N   1      22.381  18.484   5.463  0.00  0.00     0.184 HD
HETATM   11  H   UNK N   1      21.918  19.496   3.331  0.00  0.00     0.203 HD
HETATM   12  H   UNK N   1      19.896  20.492   0.588  0.00  0.00     0.174 HD
HETATM   13  H   UNK N   1      21.523  20.398   1.060  0.00  0.00     0.174 HD
HETATM   14  H   UNK N   1      20.639  15.638   3.676  0.00  0.00     0.174 HD
HETATM   15  H   UNK N   1      18.879  17.881   2.775  0.00  0.00     0.174 HD
ENDROOT
BRANCH   1  16
HETATM   16  C   UNK N   1      21.384  16.963   6.447  0.00  0.00     0.071 A 
HETATM   17  C   UNK N   1      22.156  15.823   6.813  0.00  0.00     0.061 A 
HETATM   18  C   UNK N   1      21.763  15.048   7.907  0.00  0.00     0.027 A 
HETATM   19 Cl   UNK N   1      23.553  15.250   5.909  0.00  0.00    -0.082 Cl
HETATM   20  C   UNK N   1      20.618  15.368   8.632  0.00  0.00     0.018 A 
HETATM   21  C   UNK N   1      19.833  16.461   8.262  0.00  0.00     0.050 A 
HETATM   22  C   UNK N   1      20.221  17.251   7.172  0.00  0.00     0.048 A 
BRANCH  21  23
HETATM   23  C   UNK N   1      18.577  16.765   9.025  0.00  0.00     0.417 C 
HETATM   24  F   UNK N   1      18.258  15.736   9.894  0.00  0.00    -0.166 F 
HETATM   25  F   UNK N   1      17.530  16.945   8.142  0.00  0.00    -0.166 F 
HETATM   26  F   UNK N   1      18.756  17.925   9.758  0.00  0.00    -0.166 F 
ENDBRANCH  21  23
ENDBRANCH   1  16
TORSDOF 2
ENDMDL
