MODEL 1
REMARK VINA RESULT:      -5.7      0.000      0.000
REMARK  3 active torsions:
REMARK  status: ('A' for Active; 'I' for Inactive)
REMARK    1  A    between atoms: C_1  and  O_7 
REMARK    2  A    between atoms: C_3  and  O_9 
REMARK    3  A    between atoms: N_11  and  C_5 
REMARK       I    between atoms: C_12  and  N_11 
REMARK       I    between atoms: N_13  and  C_12 
REMARK       I    between atoms: C_14  and  N_13 
REMARK       I    between atoms: C_14  and  N_15 
ROOT
HETATM    1  N   UNK N   1      36.841  13.940  13.830  0.00  0.00    -0.192 N 
HETATM    2  C   UNK N   1      35.859  14.320  12.857  0.00  0.00     0.690 C 
HETATM    3  N   UNK N   1      36.046  15.526  12.120  0.00  0.00    -0.023 N 
HETATM    4  C   UNK N   1      35.147  16.021  11.125  0.00  0.00     0.683 C 
HETATM    5  N   UNK N   1      35.444  17.232  10.464  0.00  0.00    -0.234 N 
HETATM    6  N   UNK N   1      34.825  13.590  12.651  0.00  0.00    -0.234 N 
ATOM      7  HN  UNK N   1      34.134  13.870  11.956  1.00  0.00     0.174 HD
HETATM    8  N   UNK N   1      34.078  15.385  10.817  0.00  0.00    -0.234 N 
ATOM      9  HN  UNK N   1      33.451  15.755  10.102  1.00  0.00     0.174 HD
HETATM   10  H   UNK N   1      37.614  14.536  13.950  0.00  0.00     0.184 HD
HETATM   11  H   UNK N   1      36.851  16.058  12.311  0.00  0.00     0.203 HD
HETATM   12  H   UNK N   1      34.833  17.581   9.776  0.00  0.00     0.174 HD
HETATM   13  H   UNK N   1      36.263  17.729  10.693  0.00  0.00     0.174 HD
HETATM   14  H   UNK N   1      34.698  12.760  13.165  0.00  0.00     0.174 HD
HETATM   15  H   UNK N   1      33.859  14.539  11.271  0.00  0.00     0.174 HD
ENDROOT
BRANCH   1  16
HETATM   16  C   UNK N   1      36.785  12.763  14.636  0.00  0.00     0.054 A 
HETATM   17  C   UNK N   1      36.032  12.767  15.818  0.00  0.00     0.066 A 
HETATM   18  C   UNK N   1      35.966  11.612  16.625  0.00  0.00     0.073 A 
HETATM   19  C   UNK N   1      36.659  10.460  16.236  0.00  0.00     0.073 A 
HETATM   20  C   UNK N   1      37.415  10.449  15.053  0.00  0.00     0.073 A 
HETATM   21  C   UNK N   1      37.469  11.597  14.270  0.00  0.00     0.066 A 
BRANCH  18  22
HETATM   22  O   UNK N   1      35.247  11.583  17.772  0.00  0.00    -0.356 OA
HETATM   23  C   UNK N   1      35.222  12.621  18.675  0.00  0.00     0.210 C 
ENDBRANCH  18  22
BRANCH  20  24
HETATM   24  O   UNK N   1      38.098   9.355  14.645  0.00  0.00    -0.356 OA
HETATM   25  C   UNK N   1      39.462   9.226  14.763  0.00  0.00     0.210 C 
ENDBRANCH  20  24
ENDBRANCH   1  16
TORSDOF 3
ENDMDL
MODEL 2
REMARK VINA RESULT:      -5.6      6.424      9.811
REMARK  3 active torsions:
REMARK  status: ('A' for Active; 'I' for Inactive)
REMARK    1  A    between atoms: C_1  and  O_7 
REMARK    2  A    between atoms: C_3  and  O_9 
REMARK    3  A    between atoms: N_11  and  C_5 
REMARK       I    between atoms: C_12  and  N_11 
REMARK       I    between atoms: N_13  and  C_12 
REMARK       I    between atoms: C_14  and  N_13 
REMARK       I    between atoms: C_14  and  N_15 
ROOT
HETATM    1  N   UNK N   1      33.306  17.001   9.221  0.00  0.00    -0.192 N 
HETATM    2  C   UNK N   1      33.637  15.830   9.977  0.00  0.00     0.690 C 
HETATM    3  N   UNK N   1      34.713  15.890  10.911  0.00  0.00    -0.023 N 
HETATM    4  C   UNK N   1      35.147  14.800  11.727  0.00  0.00     0.683 C 
HETATM    5  N   UNK N   1      36.228  14.986  12.614  0.00  0.00    -0.234 N 
HETATM    6  N   UNK N   1      32.979  14.741   9.818  0.00  0.00    -0.234 N 
ATOM      7  HN  UNK N   1      33.223  13.914  10.363  1.00  0.00     0.174 HD
HETATM    8  N   UNK N   1      34.571  13.655  11.671  0.00  0.00    -0.234 N 
ATOM      9  HN  UNK N   1      34.897  12.891  12.264  1.00  0.00     0.174 HD
HETATM   10  H   UNK N   1      33.842  17.810   9.380  0.00  0.00     0.184 HD
HETATM   11  H   UNK N   1      35.192  16.745  11.000  0.00  0.00     0.203 HD
HETATM   12  H   UNK N   1      36.534  14.242  13.181  0.00  0.00     0.174 HD
HETATM   13  H   UNK N   1      36.677  15.861  12.665  0.00  0.00     0.174 HD
HETATM   14  H   UNK N   1      32.239  14.701   9.170  0.00  0.00     0.174 HD
HETATM   15  H   UNK N   1      33.816  13.513  11.056  0.00  0.00     0.174 HD
ENDROOT
BRANCH   1  16
HETATM   16  C   UNK N   1      32.257  17.086   8.256  0.00  0.00     0.054 A 
HETATM   17  C   UNK N   1      30.967  17.451   8.664  0.00  0.00     0.066 A 
HETATM   18  C   UNK N   1      29.920  17.540   7.723  0.00  0.00     0.073 A 
HETATM   19  C   UNK N   1      30.179  17.260   6.377  0.00  0.00     0.073 A 
HETATM   20  C   UNK N   1      31.470  16.893   5.961  0.00  0.00     0.073 A 
HETATM   21  C   UNK N   1      32.489  16.811   6.903  0.00  0.00     0.066 A 
BRANCH  18  22
HETATM   22  O   UNK N   1      28.663  17.892   8.084  0.00  0.00    -0.356 OA
HETATM   23  C   UNK N   1      28.073  17.488   9.260  0.00  0.00     0.210 C 
ENDBRANCH  18  22
BRANCH  20  24
HETATM   24  O   UNK N   1      31.758  16.615   4.668  0.00  0.00    -0.356 OA
HETATM   25  C   UNK N   1      32.594  17.388   3.897  0.00  0.00     0.210 C 
ENDBRANCH  20  24
ENDBRANCH   1  16
TORSDOF 3
ENDMDL
MODEL 3
REMARK VINA RESULT:      -5.6      6.496     10.314
REMARK  3 active torsions:
REMARK  status: ('A' for Active; 'I' for Inactive)
REMARK    1  A    between atoms: C_1  and  O_7 
REMARK    2  A    between atoms: C_3  and  O_9 
REMARK    3  A    between atoms: N_11  and  C_5 
REMARK       I    between atoms: C_12  and  N_11 
REMARK       I    between atoms: N_13  and  C_12 
REMARK       I    between atoms: C_14  and  N_13 
REMARK       I    between atoms: C_14  and  N_15 
ROOT
HETATM    1  N   UNK N   1      33.201  17.026   9.113  0.00  0.00    -0.192 N 
HETATM    2  C   UNK N   1      33.553  15.859   9.868  0.00  0.00     0.690 C 
HETATM    3  N   UNK N   1      34.626  15.937  10.804  0.00  0.00    -0.023 N 
HETATM    4  C   UNK N   1      35.079  14.854  11.617  0.00  0.00     0.683 C 
HETATM    5  N   UNK N   1      36.156  15.058  12.506  0.00  0.00    -0.234 N 
HETATM    6  N   UNK N   1      32.916  14.758   9.705  0.00  0.00    -0.234 N 
ATOM      7  HN  UNK N   1      33.175  13.935  10.249  1.00  0.00     0.174 HD
HETATM    8  N   UNK N   1      34.526  13.699  11.558  0.00  0.00    -0.234 N 
ATOM      9  HN  UNK N   1      34.865  12.939  12.149  1.00  0.00     0.174 HD
HETATM   10  H   UNK N   1      33.722  17.845   9.275  0.00  0.00     0.184 HD
HETATM   11  H   UNK N   1      35.090  16.801  10.895  0.00  0.00     0.203 HD
HETATM   12  H   UNK N   1      36.475  14.319  13.072  0.00  0.00     0.174 HD
HETATM   13  H   UNK N   1      36.588  15.941  12.560  0.00  0.00     0.174 HD
HETATM   14  H   UNK N   1      32.178  14.707   9.056  0.00  0.00     0.174 HD
HETATM   15  H   UNK N   1      33.774  13.543  10.941  0.00  0.00     0.174 HD
ENDROOT
BRANCH   1  16
HETATM   16  C   UNK N   1      32.152  17.093   8.147  0.00  0.00     0.054 A 
HETATM   17  C   UNK N   1      32.445  16.898   6.791  0.00  0.00     0.066 A 
HETATM   18  C   UNK N   1      31.419  16.961   5.824  0.00  0.00     0.073 A 
HETATM   19  C   UNK N   1      30.106  17.218   6.230  0.00  0.00     0.073 A 
HETATM   20  C   UNK N   1      29.805  17.414   7.588  0.00  0.00     0.073 A 
HETATM   21  C   UNK N   1      30.829  17.350   8.527  0.00  0.00     0.066 A 
BRANCH  18  22
HETATM   22  O   UNK N   1      31.669  16.776   4.506  0.00  0.00    -0.356 OA
HETATM   23  C   UNK N   1      32.787  17.267   3.872  0.00  0.00     0.210 C 
ENDBRANCH  18  22
BRANCH  20  24
HETATM   24  O   UNK N   1      28.547  17.666   8.018  0.00  0.00    -0.356 OA
HETATM   25  C   UNK N   1      28.181  17.637   9.344  0.00  0.00     0.210 C 
ENDBRANCH  20  24
ENDBRANCH   1  16
TORSDOF 3
ENDMDL
MODEL 4
REMARK VINA RESULT:      -5.6      0.463      3.104
REMARK  3 active torsions:
REMARK  status: ('A' for Active; 'I' for Inactive)
REMARK    1  A    between atoms: C_1  and  O_7 
REMARK    2  A    between atoms: C_3  and  O_9 
REMARK    3  A    between atoms: N_11  and  C_5 
REMARK       I    between atoms: C_12  and  N_11 
REMARK       I    between atoms: N_13  and  C_12 
REMARK       I    between atoms: C_14  and  N_13 
REMARK       I    between atoms: C_14  and  N_15 
ROOT
HETATM    1  N   UNK N   1      36.857  13.867  13.889  0.00  0.00    -0.192 N 
HETATM    2  C   UNK N   1      35.880  14.240  12.909  0.00  0.00     0.690 C 
HETATM    3  N   UNK N   1      36.045  15.464  12.197  0.00  0.00    -0.023 N 
HETATM    4  C   UNK N   1      35.149  15.954  11.198  0.00  0.00     0.683 C 
HETATM    5  N   UNK N   1      35.423  17.185  10.565  0.00  0.00    -0.234 N 
HETATM    6  N   UNK N   1      34.868  13.487  12.674  0.00  0.00    -0.234 N 
ATOM      7  HN  UNK N   1      34.180  13.762  11.973  1.00  0.00     0.174 HD
HETATM    8  N   UNK N   1      34.101  15.296  10.863  0.00  0.00    -0.234 N 
ATOM      9  HN  UNK N   1      33.475  15.664  10.145  1.00  0.00     0.174 HD
HETATM   10  H   UNK N   1      37.612  14.480  14.032  0.00  0.00     0.184 HD
HETATM   11  H   UNK N   1      36.834  16.013  12.410  0.00  0.00     0.203 HD
HETATM   12  H   UNK N   1      34.813  17.531   9.874  0.00  0.00     0.174 HD
HETATM   13  H   UNK N   1      36.225  17.698  10.815  0.00  0.00     0.174 HD
HETATM   14  H   UNK N   1      34.755  12.644  13.170  0.00  0.00     0.174 HD
HETATM   15  H   UNK N   1      33.898  14.436  11.297  0.00  0.00     0.174 HD
ENDROOT
BRANCH   1  16
HETATM   16  C   UNK N   1      36.820  12.674  14.673  0.00  0.00     0.054 A 
HETATM   17  C   UNK N   1      37.594  11.570  14.292  0.00  0.00     0.066 A 
HETATM   18  C   UNK N   1      37.569  10.385  15.056  0.00  0.00     0.073 A 
HETATM   19  C   UNK N   1      36.765  10.319  16.199  0.00  0.00     0.073 A 
HETATM   20  C   UNK N   1      35.986  11.422  16.586  0.00  0.00     0.073 A 
HETATM   21  C   UNK N   1      36.023  12.582  15.821  0.00  0.00     0.066 A 
BRANCH  18  22
HETATM   22  O   UNK N   1      38.306   9.301  14.716  0.00  0.00    -0.356 OA
HETATM   23  C   UNK N   1      38.330   8.771  13.446  0.00  0.00     0.210 C 
ENDBRANCH  18  22
BRANCH  20  24
HETATM   24  O   UNK N   1      35.196  11.396  17.685  0.00  0.00    -0.356 OA
HETATM   25  C   UNK N   1      35.281  12.320  18.699  0.00  0.00     0.210 C 
ENDBRANCH  20  24
ENDBRANCH   1  16
TORSDOF 3
ENDMDL
MODEL 5
REMARK VINA RESULT:      -5.5     15.870     18.342
REMARK  3 active torsions:
REMARK  status: ('A' for Active; 'I' for Inactive)
REMARK    1  A    between atoms: C_1  and  O_7 
REMARK    2  A    between atoms: C_3  and  O_9 
REMARK    3  A    between atoms: N_11  and  C_5 
REMARK       I    between atoms: C_12  and  N_11 
REMARK       I    between atoms: N_13  and  C_12 
REMARK       I    between atoms: C_14  and  N_13 
REMARK       I    between atoms: C_14  and  N_15 
ROOT
HETATM    1  N   UNK N   1      21.167  17.586   5.678  0.00  0.00    -0.192 N 
HETATM    2  C   UNK N   1      20.470  17.543   4.427  0.00  0.00     0.690 C 
HETATM    3  N   UNK N   1      20.780  18.512   3.427  0.00  0.00    -0.023 N 
HETATM    4  C   UNK N   1      20.163  18.583   2.141  0.00  0.00     0.683 C 
HETATM    5  N   UNK N   1      20.558  19.593   1.238  0.00  0.00    -0.234 N 
HETATM    6  N   UNK N   1      19.577  16.650   4.205  0.00  0.00    -0.234 N 
ATOM      7  HN  UNK N   1      19.088  16.629   3.310  1.00  0.00     0.174 HD
HETATM    8  N   UNK N   1      19.258  17.746   1.789  0.00  0.00    -0.234 N 
ATOM      9  HN  UNK N   1      18.831  17.815   0.864  1.00  0.00     0.174 HD
HETATM   10  H   UNK N   1      21.841  18.292   5.798  0.00  0.00     0.184 HD
HETATM   11  H   UNK N   1      21.470  19.181   3.640  0.00  0.00     0.203 HD
HETATM   12  H   UNK N   1      20.140  19.650   0.349  0.00  0.00     0.174 HD
HETATM   13  H   UNK N   1      21.252  20.241   1.498  0.00  0.00     0.174 HD
HETATM   14  H   UNK N   1      19.362  15.985   4.899  0.00  0.00     0.174 HD
HETATM   15  H   UNK N   1      18.973  17.037   2.410  0.00  0.00     0.174 HD
ENDROOT
BRANCH   1  16
HETATM   16  C   UNK N   1      20.960  16.682   6.764  0.00  0.00     0.054 A 
HETATM   17  C   UNK N   1      21.913  15.691   7.032  0.00  0.00     0.066 A 
HETATM   18  C   UNK N   1      21.724  14.791   8.102  0.00  0.00     0.073 A 
HETATM   19  C   UNK N   1      20.576  14.896   8.895  0.00  0.00     0.073 A 
HETATM   20  C   UNK N   1      19.617  15.888   8.632  0.00  0.00     0.073 A 
HETATM   21  C   UNK N   1      19.820  16.766   7.573  0.00  0.00     0.066 A 
BRANCH  18  22
HETATM   22  O   UNK N   1      22.626  13.822   8.388  0.00  0.00    -0.356 OA
HETATM   23  C   UNK N   1      22.782  13.282   9.644  0.00  0.00     0.210 C 
ENDBRANCH  18  22
BRANCH  20  24
HETATM   24  O   UNK N   1      18.495  16.020   9.377  0.00  0.00    -0.356 OA
HETATM   25  C   UNK N   1      17.660  17.110   9.300  0.00  0.00     0.210 C 
ENDBRANCH  20  24
ENDBRANCH   1  16
TORSDOF 3
ENDMDL
MODEL 6
REMARK VINA RESULT:      -5.5      1.792      3.787
REMARK  3 active torsions:
REMARK  status: ('A' for Active; 'I' for Inactive)
REMARK    1  A    between atoms: C_1  and  O_7 
REMARK    2  A    between atoms: C_3  and  O_9 
REMARK    3  A    between atoms: N_11  and  C_5 
REMARK       I    between atoms: C_12  and  N_11 
REMARK       I    between atoms: N_13  and  C_12 
REMARK       I    between atoms: C_14  and  N_13 
REMARK       I    between atoms: C_14  and  N_15 
ROOT
HETATM    1  N   UNK N   1      36.418  15.207  11.885  0.00  0.00    -0.192 N 
HETATM    2  C   UNK N   1      35.279  15.585  11.101  0.00  0.00     0.690 C 
HETATM    3  N   UNK N   1      35.392  16.686  10.202  0.00  0.00    -0.023 N 
HETATM    4  C   UNK N   1      34.339  17.166   9.364  0.00  0.00     0.683 C 
HETATM    5  N   UNK N   1      34.576  18.269   8.516  0.00  0.00    -0.234 N 
HETATM    6  N   UNK N   1      34.172  14.946  11.205  0.00  0.00    -0.234 N 
ATOM      7  HN  UNK N   1      33.369  15.223  10.640  1.00  0.00     0.174 HD
HETATM    8  N   UNK N   1      33.182  16.614   9.365  0.00  0.00    -0.234 N 
ATOM      9  HN  UNK N   1      32.444  16.972   8.758  1.00  0.00     0.174 HD
HETATM   10  H   UNK N   1      37.242  15.730  11.769  0.00  0.00     0.184 HD
HETATM   11  H   UNK N   1      36.259  17.150  10.155  0.00  0.00     0.203 HD
HETATM   12  H   UNK N   1      33.858  18.606   7.934  0.00  0.00     0.174 HD
HETATM   13  H   UNK N   1      35.461  18.700   8.507  0.00  0.00     0.174 HD
HETATM   14  H   UNK N   1      34.097  14.189  11.829  0.00  0.00     0.174 HD
HETATM   15  H   UNK N   1      33.003  15.844   9.953  0.00  0.00     0.174 HD
ENDROOT
BRANCH   1  16
HETATM   16  C   UNK N   1      36.449  14.129  12.820  0.00  0.00     0.054 A 
HETATM   17  C   UNK N   1      36.707  12.827  12.370  0.00  0.00     0.066 A 
HETATM   18  C   UNK N   1      36.742  11.752  13.282  0.00  0.00     0.073 A 
HETATM   19  C   UNK N   1      36.517  11.995  14.642  0.00  0.00     0.073 A 
HETATM   20  C   UNK N   1      36.258  13.297  15.100  0.00  0.00     0.073 A 
HETATM   21  C   UNK N   1      36.227  14.345  14.186  0.00  0.00     0.066 A 
BRANCH  18  22
HETATM   22  O   UNK N   1      36.990  10.483  12.880  0.00  0.00    -0.356 OA
HETATM   23  C   UNK N   1      37.690  10.175  11.736  0.00  0.00     0.210 C 
ENDBRANCH  18  22
BRANCH  20  24
HETATM   24  O   UNK N   1      36.035  13.570  16.406  0.00  0.00    -0.356 OA
HETATM   25  C   UNK N   1      34.897  13.185  17.076  0.00  0.00     0.210 C 
ENDBRANCH  20  24
ENDBRANCH   1  16
TORSDOF 3
ENDMDL
MODEL 7
REMARK VINA RESULT:      -5.5      1.667      2.250
REMARK  3 active torsions:
REMARK  status: ('A' for Active; 'I' for Inactive)
REMARK    1  A    between atoms: C_1  and  O_7 
REMARK    2  A    between atoms: C_3  and  O_9 
REMARK    3  A    between atoms: N_11  and  C_5 
REMARK       I    between atoms: C_12  and  N_11 
REMARK       I    between atoms: N_13  and  C_12 
REMARK       I    between atoms: C_14  and  N_13 
REMARK       I    between atoms: C_14  and  N_15 
ROOT
HETATM    1  N   UNK N   1      36.389  15.170  11.947  0.00  0.00    -0.192 N 
HETATM    2  C   UNK N   1      35.274  15.575  11.145  0.00  0.00     0.690 C 
HETATM    3  N   UNK N   1      35.429  16.671  10.246  0.00  0.00    -0.023 N 
HETATM    4  C   UNK N   1      34.401  17.177   9.391  0.00  0.00     0.683 C 
HETATM    5  N   UNK N   1      34.680  18.271   8.545  0.00  0.00    -0.234 N 
HETATM    6  N   UNK N   1      34.149  14.965  11.232  0.00  0.00    -0.234 N 
ATOM      7  HN  UNK N   1      33.362  15.262  10.654  1.00  0.00     0.174 HD
HETATM    8  N   UNK N   1      33.231  16.654   9.375  0.00  0.00    -0.234 N 
ATOM      9  HN  UNK N   1      32.512  17.031   8.756  1.00  0.00     0.174 HD
HETATM   10  H   UNK N   1      37.229  15.671  11.843  0.00  0.00     0.184 HD
HETATM   11  H   UNK N   1      36.308  17.113  10.212  0.00  0.00     0.203 HD
HETATM   12  H   UNK N   1      33.980  18.627   7.952  0.00  0.00     0.174 HD
HETATM   13  H   UNK N   1      35.576  18.680   8.550  0.00  0.00     0.174 HD
HETATM   14  H   UNK N   1      34.044  14.211  11.856  0.00  0.00     0.174 HD
HETATM   15  H   UNK N   1      33.023  15.891   9.961  0.00  0.00     0.174 HD
ENDROOT
BRANCH   1  16
HETATM   16  C   UNK N   1      36.378  14.092  12.884  0.00  0.00     0.054 A 
HETATM   17  C   UNK N   1      36.222  14.363  14.250  0.00  0.00     0.066 A 
HETATM   18  C   UNK N   1      36.208  13.310  15.188  0.00  0.00     0.073 A 
HETATM   19  C   UNK N   1      36.351  11.991  14.744  0.00  0.00     0.073 A 
HETATM   20  C   UNK N   1      36.508  11.712  13.377  0.00  0.00     0.073 A 
HETATM   21  C   UNK N   1      36.520  12.763  12.466  0.00  0.00     0.066 A 
BRANCH  18  22
HETATM   22  O   UNK N   1      36.058  13.537  16.515  0.00  0.00    -0.356 OA
HETATM   23  C   UNK N   1      35.000  13.055  17.250  0.00  0.00     0.210 C 
ENDBRANCH  18  22
BRANCH  20  24
HETATM   24  O   UNK N   1      36.649  10.450  12.911  0.00  0.00    -0.356 OA
HETATM   25  C   UNK N   1      37.860   9.802  12.836  0.00  0.00     0.210 C 
ENDBRANCH  20  24
ENDBRANCH   1  16
TORSDOF 3
ENDMDL
MODEL 8
REMARK VINA RESULT:      -5.5     15.966     18.232
REMARK  3 active torsions:
REMARK  status: ('A' for Active; 'I' for Inactive)
REMARK    1  A    between atoms: C_1  and  O_7 
REMARK    2  A    between atoms: C_3  and  O_9 
REMARK    3  A    between atoms: N_11  and  C_5 
REMARK       I    between atoms: C_12  and  N_11 
REMARK       I    between atoms: N_13  and  C_12 
REMARK       I    between atoms: C_14  and  N_13 
REMARK       I    between atoms: C_14  and  N_15 
ROOT
HETATM    1  N   UNK N   1      21.096  17.507   5.572  0.00  0.00    -0.192 N 
HETATM    2  C   UNK N   1      20.401  17.452   4.320  0.00  0.00     0.690 C 
HETATM    3  N   UNK N   1      20.717  18.408   3.310  0.00  0.00    -0.023 N 
HETATM    4  C   UNK N   1      20.102  18.467   2.021  0.00  0.00     0.683 C 
HETATM    5  N   UNK N   1      20.502  19.465   1.108  0.00  0.00    -0.234 N 
HETATM    6  N   UNK N   1      19.507  16.558   4.106  0.00  0.00    -0.234 N 
ATOM      7  HN  UNK N   1      19.020  16.528   3.210  1.00  0.00     0.174 HD
HETATM    8  N   UNK N   1      19.196  17.628   1.676  0.00  0.00    -0.234 N 
ATOM      9  HN  UNK N   1      18.772  17.687   0.750  1.00  0.00     0.174 HD
HETATM   10  H   UNK N   1      21.771  18.213   5.686  0.00  0.00     0.184 HD
HETATM   11  H   UNK N   1      21.407  19.078   3.517  0.00  0.00     0.203 HD
HETATM   12  H   UNK N   1      20.086  19.514   0.218  0.00  0.00     0.174 HD
HETATM   13  H   UNK N   1      21.197  20.115   1.363  0.00  0.00     0.174 HD
HETATM   14  H   UNK N   1      19.289  15.901   4.807  0.00  0.00     0.174 HD
HETATM   15  H   UNK N   1      18.909  16.927   2.305  0.00  0.00     0.174 HD
ENDROOT
BRANCH   1  16
HETATM   16  C   UNK N   1      20.885  16.616   6.668  0.00  0.00     0.054 A 
HETATM   17  C   UNK N   1      19.762  16.780   7.489  0.00  0.00     0.066 A 
HETATM   18  C   UNK N   1      19.539  15.908   8.575  0.00  0.00     0.073 A 
HETATM   19  C   UNK N   1      20.449  14.875   8.826  0.00  0.00     0.073 A 
HETATM   20  C   UNK N   1      21.577  14.705   8.007  0.00  0.00     0.073 A 
HETATM   21  C   UNK N   1      21.780  15.574   6.941  0.00  0.00     0.066 A 
BRANCH  18  22
HETATM   22  O   UNK N   1      18.463  16.039   9.387  0.00  0.00    -0.356 OA
HETATM   23  C   UNK N   1      17.540  17.052   9.262  0.00  0.00     0.210 C 
ENDBRANCH  18  22
BRANCH  20  24
HETATM   24  O   UNK N   1      22.478  13.718   8.218  0.00  0.00    -0.356 OA
HETATM   25  C   UNK N   1      22.896  13.331   9.470  0.00  0.00     0.210 C 
ENDBRANCH  20  24
ENDBRANCH   1  16
TORSDOF 3
ENDMDL
MODEL 9
REMARK VINA RESULT:      -5.3      7.360     10.858
REMARK  3 active torsions:
REMARK  status: ('A' for Active; 'I' for Inactive)
REMARK    1  A    between atoms: C_1  and  O_7 
REMARK    2  A    between atoms: C_3  and  O_9 
REMARK    3  A    between atoms: N_11  and  C_5 
REMARK       I    between atoms: C_12  and  N_11 
REMARK       I    between atoms: N_13  and  C_12 
REMARK       I    between atoms: C_14  and  N_13 
REMARK       I    between atoms: C_14  and  N_15 
ROOT
HETATM    1  N   UNK N   1      31.879  15.633   8.223  0.00  0.00    -0.192 N 
HETATM    2  C   UNK N   1      32.924  16.207   9.017  0.00  0.00     0.690 C 
HETATM    3  N   UNK N   1      33.597  15.389   9.972  0.00  0.00    -0.023 N 
HETATM    4  C   UNK N   1      34.654  15.832  10.826  0.00  0.00     0.683 C 
HETATM    5  N   UNK N   1      35.239  14.923  11.732  0.00  0.00    -0.234 N 
HETATM    6  N   UNK N   1      33.253  17.438   8.876  0.00  0.00    -0.234 N 
ATOM      7  HN  UNK N   1      34.000  17.835   9.446  1.00  0.00     0.174 HD
HETATM    8  N   UNK N   1      35.083  17.040  10.783  0.00  0.00    -0.234 N 
ATOM      9  HN  UNK N   1      35.840  17.335  11.401  1.00  0.00     0.174 HD
HETATM   10  H   UNK N   1      31.665  14.685   8.371  0.00  0.00     0.184 HD
HETATM   11  H   UNK N   1      33.312  14.450  10.050  0.00  0.00     0.203 HD
HETATM   12  H   UNK N   1      35.969  15.218  12.324  0.00  0.00     0.174 HD
HETATM   13  H   UNK N   1      34.917  13.994  11.774  0.00  0.00     0.174 HD
HETATM   14  H   UNK N   1      32.784  18.001   8.219  0.00  0.00     0.174 HD
HETATM   15  H   UNK N   1      34.683  17.683  10.155  0.00  0.00     0.174 HD
ENDROOT
BRANCH   1  16
HETATM   16  C   UNK N   1      31.124  16.331   7.232  0.00  0.00     0.054 A 
HETATM   17  C   UNK N   1      29.919  16.952   7.587  0.00  0.00     0.066 A 
HETATM   18  C   UNK N   1      29.163  17.646   6.619  0.00  0.00     0.073 A 
HETATM   19  C   UNK N   1      29.625  17.709   5.300  0.00  0.00     0.073 A 
HETATM   20  C   UNK N   1      30.831  17.088   4.937  0.00  0.00     0.073 A 
HETATM   21  C   UNK N   1      31.564  16.409   5.904  0.00  0.00     0.066 A 
BRANCH  18  22
HETATM   22  O   UNK N   1      27.996  18.257   6.930  0.00  0.00    -0.356 OA
HETATM   23  C   UNK N   1      27.830  19.624   6.915  0.00  0.00     0.210 C 
ENDBRANCH  18  22
BRANCH  20  24
HETATM   24  O   UNK N   1      31.310  17.128   3.672  0.00  0.00    -0.356 OA
HETATM   25  C   UNK N   1      32.647  17.037   3.366  0.00  0.00     0.210 C 
ENDBRANCH  20  24
ENDBRANCH   1  16
TORSDOF 3
ENDMDL
