REMARK  3 active torsions:
REMARK  status: ('A' for Active; 'I' for Inactive)
REMARK    1  A    between atoms: C_1  and  O_7 
REMARK    2  A    between atoms: C_3  and  O_9 
REMARK    3  A    between atoms: N_11  and  C_5 
REMARK       I    between atoms: C_12  and  N_11 
REMARK       I    between atoms: N_13  and  C_12 
REMARK       I    between atoms: C_14  and  N_13 
REMARK       I    between atoms: C_14  and  N_15 
ROOT
HETATM    1  N   UNK N   1       1.144   1.086   0.002  0.00  0.00    -0.192 N 
HETATM    2  C   UNK N   1       2.437   0.469  -0.000  0.00  0.00     0.690 C 
HETATM    3  N   UNK N   1       3.599   1.296   0.002  0.00  0.00    -0.023 N 
HETATM    4  C   UNK N   1       4.944   0.813   0.000  0.00  0.00     0.683 C 
HETATM    5  N   UNK N   1       6.011   1.736   0.001  0.00  0.00    -0.234 N 
HETATM    6  N   UNK N   1       2.553  -0.808  -0.006  0.00  0.00    -0.234 N 
ATOM      7  HN  UNK N   1       3.479  -1.236  -0.006  1.00  0.00     0.174 HD
HETATM    8  N   UNK N   1       5.201  -0.443  -0.000  0.00  0.00    -0.234 N 
ATOM      9  HN  UNK N   1       6.169  -0.766  -0.000  1.00  0.00     0.174 HD
HETATM   10  H   UNK N   1       1.110   2.069   0.005  0.00  0.00     0.184 HD
HETATM   11  H   UNK N   1       3.465   2.271   0.004  0.00  0.00     0.203 HD
HETATM   12  H   UNK N   1       6.941   1.414   0.001  0.00  0.00     0.174 HD
HETATM   13  H   UNK N   1       5.825   2.703   0.001  0.00  0.00     0.174 HD
HETATM   14  H   UNK N   1       1.749  -1.376  -0.011  0.00  0.00     0.174 HD
HETATM   15  H   UNK N   1       4.465  -1.097  -0.001  0.00  0.00     0.174 HD
ENDROOT
BRANCH   1  16
HETATM   16  C   UNK N   1      -0.100   0.385   0.002  0.00  0.00     0.054 A 
HETATM   17  C   UNK N   1      -1.302   1.105   0.001  0.00  0.00     0.066 A 
HETATM   18  C   UNK N   1      -2.539   0.427  -0.000  0.00  0.00     0.073 A 
HETATM   19  C   UNK N   1      -2.557  -0.972  -0.000  0.00  0.00     0.073 A 
HETATM   20  C   UNK N   1      -1.356  -1.700   0.001  0.00  0.00     0.073 A 
HETATM   21  C   UNK N   1      -0.146  -1.015   0.002  0.00  0.00     0.066 A 
BRANCH  18  22
HETATM   22  O   UNK N   1      -3.718   1.093  -0.002  0.00  0.00    -0.356 OA
HETATM   23  C   UNK N   1      -3.811   2.466  -0.002  0.00  0.00     0.210 C 
ENDBRANCH  18  22
BRANCH  20  24
HETATM   24  O   UNK N   1      -1.334  -3.053   0.001  0.00  0.00    -0.356 OA
HETATM   25  C   UNK N   1      -2.470  -3.828  -0.001  0.00  0.00     0.210 C 
ENDBRANCH  20  24
ENDBRANCH   1  16
TORSDOF 3
