MODEL 1
REMARK VINA RESULT:      -5.4      0.000      0.000
REMARK  3 active torsions:
REMARK  status: ('A' for Active; 'I' for Inactive)
REMARK    1  A    between atoms: C_2  and  C_3 
REMARK    2  A    between atoms: C_6  and  N_4 
REMARK    3  A    between atoms: C_12  and  O_15 
ROOT
HETATM    1  C   UNK N   1      21.754  14.062   8.717  0.00  0.00     0.115 A 
HETATM    2  C   UNK N   1      20.427  13.768   9.454  0.00  0.00     0.034 A 
HETATM    3  C   UNK N   1      20.725  12.901  10.701  0.00  0.00     0.044 A 
HETATM    4  C   UNK N   1      22.188  12.730  10.636  0.00  0.00    -0.017 A 
HETATM    5  C   UNK N   1      22.755  13.359   9.559  0.00  0.00    -0.027 A 
HETATM    6  C   UNK N   1      24.136  13.301   9.343  0.00  0.00     0.010 A 
HETATM    7  C   UNK N   1      22.964  12.013  11.550  0.00  0.00     0.072 A 
HETATM    8  C   UNK N   1      24.350  11.941  11.353  0.00  0.00     0.037 A 
HETATM    9  C   UNK N   1      24.937  12.585  10.249  0.00  0.00     0.003 A 
ENDROOT
BRANCH   1  10
HETATM   10  N   UNK N   1      22.209  14.780   7.530  0.00  0.00    -0.390 N 
HETATM   11  C   UNK N   1      21.751  15.938   7.193  0.00  0.00     0.083 C 
ATOM     12  HN  UNK N   1      22.921  14.348   6.941  1.00  0.00     0.159 HD
BRANCH  11  13
HETATM   13  C   UNK N   1      22.234  16.624   5.995  0.00  0.00     0.006 C 
HETATM   14  C   UNK N   1      21.988  17.921   5.841  0.00  0.00     0.012 C 
ENDBRANCH  11  13
ENDBRANCH   1  10
BRANCH   7  15
HETATM   15  O   UNK N   1      22.396  11.401  12.603  0.00  0.00    -0.360 OA
HETATM   16  H   UNK N   1      22.602  11.678  13.474  0.00  0.00     0.217 HD
ENDBRANCH   7  15
TORSDOF 3
ENDMDL
MODEL 2
REMARK VINA RESULT:      -5.4     14.519     15.313
REMARK  3 active torsions:
REMARK  status: ('A' for Active; 'I' for Inactive)
REMARK    1  A    between atoms: C_2  and  C_3 
REMARK    2  A    between atoms: C_6  and  N_4 
REMARK    3  A    between atoms: C_12  and  O_15 
ROOT
HETATM    1  C   UNK N   1      36.417  12.741  14.634  0.00  0.00     0.115 A 
HETATM    2  C   UNK N   1      35.472  11.736  15.331  0.00  0.00     0.034 A 
HETATM    3  C   UNK N   1      35.082  12.292  16.721  0.00  0.00     0.044 A 
HETATM    4  C   UNK N   1      35.805  13.576  16.772  0.00  0.00    -0.017 A 
HETATM    5  C   UNK N   1      36.534  13.827  15.639  0.00  0.00    -0.027 A 
HETATM    6  C   UNK N   1      37.283  15.003  15.517  0.00  0.00     0.010 A 
HETATM    7  C   UNK N   1      35.784  14.480  17.838  0.00  0.00     0.072 A 
HETATM    8  C   UNK N   1      36.527  15.664  17.736  0.00  0.00     0.037 A 
HETATM    9  C   UNK N   1      37.277  15.926  16.576  0.00  0.00     0.003 A 
ENDROOT
BRANCH   1  10
HETATM   10  N   UNK N   1      37.141  12.866  13.371  0.00  0.00    -0.390 N 
HETATM   11  C   UNK N   1      36.612  13.371  12.308  0.00  0.00     0.083 C 
ATOM     12  HN  UNK N   1      38.107  12.540  13.327  1.00  0.00     0.159 HD
BRANCH  11  13
HETATM   13  C   UNK N   1      37.371  13.479  11.063  0.00  0.00     0.006 C 
HETATM   14  C   UNK N   1      36.931  14.278  10.096  0.00  0.00     0.012 C 
ENDBRANCH  11  13
ENDBRANCH   1  10
BRANCH   7  15
HETATM   15  O   UNK N   1      35.065  14.222  18.943  0.00  0.00    -0.360 OA
HETATM   16  H   UNK N   1      34.843  14.918  19.530  0.00  0.00     0.217 HD
ENDBRANCH   7  15
TORSDOF 3
ENDMDL
MODEL 3
REMARK VINA RESULT:      -5.4      8.292      9.970
REMARK  3 active torsions:
REMARK  status: ('A' for Active; 'I' for Inactive)
REMARK    1  A    between atoms: C_2  and  C_3 
REMARK    2  A    between atoms: C_6  and  N_4 
REMARK    3  A    between atoms: C_12  and  O_15 
ROOT
HETATM    1  C   UNK N   1      29.287  17.933   5.561  0.00  0.00     0.115 A 
HETATM    2  C   UNK N   1      29.333  17.660   7.082  0.00  0.00     0.034 A 
HETATM    3  C   UNK N   1      28.328  18.598   7.793  0.00  0.00     0.044 A 
HETATM    4  C   UNK N   1      27.750  19.363   6.673  0.00  0.00    -0.017 A 
HETATM    5  C   UNK N   1      28.267  19.007   5.456  0.00  0.00    -0.027 A 
HETATM    6  C   UNK N   1      27.830  19.633   4.282  0.00  0.00     0.010 A 
HETATM    7  C   UNK N   1      26.775  20.358   6.786  0.00  0.00     0.072 A 
HETATM    8  C   UNK N   1      26.323  20.998   5.624  0.00  0.00     0.037 A 
HETATM    9  C   UNK N   1      26.851  20.636   4.371  0.00  0.00     0.003 A 
ENDROOT
BRANCH   1  10
HETATM   10  N   UNK N   1      29.929  17.447   4.343  0.00  0.00    -0.390 N 
HETATM   11  C   UNK N   1      31.202  17.258   4.250  0.00  0.00     0.083 C 
ATOM     12  HN  UNK N   1      29.346  17.247   3.530  1.00  0.00     0.159 HD
BRANCH  11  13
HETATM   13  C   UNK N   1      31.806  16.770   3.010  0.00  0.00     0.006 C 
HETATM   14  C   UNK N   1      33.078  16.384   3.011  0.00  0.00     0.012 C 
ENDBRANCH  11  13
ENDBRANCH   1  10
BRANCH   7  15
HETATM   15  O   UNK N   1      26.276  20.698   7.986  0.00  0.00    -0.360 OA
HETATM   16  H   UNK N   1      25.498  21.219   8.040  0.00  0.00     0.217 HD
ENDBRANCH   7  15
TORSDOF 3
ENDMDL
MODEL 4
REMARK VINA RESULT:      -5.2     17.981     19.240
REMARK  3 active torsions:
REMARK  status: ('A' for Active; 'I' for Inactive)
REMARK    1  A    between atoms: C_2  and  C_3 
REMARK    2  A    between atoms: C_6  and  N_4 
REMARK    3  A    between atoms: C_12  and  O_15 
ROOT
HETATM    1  C   UNK N   1      26.718  24.004  -5.458  0.00  0.00     0.115 A 
HETATM    2  C   UNK N   1      27.559  23.792  -4.179  0.00  0.00     0.034 A 
HETATM    3  C   UNK N   1      27.412  25.034  -3.268  0.00  0.00     0.044 A 
HETATM    4  C   UNK N   1      26.507  25.901  -4.044  0.00  0.00    -0.017 A 
HETATM    5  C   UNK N   1      26.125  25.347  -5.237  0.00  0.00    -0.027 A 
HETATM    6  C   UNK N   1      25.265  26.034  -6.102  0.00  0.00     0.010 A 
HETATM    7  C   UNK N   1      26.054  27.164  -3.651  0.00  0.00     0.072 A 
HETATM    8  C   UNK N   1      25.193  27.869  -4.502  0.00  0.00     0.037 A 
HETATM    9  C   UNK N   1      24.798  27.305  -5.728  0.00  0.00     0.003 A 
ENDROOT
BRANCH   1  10
HETATM   10  N   UNK N   1      26.402  23.286  -6.690  0.00  0.00    -0.390 N 
HETATM   11  C   UNK N   1      25.437  22.434  -6.777  0.00  0.00     0.083 C 
ATOM     12  HN  UNK N   1      26.969  23.466  -7.519  1.00  0.00     0.159 HD
BRANCH  11  13
HETATM   13  C   UNK N   1      25.154  21.736  -8.030  0.00  0.00     0.006 C 
HETATM   14  C   UNK N   1      25.665  20.527  -8.235  0.00  0.00     0.012 C 
ENDBRANCH  11  13
ENDBRANCH   1  10
BRANCH   7  15
HETATM   15  O   UNK N   1      26.436  27.696  -2.478  0.00  0.00    -0.360 OA
HETATM   16  H   UNK N   1      25.814  28.151  -1.945  0.00  0.00     0.217 HD
ENDBRANCH   7  15
TORSDOF 3
ENDMDL
MODEL 5
REMARK VINA RESULT:      -5.2      1.523      2.641
REMARK  3 active torsions:
REMARK  status: ('A' for Active; 'I' for Inactive)
REMARK    1  A    between atoms: C_2  and  C_3 
REMARK    2  A    between atoms: C_6  and  N_4 
REMARK    3  A    between atoms: C_12  and  O_15 
ROOT
HETATM    1  C   UNK N   1      22.597  13.952   7.987  0.00  0.00     0.115 A 
HETATM    2  C   UNK N   1      24.108  13.981   7.663  0.00  0.00     0.034 A 
HETATM    3  C   UNK N   1      24.883  13.298   8.815  0.00  0.00     0.044 A 
HETATM    4  C   UNK N   1      23.807  12.908   9.744  0.00  0.00    -0.017 A 
HETATM    5  C   UNK N   1      22.560  13.261   9.300  0.00  0.00    -0.027 A 
HETATM    6  C   UNK N   1      21.421  12.968  10.059  0.00  0.00     0.010 A 
HETATM    7  C   UNK N   1      23.984  12.246  10.962  0.00  0.00     0.072 A 
HETATM    8  C   UNK N   1      22.857  11.943  11.738  0.00  0.00     0.037 A 
HETATM    9  C   UNK N   1      21.575  12.303  11.287  0.00  0.00     0.003 A 
ENDROOT
BRANCH   1  10
HETATM   10  N   UNK N   1      21.341  14.391   7.383  0.00  0.00    -0.390 N 
HETATM   11  C   UNK N   1      20.946  15.619   7.402  0.00  0.00     0.083 C 
ATOM     12  HN  UNK N   1      20.750  13.696   6.927  1.00  0.00     0.159 HD
BRANCH  11  13
HETATM   13  C   UNK N   1      19.681  16.016   6.786  0.00  0.00     0.006 C 
HETATM   14  C   UNK N   1      19.421  15.653   5.534  0.00  0.00     0.012 C 
ENDBRANCH  11  13
ENDBRANCH   1  10
BRANCH   7  15
HETATM   15  O   UNK N   1      25.213  11.906  11.387  0.00  0.00    -0.360 OA
HETATM   16  H   UNK N   1      25.964  12.122  10.870  0.00  0.00     0.217 HD
ENDBRANCH   7  15
TORSDOF 3
ENDMDL
MODEL 6
REMARK VINA RESULT:      -5.2     13.762     15.254
REMARK  3 active torsions:
REMARK  status: ('A' for Active; 'I' for Inactive)
REMARK    1  A    between atoms: C_2  and  C_3 
REMARK    2  A    between atoms: C_6  and  N_4 
REMARK    3  A    between atoms: C_12  and  O_15 
ROOT
HETATM    1  C   UNK N   1      35.245  13.220  16.823  0.00  0.00     0.115 A 
HETATM    2  C   UNK N   1      35.286  14.127  18.074  0.00  0.00     0.034 A 
HETATM    3  C   UNK N   1      35.243  13.239  19.341  0.00  0.00     0.044 A 
HETATM    4  C   UNK N   1      35.180  11.877  18.781  0.00  0.00    -0.017 A 
HETATM    5  C   UNK N   1      35.181  11.859  17.411  0.00  0.00    -0.027 A 
HETATM    6  C   UNK N   1      35.125  10.648  16.712  0.00  0.00     0.010 A 
HETATM    7  C   UNK N   1      35.124  10.694  19.523  0.00  0.00     0.072 A 
HETATM    8  C   UNK N   1      35.068   9.470  18.844  0.00  0.00     0.037 A 
HETATM    9  C   UNK N   1      35.068   9.446  17.437  0.00  0.00     0.003 A 
ENDROOT
BRANCH   1  10
HETATM   10  N   UNK N   1      35.253  13.362  15.369  0.00  0.00    -0.390 N 
HETATM   11  C   UNK N   1      36.308  13.694  14.704  0.00  0.00     0.083 C 
ATOM     12  HN  UNK N   1      34.387  13.192  14.857  1.00  0.00     0.159 HD
BRANCH  11  13
HETATM   13  C   UNK N   1      36.273  13.825  13.247  0.00  0.00     0.006 C 
HETATM   14  C   UNK N   1      35.248  13.320  12.570  0.00  0.00     0.012 C 
ENDBRANCH  11  13
ENDBRANCH   1  10
BRANCH   7  15
HETATM   15  O   UNK N   1      35.124  10.726  20.866  0.00  0.00    -0.360 OA
HETATM   16  H   UNK N   1      35.544  10.042  21.351  0.00  0.00     0.217 HD
ENDBRANCH   7  15
TORSDOF 3
ENDMDL
MODEL 7
REMARK VINA RESULT:      -5.2      9.847     11.669
REMARK  3 active torsions:
REMARK  status: ('A' for Active; 'I' for Inactive)
REMARK    1  A    between atoms: C_2  and  C_3 
REMARK    2  A    between atoms: C_6  and  N_4 
REMARK    3  A    between atoms: C_12  and  O_15 
ROOT
HETATM    1  C   UNK N   1      31.935  16.984   8.274  0.00  0.00     0.115 A 
HETATM    2  C   UNK N   1      30.395  16.999   8.409  0.00  0.00     0.034 A 
HETATM    3  C   UNK N   1      29.769  17.221   7.011  0.00  0.00     0.044 A 
HETATM    4  C   UNK N   1      30.952  17.325   6.138  0.00  0.00    -0.017 A 
HETATM    5  C   UNK N   1      32.134  17.196   6.818  0.00  0.00    -0.027 A 
HETATM    6  C   UNK N   1      33.359  17.269   6.144  0.00  0.00     0.010 A 
HETATM    7  C   UNK N   1      30.927  17.531   4.756  0.00  0.00     0.072 A 
HETATM    8  C   UNK N   1      32.142  17.607   4.061  0.00  0.00     0.037 A 
HETATM    9  C   UNK N   1      33.358  17.476   4.754  0.00  0.00     0.003 A 
ENDROOT
BRANCH   1  10
HETATM   10  N   UNK N   1      33.106  16.830   9.132  0.00  0.00    -0.390 N 
HETATM   11  C   UNK N   1      33.593  15.679   9.453  0.00  0.00     0.083 C 
ATOM     12  HN  UNK N   1      33.560  17.669   9.494  1.00  0.00     0.159 HD
BRANCH  11  13
HETATM   13  C   UNK N   1      34.768  15.568  10.317  0.00  0.00     0.006 C 
HETATM   14  C   UNK N   1      35.400  16.671  10.704  0.00  0.00     0.012 C 
ENDBRANCH  11  13
ENDBRANCH   1  10
BRANCH   7  15
HETATM   15  O   UNK N   1      29.761  17.655   4.100  0.00  0.00    -0.360 OA
HETATM   16  H   UNK N   1      29.651  17.256   3.259  0.00  0.00     0.217 HD
ENDBRANCH   7  15
TORSDOF 3
ENDMDL
MODEL 8
REMARK VINA RESULT:      -5.1      9.385     10.728
REMARK  3 active torsions:
REMARK  status: ('A' for Active; 'I' for Inactive)
REMARK    1  A    between atoms: C_2  and  C_3 
REMARK    2  A    between atoms: C_6  and  N_4 
REMARK    3  A    between atoms: C_12  and  O_15 
ROOT
HETATM    1  C   UNK N   1      30.798  16.983   4.380  0.00  0.00     0.115 A 
HETATM    2  C   UNK N   1      32.067  17.179   3.519  0.00  0.00     0.034 A 
HETATM    3  C   UNK N   1      33.260  17.506   4.449  0.00  0.00     0.044 A 
HETATM    4  C   UNK N   1      32.644  17.487   5.788  0.00  0.00    -0.017 A 
HETATM    5  C   UNK N   1      31.305  17.202   5.758  0.00  0.00    -0.027 A 
HETATM    6  C   UNK N   1      30.560  17.143   6.942  0.00  0.00     0.010 A 
HETATM    7  C   UNK N   1      33.310  17.725   6.993  0.00  0.00     0.072 A 
HETATM    8  C   UNK N   1      32.584  17.671   8.190  0.00  0.00     0.037 A 
HETATM    9  C   UNK N   1      31.208  17.379   8.165  0.00  0.00     0.003 A 
ENDROOT
BRANCH   1  10
HETATM   10  N   UNK N   1      29.385  16.670   4.188  0.00  0.00    -0.390 N 
HETATM   11  C   UNK N   1      28.890  16.338   3.044  0.00  0.00     0.083 C 
ATOM     12  HN  UNK N   1      28.761  16.716   4.994  1.00  0.00     0.159 HD
BRANCH  11  13
HETATM   13  C   UNK N   1      27.467  16.032   2.894  0.00  0.00     0.006 C 
HETATM   14  C   UNK N   1      27.083  15.133   1.994  0.00  0.00     0.012 C 
ENDBRANCH  11  13
ENDBRANCH   1  10
BRANCH   7  15
HETATM   15  O   UNK N   1      34.625  18.003   7.009  0.00  0.00    -0.360 OA
HETATM   16  H   UNK N   1      35.101  18.058   6.203  0.00  0.00     0.217 HD
ENDBRANCH   7  15
TORSDOF 3
ENDMDL
MODEL 9
REMARK VINA RESULT:      -5.1     19.208     21.090
REMARK  3 active torsions:
REMARK  status: ('A' for Active; 'I' for Inactive)
REMARK    1  A    between atoms: C_2  and  C_3 
REMARK    2  A    between atoms: C_6  and  N_4 
REMARK    3  A    between atoms: C_12  and  O_15 
ROOT
HETATM    1  C   UNK N   1      26.435  26.040  -7.164  0.00  0.00     0.115 A 
HETATM    2  C   UNK N   1      27.452  26.735  -8.097  0.00  0.00     0.034 A 
HETATM    3  C   UNK N   1      27.873  28.085  -7.468  0.00  0.00     0.044 A 
HETATM    4  C   UNK N   1      27.094  28.116  -6.216  0.00  0.00    -0.017 A 
HETATM    5  C   UNK N   1      26.310  27.007  -6.044  0.00  0.00    -0.027 A 
HETATM    6  C   UNK N   1      25.503  26.871  -4.908  0.00  0.00     0.010 A 
HETATM    7  C   UNK N   1      27.117  29.145  -5.270  0.00  0.00     0.072 A 
HETATM    8  C   UNK N   1      26.317  29.029  -4.125  0.00  0.00     0.037 A 
HETATM    9  C   UNK N   1      25.510  27.892  -3.943  0.00  0.00     0.003 A 
ENDROOT
BRANCH   1  10
HETATM   10  N   UNK N   1      25.657  24.805  -7.121  0.00  0.00    -0.390 N 
HETATM   11  C   UNK N   1      26.162  23.670  -6.772  0.00  0.00     0.083 C 
ATOM     12  HN  UNK N   1      24.670  24.841  -7.379  1.00  0.00     0.159 HD
BRANCH  11  13
HETATM   13  C   UNK N   1      25.347  22.456  -6.743  0.00  0.00     0.006 C 
HETATM   14  C   UNK N   1      24.909  21.936  -7.884  0.00  0.00     0.012 C 
ENDBRANCH  11  13
ENDBRANCH   1  10
BRANCH   7  15
HETATM   15  O   UNK N   1      27.891  30.228  -5.451  0.00  0.00    -0.360 OA
HETATM   16  H   UNK N   1      27.502  31.079  -5.503  0.00  0.00     0.217 HD
ENDBRANCH   7  15
TORSDOF 3
ENDMDL
