MODEL 1
REMARK VINA RESULT:      -7.9      0.000      0.000
REMARK  4 active torsions:
REMARK  status: ('A' for Active; 'I' for Inactive)
REMARK    1  A    between atoms: C_3  and  C_25 
REMARK    2  A    between atoms: C_9  and  N_10 
REMARK    3  A    between atoms: N_10  and  S_11 
REMARK    4  A    between atoms: S_11  and  C_12 
ROOT
HETATM    1  C   UNK N   1      33.763  17.358   7.335  0.00  0.00     0.079 A 
HETATM    2  S   UNK N   1      33.069  15.798   7.910  0.00  0.00    -0.048 SA
HETATM    3  C   UNK N   1      33.879  16.211   9.486  0.00  0.00     0.162 A 
HETATM    4  C   UNK N   1      34.414  18.063   8.422  0.00  0.00     0.264 A 
HETATM    5  N   UNK N   1      34.483  17.338   9.542  0.00  0.00    -0.302 N 
ATOM      6  HN  UNK N   1      34.976  17.658  10.376  1.00  0.00     0.171 HD
HETATM    7  O   UNK N   1      34.954  19.146   8.314  0.00  0.00    -0.267 OA
HETATM    8  C   UNK N   1      33.823  17.782   6.062  0.00  0.00     0.061 C 
ENDROOT
BRANCH   3   9
HETATM    9  N   UNK N   1      34.134  15.237  10.472  0.00  0.00    -0.260 N 
HETATM   10  H   UNK N   1      33.368  14.707  10.788  0.00  0.00     0.181 HD
BRANCH   9  11
HETATM   11  S   UNK N   1      35.692  14.889  11.184  0.00  0.00     0.264 S 
HETATM   12  O   UNK N   1      36.880  15.289  10.291  0.00  0.00    -0.200 OA
HETATM   13  O   UNK N   1      35.701  16.219  11.943  0.00  0.00    -0.200 OA
BRANCH  11  14
HETATM   14  C   UNK N   1      35.757  13.926  12.683  0.00  0.00     0.080 A 
HETATM   15  C   UNK N   1      34.934  12.801  12.787  0.00  0.00     0.026 A 
HETATM   16  C   UNK N   1      34.787  12.150  14.013  0.00  0.00     0.008 A 
HETATM   17  C   UNK N   1      35.450  12.634  15.143  0.00  0.00    -0.062 A 
HETATM   18  C   UNK N   1      36.282  13.755  15.042  0.00  0.00     0.008 A 
HETATM   19  C   UNK N   1      35.250  11.971  16.458  0.00  0.00     0.048 C 
HETATM   20  C   UNK N   1      36.429  14.407  13.814  0.00  0.00     0.026 A 
ENDBRANCH  11  14
ENDBRANCH   9  11
ENDBRANCH   3   9
BRANCH   8  21
HETATM   21  C   UNK N   1      33.307  17.019   4.917  0.00  0.00     0.077 A 
HETATM   22  C   UNK N   1      32.254  17.418   4.115  0.00  0.00     0.040 A 
HETATM   23  C   UNK N   1      32.143  16.441   3.138  0.00  0.00     0.035 A 
HETATM   24  C   UNK N   1      33.138  15.526   3.416  0.00  0.00     0.050 A 
HETATM   25  O   UNK N   1      33.811  15.897   4.472  0.00  0.00    -0.316 OA
HETATM   26  C   UNK N   1      33.428  14.296   2.636  0.00  0.00     0.076 C 
ENDBRANCH   8  21
TORSDOF 4
ENDMDL
MODEL 2
REMARK VINA RESULT:      -7.7      2.489      8.631
REMARK  4 active torsions:
REMARK  status: ('A' for Active; 'I' for Inactive)
REMARK    1  A    between atoms: C_3  and  C_25 
REMARK    2  A    between atoms: C_9  and  N_10 
REMARK    3  A    between atoms: N_10  and  S_11 
REMARK    4  A    between atoms: S_11  and  C_12 
ROOT
HETATM    1  C   UNK N   1      34.742  13.458  10.823  0.00  0.00     0.079 A 
HETATM    2  S   UNK N   1      34.878  15.237  11.076  0.00  0.00    -0.048 SA
HETATM    3  C   UNK N   1      34.743  15.336   9.264  0.00  0.00     0.162 A 
HETATM    4  C   UNK N   1      34.488  13.155   9.429  0.00  0.00     0.264 A 
HETATM    5  N   UNK N   1      34.565  14.232   8.642  0.00  0.00    -0.302 N 
ATOM      6  HN  UNK N   1      34.486  14.179   7.626  1.00  0.00     0.171 HD
HETATM    7  O   UNK N   1      34.341  12.034   8.984  0.00  0.00    -0.267 OA
HETATM    8  C   UNK N   1      34.982  12.503  11.737  0.00  0.00     0.061 C 
ENDROOT
BRANCH   3   9
HETATM    9  N   UNK N   1      35.144  16.480   8.547  0.00  0.00    -0.260 N 
HETATM   10  H   UNK N   1      36.078  16.514   8.241  0.00  0.00     0.181 HD
BRANCH   9  11
HETATM   11  S   UNK N   1      34.126  17.846   8.153  0.00  0.00     0.264 S 
HETATM   12  O   UNK N   1      34.818  19.206   8.351  0.00  0.00    -0.200 OA
HETATM   13  O   UNK N   1      34.505  17.768   6.672  0.00  0.00    -0.200 OA
BRANCH  11  14
HETATM   14  C   UNK N   1      32.397  17.563   7.822  0.00  0.00     0.080 A 
HETATM   15  C   UNK N   1      32.030  17.091   6.558  0.00  0.00     0.026 A 
HETATM   16  C   UNK N   1      30.686  17.065   6.182  0.00  0.00     0.008 A 
HETATM   17  C   UNK N   1      29.707  17.530   7.062  0.00  0.00    -0.062 A 
HETATM   18  C   UNK N   1      30.069  17.995   8.331  0.00  0.00     0.008 A 
HETATM   19  C   UNK N   1      28.283  17.551   6.639  0.00  0.00     0.048 C 
HETATM   20  C   UNK N   1      31.414  18.021   8.709  0.00  0.00     0.026 A 
ENDBRANCH  11  14
ENDBRANCH   9  11
ENDBRANCH   3   9
BRANCH   8  21
HETATM   21  C   UNK N   1      35.391  12.776  13.123  0.00  0.00     0.077 A 
HETATM   22  C   UNK N   1      36.671  13.120  13.512  0.00  0.00     0.040 A 
HETATM   23  C   UNK N   1      36.595  13.338  14.879  0.00  0.00     0.035 A 
HETATM   24  C   UNK N   1      35.276  13.113  15.216  0.00  0.00     0.050 A 
HETATM   25  O   UNK N   1      34.588  12.785  14.155  0.00  0.00    -0.316 OA
HETATM   26  C   UNK N   1      34.697  13.231  16.579  0.00  0.00     0.076 C 
ENDBRANCH   8  21
TORSDOF 4
ENDMDL
MODEL 3
REMARK VINA RESULT:      -7.6      1.575      2.007
REMARK  4 active torsions:
REMARK  status: ('A' for Active; 'I' for Inactive)
REMARK    1  A    between atoms: C_3  and  C_25 
REMARK    2  A    between atoms: C_9  and  N_10 
REMARK    3  A    between atoms: N_10  and  S_11 
REMARK    4  A    between atoms: S_11  and  C_12 
ROOT
HETATM    1  C   UNK N   1      34.179  16.623   8.930  0.00  0.00     0.079 A 
HETATM    2  S   UNK N   1      33.218  15.122   9.192  0.00  0.00    -0.048 SA
HETATM    3  C   UNK N   1      34.162  14.989  10.742  0.00  0.00     0.162 A 
HETATM    4  C   UNK N   1      35.002  16.916  10.086  0.00  0.00     0.264 A 
HETATM    5  N   UNK N   1      34.976  15.942  11.001  0.00  0.00    -0.302 N 
ATOM      6  HN  UNK N   1      35.559  15.957  11.838  1.00  0.00     0.171 HD
HETATM    7  O   UNK N   1      35.738  17.877  10.181  0.00  0.00    -0.267 OA
HETATM    8  C   UNK N   1      34.265  17.324   7.787  0.00  0.00     0.061 C 
ENDROOT
BRANCH   3   9
HETATM    9  N   UNK N   1      34.264  13.777  11.453  0.00  0.00    -0.260 N 
HETATM   10  H   UNK N   1      33.459  13.213  11.497  0.00  0.00     0.181 HD
BRANCH   9  11
HETATM   11  S   UNK N   1      35.696  13.187  12.264  0.00  0.00     0.264 S 
HETATM   12  O   UNK N   1      37.008  13.601  11.575  0.00  0.00    -0.200 OA
HETATM   13  O   UNK N   1      35.714  14.386  13.216  0.00  0.00    -0.200 OA
BRANCH  11  14
HETATM   14  C   UNK N   1      35.509  12.014  13.594  0.00  0.00     0.080 A 
HETATM   15  C   UNK N   1      34.276  11.373  13.748  0.00  0.00     0.026 A 
HETATM   16  C   UNK N   1      34.014  10.622  14.895  0.00  0.00     0.008 A 
HETATM   17  C   UNK N   1      34.979  10.526  15.900  0.00  0.00    -0.062 A 
HETATM   18  C   UNK N   1      36.217  11.158  15.747  0.00  0.00     0.008 A 
HETATM   19  C   UNK N   1      34.678   9.769  17.143  0.00  0.00     0.048 C 
HETATM   20  C   UNK N   1      36.480  11.911  14.598  0.00  0.00     0.026 A 
ENDBRANCH  11  14
ENDBRANCH   9  11
ENDBRANCH   3   9
BRANCH   8  21
HETATM   21  C   UNK N   1      33.559  16.965   6.548  0.00  0.00     0.077 A 
HETATM   22  C   UNK N   1      32.217  17.194   6.312  0.00  0.00     0.040 A 
HETATM   23  C   UNK N   1      31.990  16.758   5.016  0.00  0.00     0.035 A 
HETATM   24  C   UNK N   1      33.210  16.300   4.561  0.00  0.00     0.050 A 
HETATM   25  O   UNK N   1      34.119  16.439   5.489  0.00  0.00    -0.316 OA
HETATM   26  C   UNK N   1      33.478  15.737   3.214  0.00  0.00     0.076 C 
ENDBRANCH   8  21
TORSDOF 4
ENDMDL
MODEL 4
REMARK VINA RESULT:      -7.3      2.538      8.297
REMARK  4 active torsions:
REMARK  status: ('A' for Active; 'I' for Inactive)
REMARK    1  A    between atoms: C_3  and  C_25 
REMARK    2  A    between atoms: C_9  and  N_10 
REMARK    3  A    between atoms: N_10  and  S_11 
REMARK    4  A    between atoms: S_11  and  C_12 
ROOT
HETATM    1  C   UNK N   1      35.575  14.906  11.058  0.00  0.00     0.079 A 
HETATM    2  S   UNK N   1      35.074  13.608   9.914  0.00  0.00    -0.048 SA
HETATM    3  C   UNK N   1      34.775  14.977   8.754  0.00  0.00     0.162 A 
HETATM    4  C   UNK N   1      35.579  16.198  10.401  0.00  0.00     0.264 A 
HETATM    5  N   UNK N   1      35.072  16.152   9.165  0.00  0.00    -0.302 N 
ATOM      6  HN  UNK N   1      34.934  16.986   8.596  1.00  0.00     0.171 HD
HETATM    7  O   UNK N   1      35.890  17.242  10.938  0.00  0.00    -0.267 OA
HETATM    8  C   UNK N   1      35.783  14.767  12.378  0.00  0.00     0.061 C 
ENDROOT
BRANCH   3   9
HETATM    9  N   UNK N   1      33.961  14.826   7.614  0.00  0.00    -0.260 N 
HETATM   10  H   UNK N   1      33.704  13.910   7.364  0.00  0.00     0.181 HD
BRANCH   9  11
HETATM   11  S   UNK N   1      33.368  16.124   6.604  0.00  0.00     0.264 S 
HETATM   12  O   UNK N   1      34.341  16.523   5.480  0.00  0.00    -0.200 OA
HETATM   13  O   UNK N   1      32.597  15.148   5.712  0.00  0.00    -0.200 OA
BRANCH  11  14
HETATM   14  C   UNK N   1      31.889  16.989   7.096  0.00  0.00     0.080 A 
HETATM   15  C   UNK N   1      31.913  17.727   8.283  0.00  0.00     0.026 A 
HETATM   16  C   UNK N   1      30.728  18.234   8.818  0.00  0.00     0.008 A 
HETATM   17  C   UNK N   1      29.512  17.987   8.178  0.00  0.00    -0.062 A 
HETATM   18  C   UNK N   1      29.484  17.256   6.985  0.00  0.00     0.008 A 
HETATM   19  C   UNK N   1      28.246  18.483   8.778  0.00  0.00     0.048 C 
HETATM   20  C   UNK N   1      30.670  16.748   6.448  0.00  0.00     0.026 A 
ENDBRANCH  11  14
ENDBRANCH   9  11
ENDBRANCH   3   9
BRANCH   8  21
HETATM   21  C   UNK N   1      35.638  13.497  13.104  0.00  0.00     0.077 A 
HETATM   22  C   UNK N   1      36.687  12.763  13.624  0.00  0.00     0.040 A 
HETATM   23  C   UNK N   1      36.101  11.684  14.266  0.00  0.00     0.035 A 
HETATM   24  C   UNK N   1      34.741  11.845  14.093  0.00  0.00     0.050 A 
HETATM   25  O   UNK N   1      34.499  12.928  13.404  0.00  0.00    -0.316 OA
HETATM   26  C   UNK N   1      33.686  10.937  14.612  0.00  0.00     0.076 C 
ENDBRANCH   8  21
TORSDOF 4
ENDMDL
MODEL 5
REMARK VINA RESULT:      -7.2      3.216      8.928
REMARK  4 active torsions:
REMARK  status: ('A' for Active; 'I' for Inactive)
REMARK    1  A    between atoms: C_3  and  C_25 
REMARK    2  A    between atoms: C_9  and  N_10 
REMARK    3  A    between atoms: N_10  and  S_11 
REMARK    4  A    between atoms: S_11  and  C_12 
ROOT
HETATM    1  C   UNK N   1      34.771  15.401  10.290  0.00  0.00     0.079 A 
HETATM    2  S   UNK N   1      33.622  14.478   9.254  0.00  0.00    -0.048 SA
HETATM    3  C   UNK N   1      33.293  16.088   8.474  0.00  0.00     0.162 A 
HETATM    4  C   UNK N   1      34.867  16.780   9.850  0.00  0.00     0.264 A 
HETATM    5  N   UNK N   1      33.982  17.080   8.894  0.00  0.00    -0.302 N 
ATOM      6  HN  UNK N   1      33.867  18.026   8.529  1.00  0.00     0.171 HD
HETATM    7  O   UNK N   1      35.580  17.618  10.363  0.00  0.00    -0.267 OA
HETATM    8  C   UNK N   1      35.366  14.959  11.409  0.00  0.00     0.061 C 
ENDROOT
BRANCH   3   9
HETATM    9  N   UNK N   1      32.135  16.323   7.706  0.00  0.00    -0.260 N 
HETATM   10  H   UNK N   1      32.191  16.139   6.741  0.00  0.00     0.181 HD
BRANCH   9  11
HETATM   11  S   UNK N   1      30.608  16.913   8.317  0.00  0.00     0.264 S 
HETATM   12  O   UNK N   1      30.325  16.499   9.772  0.00  0.00    -0.200 OA
HETATM   13  O   UNK N   1      31.229  18.252   8.725  0.00  0.00    -0.200 OA
BRANCH  11  14
HETATM   14  C   UNK N   1      29.467  17.683   7.183  0.00  0.00     0.080 A 
HETATM   15  C   UNK N   1      29.616  17.431   5.816  0.00  0.00     0.026 A 
HETATM   16  C   UNK N   1      28.895  18.177   4.882  0.00  0.00     0.008 A 
HETATM   17  C   UNK N   1      28.036  19.190   5.313  0.00  0.00    -0.062 A 
HETATM   18  C   UNK N   1      27.877  19.440   6.681  0.00  0.00     0.008 A 
HETATM   19  C   UNK N   1      27.310  20.017   4.315  0.00  0.00     0.048 C 
HETATM   20  C   UNK N   1      28.599  18.693   7.616  0.00  0.00     0.026 A 
ENDBRANCH  11  14
ENDBRANCH   9  11
ENDBRANCH   3   9
BRANCH   8  21
HETATM   21  C   UNK N   1      35.171  13.613  11.967  0.00  0.00     0.077 A 
HETATM   22  C   UNK N   1      35.623  12.445  11.383  0.00  0.00     0.040 A 
HETATM   23  C   UNK N   1      35.275  11.433  12.263  0.00  0.00     0.035 A 
HETATM   24  C   UNK N   1      34.641  12.060  13.316  0.00  0.00     0.050 A 
HETATM   25  O   UNK N   1      34.598  13.350  13.114  0.00  0.00    -0.316 OA
HETATM   26  C   UNK N   1      34.090  11.390  14.521  0.00  0.00     0.076 C 
ENDBRANCH   8  21
TORSDOF 4
ENDMDL
MODEL 6
REMARK VINA RESULT:      -7.2      2.498      8.728
REMARK  4 active torsions:
REMARK  status: ('A' for Active; 'I' for Inactive)
REMARK    1  A    between atoms: C_3  and  C_25 
REMARK    2  A    between atoms: C_9  and  N_10 
REMARK    3  A    between atoms: N_10  and  S_11 
REMARK    4  A    between atoms: S_11  and  C_12 
ROOT
HETATM    1  C   UNK N   1      35.407  15.103  10.734  0.00  0.00     0.079 A 
HETATM    2  S   UNK N   1      34.779  13.925   9.525  0.00  0.00    -0.048 SA
HETATM    3  C   UNK N   1      34.441  15.398   8.512  0.00  0.00     0.162 A 
HETATM    4  C   UNK N   1      35.406  16.448  10.190  0.00  0.00     0.264 A 
HETATM    5  N   UNK N   1      34.808  16.524   8.998  0.00  0.00    -0.302 N 
ATOM      6  HN  UNK N   1      34.656  17.409   8.514  1.00  0.00     0.171 HD
HETATM    7  O   UNK N   1      35.792  17.432  10.789  0.00  0.00    -0.267 OA
HETATM    8  C   UNK N   1      35.707  14.844  12.017  0.00  0.00     0.061 C 
ENDROOT
BRANCH   3   9
HETATM    9  N   UNK N   1      33.540  15.370   7.429  0.00  0.00    -0.260 N 
HETATM   10  H   UNK N   1      33.158  14.497   7.186  0.00  0.00     0.181 HD
BRANCH   9  11
HETATM   11  S   UNK N   1      33.043  16.751   6.480  0.00  0.00     0.264 S 
HETATM   12  O   UNK N   1      34.202  17.690   6.103  0.00  0.00    -0.200 OA
HETATM   13  O   UNK N   1      33.144  15.957   5.175  0.00  0.00    -0.200 OA
BRANCH  11  14
HETATM   14  C   UNK N   1      31.300  17.063   6.263  0.00  0.00     0.080 A 
HETATM   15  C   UNK N   1      30.825  17.315   4.973  0.00  0.00     0.026 A 
HETATM   16  C   UNK N   1      29.522  17.779   4.783  0.00  0.00     0.008 A 
HETATM   17  C   UNK N   1      28.697  18.009   5.886  0.00  0.00    -0.062 A 
HETATM   18  C   UNK N   1      29.166  17.749   7.178  0.00  0.00     0.008 A 
HETATM   19  C   UNK N   1      27.329  18.552   5.684  0.00  0.00     0.048 C 
HETATM   20  C   UNK N   1      30.470  17.284   7.369  0.00  0.00     0.026 A 
ENDBRANCH  11  14
ENDBRANCH   9  11
ENDBRANCH   3   9
BRANCH   8  21
HETATM   21  C   UNK N   1      35.574  13.520  12.641  0.00  0.00     0.077 A 
HETATM   22  C   UNK N   1      36.578  12.573  12.701  0.00  0.00     0.040 A 
HETATM   23  C   UNK N   1      36.045  11.513  13.416  0.00  0.00     0.035 A 
HETATM   24  C   UNK N   1      34.759  11.895  13.740  0.00  0.00     0.050 A 
HETATM   25  O   UNK N   1      34.511  13.089  13.270  0.00  0.00    -0.316 OA
HETATM   26  C   UNK N   1      33.783  11.090  14.517  0.00  0.00     0.076 C 
ENDBRANCH   8  21
TORSDOF 4
ENDMDL
MODEL 7
REMARK VINA RESULT:      -7.1     11.210     12.979
REMARK  4 active torsions:
REMARK  status: ('A' for Active; 'I' for Inactive)
REMARK    1  A    between atoms: C_3  and  C_25 
REMARK    2  A    between atoms: C_9  and  N_10 
REMARK    3  A    between atoms: N_10  and  S_11 
REMARK    4  A    between atoms: S_11  and  C_12 
ROOT
HETATM    1  C   UNK N   1      22.593  18.183   3.905  0.00  0.00     0.079 A 
HETATM    2  S   UNK N   1      23.506  16.710   4.399  0.00  0.00    -0.048 SA
HETATM    3  C   UNK N   1      21.860  15.988   4.680  0.00  0.00     0.162 A 
HETATM    4  C   UNK N   1      21.167  17.923   3.889  0.00  0.00     0.264 A 
HETATM    5  N   UNK N   1      20.854  16.721   4.383  0.00  0.00    -0.302 N 
ATOM      6  HN  UNK N   1      19.891  16.413   4.512  1.00  0.00     0.171 HD
HETATM    7  O   UNK N   1      20.323  18.739   3.580  0.00  0.00    -0.267 OA
HETATM    8  C   UNK N   1      23.105  19.410   3.712  0.00  0.00     0.061 C 
ENDROOT
BRANCH   3   9
HETATM    9  N   UNK N   1      21.673  14.845   5.482  0.00  0.00    -0.260 N 
HETATM   10  H   UNK N   1      22.119  14.016   5.194  0.00  0.00     0.181 HD
BRANCH   9  11
HETATM   11  S   UNK N   1      20.718  14.769   6.944  0.00  0.00     0.264 S 
HETATM   12  O   UNK N   1      19.370  15.504   6.837  0.00  0.00    -0.200 OA
HETATM   13  O   UNK N   1      20.115  13.420   6.543  0.00  0.00    -0.200 OA
BRANCH  11  14
HETATM   14  C   UNK N   1      21.460  14.104   8.422  0.00  0.00     0.080 A 
HETATM   15  C   UNK N   1      22.805  13.725   8.380  0.00  0.00     0.026 A 
HETATM   16  C   UNK N   1      23.364  13.001   9.434  0.00  0.00     0.008 A 
HETATM   17  C   UNK N   1      22.573  12.638  10.526  0.00  0.00    -0.062 A 
HETATM   18  C   UNK N   1      21.229  13.022  10.577  0.00  0.00     0.008 A 
HETATM   19  C   UNK N   1      23.157  11.822  11.622  0.00  0.00     0.048 C 
HETATM   20  C   UNK N   1      20.668  13.747   9.522  0.00  0.00     0.026 A 
ENDBRANCH  11  14
ENDBRANCH   9  11
ENDBRANCH   3   9
BRANCH   8  21
HETATM   21  C   UNK N   1      24.529  19.740   3.869  0.00  0.00     0.077 A 
HETATM   22  C   UNK N   1      25.377  20.080   2.833  0.00  0.00     0.040 A 
HETATM   23  C   UNK N   1      26.595  20.364   3.430  0.00  0.00     0.035 A 
HETATM   24  C   UNK N   1      26.395  20.179   4.783  0.00  0.00     0.050 A 
HETATM   25  O   UNK N   1      25.162  19.814   5.012  0.00  0.00    -0.316 OA
HETATM   26  C   UNK N   1      27.415  20.372   5.845  0.00  0.00     0.076 C 
ENDBRANCH   8  21
TORSDOF 4
ENDMDL
MODEL 8
REMARK VINA RESULT:      -7.1     11.509     14.729
REMARK  4 active torsions:
REMARK  status: ('A' for Active; 'I' for Inactive)
REMARK    1  A    between atoms: C_3  and  C_25 
REMARK    2  A    between atoms: C_9  and  N_10 
REMARK    3  A    between atoms: N_10  and  S_11 
REMARK    4  A    between atoms: S_11  and  C_12 
ROOT
HETATM    1  C   UNK N   1      20.622  15.413   8.236  0.00  0.00     0.079 A 
HETATM    2  S   UNK N   1      22.088  15.369   7.189  0.00  0.00    -0.048 SA
HETATM    3  C   UNK N   1      21.075  16.325   6.018  0.00  0.00     0.162 A 
HETATM    4  C   UNK N   1      19.591  16.242   7.642  0.00  0.00     0.264 A 
HETATM    5  N   UNK N   1      19.900  16.649   6.408  0.00  0.00    -0.302 N 
ATOM      6  HN  UNK N   1      19.252  17.176   5.823  1.00  0.00     0.171 HD
HETATM    7  O   UNK N   1      18.506  16.455   8.145  0.00  0.00    -0.267 OA
HETATM    8  C   UNK N   1      20.412  14.682   9.343  0.00  0.00     0.061 C 
ENDROOT
BRANCH   3   9
HETATM    9  N   UNK N   1      21.405  16.422   4.652  0.00  0.00    -0.260 N 
HETATM   10  H   UNK N   1      21.371  15.593   4.122  0.00  0.00     0.181 HD
BRANCH   9  11
HETATM   11  S   UNK N   1      21.868  17.884   3.814  0.00  0.00     0.264 S 
HETATM   12  O   UNK N   1      20.875  18.307   2.718  0.00  0.00    -0.200 OA
HETATM   13  O   UNK N   1      21.207  18.765   4.878  0.00  0.00    -0.200 OA
BRANCH  11  14
HETATM   14  C   UNK N   1      23.485  18.572   4.116  0.00  0.00     0.080 A 
HETATM   15  C   UNK N   1      23.841  19.750   3.453  0.00  0.00     0.026 A 
HETATM   16  C   UNK N   1      25.162  20.201   3.485  0.00  0.00     0.008 A 
HETATM   17  C   UNK N   1      26.133  19.465   4.166  0.00  0.00    -0.062 A 
HETATM   18  C   UNK N   1      25.779  18.291   4.839  0.00  0.00     0.008 A 
HETATM   19  C   UNK N   1      27.548  19.920   4.154  0.00  0.00     0.048 C 
HETATM   20  C   UNK N   1      24.457  17.838   4.807  0.00  0.00     0.026 A 
ENDBRANCH  11  14
ENDBRANCH   9  11
ENDBRANCH   3   9
BRANCH   8  21
HETATM   21  C   UNK N   1      21.379  13.718   9.887  0.00  0.00     0.077 A 
HETATM   22  C   UNK N   1      21.042  12.575  10.587  0.00  0.00     0.040 A 
HETATM   23  C   UNK N   1      22.243  11.940  10.858  0.00  0.00     0.035 A 
HETATM   24  C   UNK N   1      23.219  12.741  10.300  0.00  0.00     0.050 A 
HETATM   25  O   UNK N   1      22.676  13.784   9.731  0.00  0.00    -0.316 OA
HETATM   26  C   UNK N   1      24.680  12.473  10.323  0.00  0.00     0.076 C 
ENDBRANCH   8  21
TORSDOF 4
ENDMDL
MODEL 9
REMARK VINA RESULT:      -7.0      2.771      3.663
REMARK  4 active torsions:
REMARK  status: ('A' for Active; 'I' for Inactive)
REMARK    1  A    between atoms: C_3  and  C_25 
REMARK    2  A    between atoms: C_9  and  N_10 
REMARK    3  A    between atoms: N_10  and  S_11 
REMARK    4  A    between atoms: S_11  and  C_12 
ROOT
HETATM    1  C   UNK N   1      33.634  17.315   7.307  0.00  0.00     0.079 A 
HETATM    2  S   UNK N   1      32.690  15.870   7.823  0.00  0.00    -0.048 SA
HETATM    3  C   UNK N   1      33.393  16.205   9.467  0.00  0.00     0.162 A 
HETATM    4  C   UNK N   1      34.265  17.951   8.447  0.00  0.00     0.264 A 
HETATM    5  N   UNK N   1      34.130  17.245   9.574  0.00  0.00    -0.302 N 
ATOM      6  HN  UNK N   1      34.579  17.515  10.449  1.00  0.00     0.171 HD
HETATM    7  O   UNK N   1      34.950  18.952   8.384  0.00  0.00    -0.267 OA
HETATM    8  C   UNK N   1      33.871  17.702   6.043  0.00  0.00     0.061 C 
ENDROOT
BRANCH   3   9
HETATM    9  N   UNK N   1      33.422  15.226  10.480  0.00  0.00    -0.260 N 
HETATM   10  H   UNK N   1      32.599  15.097  11.004  0.00  0.00     0.181 HD
BRANCH   9  11
HETATM   11  S   UNK N   1      34.793  14.222  10.889  0.00  0.00     0.264 S 
HETATM   12  O   UNK N   1      34.719  13.626  12.306  0.00  0.00    -0.200 OA
HETATM   13  O   UNK N   1      34.151  12.992  10.242  0.00  0.00    -0.200 OA
BRANCH  11  14
HETATM   14  C   UNK N   1      36.193  14.187   9.786  0.00  0.00     0.080 A 
HETATM   15  C   UNK N   1      35.982  13.818   8.455  0.00  0.00     0.026 A 
HETATM   16  C   UNK N   1      37.069  13.563   7.616  0.00  0.00     0.008 A 
HETATM   17  C   UNK N   1      38.370  13.659   8.114  0.00  0.00    -0.062 A 
HETATM   18  C   UNK N   1      38.586  14.037   9.443  0.00  0.00     0.008 A 
HETATM   19  C   UNK N   1      39.523  13.337   7.234  0.00  0.00     0.048 C 
HETATM   20  C   UNK N   1      37.498  14.292  10.283  0.00  0.00     0.026 A 
ENDBRANCH  11  14
ENDBRANCH   9  11
ENDBRANCH   3   9
BRANCH   8  21
HETATM   21  C   UNK N   1      33.371  16.990   4.858  0.00  0.00     0.077 A 
HETATM   22  C   UNK N   1      32.396  17.469   4.005  0.00  0.00     0.040 A 
HETATM   23  C   UNK N   1      32.276  16.514   3.007  0.00  0.00     0.035 A 
HETATM   24  C   UNK N   1      33.190  15.530   3.325  0.00  0.00     0.050 A 
HETATM   25  O   UNK N   1      33.825  15.842   4.424  0.00  0.00    -0.316 OA
HETATM   26  C   UNK N   1      33.441  14.293   2.543  0.00  0.00     0.076 C 
ENDBRANCH   8  21
TORSDOF 4
ENDMDL
