MODEL 1
REMARK VINA RESULT:      -6.2      0.000      0.000
REMARK  14 active torsions:
REMARK  status: ('A' for Active; 'I' for Inactive)
REMARK    1  A    between atoms: O_5  and  C_13 
REMARK    2  A    between atoms: O_5  and  C_20 
REMARK    3  A    between atoms: O_6  and  N_7 
REMARK       I    between atoms: N_7  and  C_10 
REMARK       I    between atoms: N_8  and  C_12 
REMARK    4  A    between atoms: N_8  and  C_16 
REMARK       I    between atoms: N_9  and  C_11 
REMARK    5  A    between atoms: C_15  and  N_9 
REMARK    6  A    between atoms: C_10  and  C_19 
REMARK    7  A    between atoms: C_11  and  C_14 
REMARK    8  A    between atoms: C_12  and  C_15 
REMARK    9  A    between atoms: C_13  and  C_16 
REMARK   10  A    between atoms: C_14  and  C_19 
REMARK   11  A    between atoms: C_14  and  C_21 
REMARK   12  A    between atoms: C_15  and  C_22 
REMARK   13  A    between atoms: C_17  and  C_21 
REMARK   14  A    between atoms: C_18  and  C_22 
ROOT
HETATM    1  O   UNK N   1      27.148  23.855  -2.568  0.00  0.00    -0.273 OA
HETATM    2  N   UNK N   1      26.613  25.384  -4.099  0.00  0.00    -0.347 N 
HETATM    3  C   UNK N   1      27.486  24.474  -3.566  0.00  0.00     0.223 C 
HETATM    4  H   UNK N   1      25.754  25.508  -3.634  0.00  0.00     0.163 HD
ENDROOT
BRANCH   2   5
HETATM    5  C   UNK N   1      26.847  26.183  -5.293  0.00  0.00     0.177 C 
BRANCH   5   6
HETATM    6  C   UNK N   1      25.564  26.494  -6.066  0.00  0.00     0.241 C 
HETATM    7  O   UNK N   1      24.701  27.133  -5.485  0.00  0.00    -0.271 OA
HETATM    8  N   UNK N   1      25.310  26.109  -7.354  0.00  0.00    -0.346 N 
HETATM    9  H   UNK N   1      24.469  26.448  -7.735  0.00  0.00     0.163 HD
BRANCH   8  10
HETATM   10  C   UNK N   1      26.099  25.273  -8.240  0.00  0.00     0.180 C 
HETATM   11  C   UNK N   1      26.762  26.169  -9.274  0.00  0.00     0.043 C 
BRANCH  10  12
HETATM   12  C   UNK N   1      25.259  24.242  -8.975  0.00  0.00     0.281 C 
HETATM   13  O   UNK N   1      25.041  24.405 -10.166  0.00  0.00    -0.263 OA
BRANCH  12  14
HETATM   14  O   UNK N   1      24.715  23.155  -8.363  0.00  0.00    -0.320 OA
BRANCH  14  15
HETATM   15  C   UNK N   1      25.350  22.397  -7.407  0.00  0.00     0.174 C 
HETATM   16  C   UNK N   1      24.483  21.202  -7.063  0.00  0.00     0.034 C 
ENDBRANCH  14  15
ENDBRANCH  12  14
ENDBRANCH  10  12
ENDBRANCH   8  10
ENDBRANCH   5   6
BRANCH   5  17
HETATM   17  C   UNK N   1      27.647  27.433  -4.968  0.00  0.00     0.038 C 
BRANCH  17  18
HETATM   18  C   UNK N   1      27.739  28.384  -6.154  0.00  0.00    -0.020 C 
HETATM   19  C   UNK N   1      28.930  28.027  -7.023  0.00  0.00     0.009 C 
HETATM   20  C   UNK N   1      27.900  29.800  -5.649  0.00  0.00     0.009 C 
ENDBRANCH  17  18
ENDBRANCH   5  17
ENDBRANCH   2   5
BRANCH   3  21
HETATM   21  C   UNK N   1      28.848  24.174  -4.189  0.00  0.00     0.087 C 
BRANCH  21  22
HETATM   22  C   UNK N   1      30.068  24.427  -3.280  0.00  0.00     0.119 C 
BRANCH  22  23
HETATM   23  C   UNK N   1      30.619  23.299  -2.460  0.00  0.00     0.241 C 
HETATM   24  O   UNK N   1      30.111  23.009  -1.385  0.00  0.00    -0.271 OA
HETATM   25  N   UNK N   1      31.618  22.540  -2.964  0.00  0.00    -0.237 N 
HETATM   26  H   UNK N   1      32.016  22.779  -3.833  0.00  0.00     0.197 HD
BRANCH  25  27
HETATM   27  O   UNK N   1      32.077  21.469  -2.306  0.00  0.00    -0.287 OA
HETATM   28  H   UNK N   1      31.709  20.592  -2.113  0.00  0.00     0.244 HD
ENDBRANCH  25  27
ENDBRANCH  22  23
ENDBRANCH  21  22
BRANCH  21  29
HETATM   29  C   UNK N   1      28.896  22.838  -4.945  0.00  0.00     0.018 C 
BRANCH  29  30
HETATM   30  C   UNK N   1      28.666  22.852  -6.452  0.00  0.00    -0.022 C 
HETATM   31  C   UNK N   1      29.419  24.003  -7.096  0.00  0.00     0.009 C 
HETATM   32  C   UNK N   1      29.242  21.571  -7.012  0.00  0.00     0.009 C 
ENDBRANCH  29  30
ENDBRANCH  21  29
ENDBRANCH   3  21
TORSDOF 14
ENDMDL
MODEL 2
REMARK VINA RESULT:      -6.1     15.663     18.775
REMARK  14 active torsions:
REMARK  status: ('A' for Active; 'I' for Inactive)
REMARK    1  A    between atoms: O_5  and  C_13 
REMARK    2  A    between atoms: O_5  and  C_20 
REMARK    3  A    between atoms: O_6  and  N_7 
REMARK       I    between atoms: N_7  and  C_10 
REMARK       I    between atoms: N_8  and  C_12 
REMARK    4  A    between atoms: N_8  and  C_16 
REMARK       I    between atoms: N_9  and  C_11 
REMARK    5  A    between atoms: C_15  and  N_9 
REMARK    6  A    between atoms: C_10  and  C_19 
REMARK    7  A    between atoms: C_11  and  C_14 
REMARK    8  A    between atoms: C_12  and  C_15 
REMARK    9  A    between atoms: C_13  and  C_16 
REMARK   10  A    between atoms: C_14  and  C_19 
REMARK   11  A    between atoms: C_14  and  C_21 
REMARK   12  A    between atoms: C_15  and  C_22 
REMARK   13  A    between atoms: C_17  and  C_21 
REMARK   14  A    between atoms: C_18  and  C_22 
ROOT
HETATM    1  O   UNK N   1      30.152  15.260   6.111  0.00  0.00    -0.273 OA
HETATM    2  N   UNK N   1      32.020  14.097   6.461  0.00  0.00    -0.347 N 
HETATM    3  C   UNK N   1      31.243  15.207   6.657  0.00  0.00     0.223 C 
HETATM    4  H   UNK N   1      31.663  13.397   5.867  0.00  0.00     0.163 HD
ENDROOT
BRANCH   2   5
HETATM    5  C   UNK N   1      33.328  13.863   7.055  0.00  0.00     0.177 C 
BRANCH   5   6
HETATM    6  C   UNK N   1      33.269  13.652   8.568  0.00  0.00     0.241 C 
HETATM    7  O   UNK N   1      32.366  12.956   9.003  0.00  0.00    -0.271 OA
HETATM    8  N   UNK N   1      34.148  14.186   9.471  0.00  0.00    -0.346 N 
HETATM    9  H   UNK N   1      34.019  13.899  10.403  0.00  0.00     0.163 HD
BRANCH   8  10
HETATM   10  C   UNK N   1      35.243  15.115   9.255  0.00  0.00     0.180 C 
HETATM   11  C   UNK N   1      36.493  14.310   8.939  0.00  0.00     0.043 C 
BRANCH  10  12
HETATM   12  C   UNK N   1      35.529  15.977  10.473  0.00  0.00     0.281 C 
HETATM   13  O   UNK N   1      35.042  17.096  10.524  0.00  0.00    -0.263 OA
BRANCH  12  14
HETATM   14  O   UNK N   1      36.321  15.570  11.502  0.00  0.00    -0.320 OA
BRANCH  14  15
HETATM   15  C   UNK N   1      35.885  14.840  12.583  0.00  0.00     0.174 C 
HETATM   16  C   UNK N   1      36.572  13.488  12.578  0.00  0.00     0.034 C 
ENDBRANCH  14  15
ENDBRANCH  12  14
ENDBRANCH  10  12
ENDBRANCH   8  10
ENDBRANCH   5   6
BRANCH   5  17
HETATM   17  C   UNK N   1      34.062  12.741   6.340  0.00  0.00     0.038 C 
BRANCH  17  18
HETATM   18  C   UNK N   1      34.760  13.222   5.075  0.00  0.00    -0.020 C 
HETATM   19  C   UNK N   1      35.729  12.166   4.576  0.00  0.00     0.009 C 
HETATM   20  C   UNK N   1      35.522  14.492   5.377  0.00  0.00     0.009 C 
ENDBRANCH  17  18
ENDBRANCH   5  17
ENDBRANCH   2   5
BRANCH   3  21
HETATM   21  C   UNK N   1      31.669  16.363   7.559  0.00  0.00     0.087 C 
BRANCH  21  22
HETATM   22  C   UNK N   1      32.334  17.557   6.846  0.00  0.00     0.119 C 
BRANCH  22  23
HETATM   23  C   UNK N   1      33.753  17.913   7.178  0.00  0.00     0.241 C 
HETATM   24  O   UNK N   1      34.666  17.566   6.442  0.00  0.00    -0.271 OA
HETATM   25  N   UNK N   1      34.005  18.706   8.244  0.00  0.00    -0.237 N 
HETATM   26  H   UNK N   1      33.262  18.983   8.827  0.00  0.00     0.197 HD
BRANCH  25  27
HETATM   27  O   UNK N   1      35.247  19.122   8.522  0.00  0.00    -0.287 OA
HETATM   28  H   UNK N   1      35.787  19.131   9.328  0.00  0.00     0.244 HD
ENDBRANCH  25  27
ENDBRANCH  22  23
ENDBRANCH  21  22
BRANCH  21  29
HETATM   29  C   UNK N   1      30.600  16.764   8.588  0.00  0.00     0.018 C 
BRANCH  29  30
HETATM   30  C   UNK N   1      29.902  18.108   8.417  0.00  0.00    -0.022 C 
HETATM   31  C   UNK N   1      28.491  17.912   7.890  0.00  0.00     0.009 C 
HETATM   32  C   UNK N   1      29.783  18.736   9.788  0.00  0.00     0.009 C 
ENDBRANCH  29  30
ENDBRANCH  21  29
ENDBRANCH   3  21
TORSDOF 14
ENDMDL
MODEL 3
REMARK VINA RESULT:      -6.1      2.147      4.048
REMARK  14 active torsions:
REMARK  status: ('A' for Active; 'I' for Inactive)
REMARK    1  A    between atoms: O_5  and  C_13 
REMARK    2  A    between atoms: O_5  and  C_20 
REMARK    3  A    between atoms: O_6  and  N_7 
REMARK       I    between atoms: N_7  and  C_10 
REMARK       I    between atoms: N_8  and  C_12 
REMARK    4  A    between atoms: N_8  and  C_16 
REMARK       I    between atoms: N_9  and  C_11 
REMARK    5  A    between atoms: C_15  and  N_9 
REMARK    6  A    between atoms: C_10  and  C_19 
REMARK    7  A    between atoms: C_11  and  C_14 
REMARK    8  A    between atoms: C_12  and  C_15 
REMARK    9  A    between atoms: C_13  and  C_16 
REMARK   10  A    between atoms: C_14  and  C_19 
REMARK   11  A    between atoms: C_14  and  C_21 
REMARK   12  A    between atoms: C_15  and  C_22 
REMARK   13  A    between atoms: C_17  and  C_21 
REMARK   14  A    between atoms: C_18  and  C_22 
ROOT
HETATM    1  O   UNK N   1      26.905  24.172  -2.335  0.00  0.00    -0.273 OA
HETATM    2  N   UNK N   1      26.399  24.202  -4.505  0.00  0.00    -0.347 N 
HETATM    3  C   UNK N   1      27.314  24.180  -3.487  0.00  0.00     0.223 C 
HETATM    4  H   UNK N   1      25.448  24.230  -4.255  0.00  0.00     0.163 HD
ENDROOT
BRANCH   2   5
HETATM    5  C   UNK N   1      26.715  24.188  -5.926  0.00  0.00     0.177 C 
BRANCH   5   6
HETATM    6  C   UNK N   1      26.433  22.839  -6.589  0.00  0.00     0.241 C 
HETATM    7  O   UNK N   1      25.278  22.444  -6.587  0.00  0.00    -0.271 OA
HETATM    8  N   UNK N   1      27.375  22.042  -7.179  0.00  0.00    -0.346 N 
HETATM    9  H   UNK N   1      27.024  21.238  -7.625  0.00  0.00     0.163 HD
BRANCH   8  10
HETATM   10  C   UNK N   1      28.816  22.208  -7.244  0.00  0.00     0.180 C 
HETATM   11  C   UNK N   1      29.180  22.653  -8.651  0.00  0.00     0.043 C 
BRANCH  10  12
HETATM   12  C   UNK N   1      29.567  20.922  -6.943  0.00  0.00     0.281 C 
HETATM   13  O   UNK N   1      29.149  19.876  -7.415  0.00  0.00    -0.263 OA
BRANCH  12  14
HETATM   14  O   UNK N   1      30.674  20.876  -6.152  0.00  0.00    -0.320 OA
BRANCH  14  15
HETATM   15  C   UNK N   1      31.953  21.142  -6.581  0.00  0.00     0.174 C 
HETATM   16  C   UNK N   1      32.281  22.594  -6.292  0.00  0.00     0.034 C 
ENDBRANCH  14  15
ENDBRANCH  12  14
ENDBRANCH  10  12
ENDBRANCH   8  10
ENDBRANCH   5   6
BRANCH   5  17
HETATM   17  C   UNK N   1      26.040  25.343  -6.649  0.00  0.00     0.038 C 
BRANCH  17  18
HETATM   18  C   UNK N   1      26.104  26.638  -5.852  0.00  0.00    -0.020 C 
HETATM   19  C   UNK N   1      24.708  27.190  -5.631  0.00  0.00     0.009 C 
HETATM   20  C   UNK N   1      26.925  27.654  -6.614  0.00  0.00     0.009 C 
ENDBRANCH  17  18
ENDBRANCH   5  17
ENDBRANCH   2   5
BRANCH   3  21
HETATM   21  C   UNK N   1      28.820  24.126  -3.731  0.00  0.00     0.087 C 
BRANCH  21  22
HETATM   22  C   UNK N   1      29.459  22.724  -3.666  0.00  0.00     0.119 C 
BRANCH  22  23
HETATM   23  C   UNK N   1      30.565  22.465  -2.688  0.00  0.00     0.241 C 
HETATM   24  O   UNK N   1      30.590  23.047  -1.612  0.00  0.00    -0.271 OA
HETATM   25  N   UNK N   1      31.482  21.509  -2.962  0.00  0.00    -0.237 N 
HETATM   26  H   UNK N   1      31.449  21.043  -3.829  0.00  0.00     0.197 HD
BRANCH  25  27
HETATM   27  O   UNK N   1      32.431  21.182  -2.078  0.00  0.00    -0.287 OA
HETATM   28  H   UNK N   1      32.770  21.603  -1.272  0.00  0.00     0.244 HD
ENDBRANCH  25  27
ENDBRANCH  22  23
ENDBRANCH  21  22
BRANCH  21  29
HETATM   29  C   UNK N   1      29.278  24.968  -4.932  0.00  0.00     0.018 C 
BRANCH  29  30
HETATM   30  C   UNK N   1      30.029  26.265  -4.661  0.00  0.00    -0.022 C 
HETATM   31  C   UNK N   1      29.181  27.208  -3.823  0.00  0.00     0.009 C 
HETATM   32  C   UNK N   1      31.254  25.920  -3.843  0.00  0.00     0.009 C 
ENDBRANCH  29  30
ENDBRANCH  21  29
ENDBRANCH   3  21
TORSDOF 14
ENDMDL
MODEL 4
REMARK VINA RESULT:      -6.0     12.044     15.279
REMARK  14 active torsions:
REMARK  status: ('A' for Active; 'I' for Inactive)
REMARK    1  A    between atoms: O_5  and  C_13 
REMARK    2  A    between atoms: O_5  and  C_20 
REMARK    3  A    between atoms: O_6  and  N_7 
REMARK       I    between atoms: N_7  and  C_10 
REMARK       I    between atoms: N_8  and  C_12 
REMARK    4  A    between atoms: N_8  and  C_16 
REMARK       I    between atoms: N_9  and  C_11 
REMARK    5  A    between atoms: C_15  and  N_9 
REMARK    6  A    between atoms: C_10  and  C_19 
REMARK    7  A    between atoms: C_11  and  C_14 
REMARK    8  A    between atoms: C_12  and  C_15 
REMARK    9  A    between atoms: C_13  and  C_16 
REMARK   10  A    between atoms: C_14  and  C_19 
REMARK   11  A    between atoms: C_14  and  C_21 
REMARK   12  A    between atoms: C_15  and  C_22 
REMARK   13  A    between atoms: C_17  and  C_21 
REMARK   14  A    between atoms: C_18  and  C_22 
ROOT
HETATM    1  O   UNK N   1      34.294  18.180   6.769  0.00  0.00    -0.273 OA
HETATM    2  N   UNK N   1      33.294  17.084   5.106  0.00  0.00    -0.347 N 
HETATM    3  C   UNK N   1      33.419  17.396   6.433  0.00  0.00     0.223 C 
HETATM    4  H   UNK N   1      33.935  17.498   4.484  0.00  0.00     0.163 HD
ENDROOT
BRANCH   2   5
HETATM    5  C   UNK N   1      32.294  16.192   4.536  0.00  0.00     0.177 C 
BRANCH   5   6
HETATM    6  C   UNK N   1      31.622  16.765   3.288  0.00  0.00     0.241 C 
HETATM    7  O   UNK N   1      32.348  17.136   2.380  0.00  0.00    -0.271 OA
HETATM    8  N   UNK N   1      30.271  16.898   3.114  0.00  0.00    -0.346 N 
HETATM    9  H   UNK N   1      29.992  17.218   2.226  0.00  0.00     0.163 HD
BRANCH   8  10
HETATM   10  C   UNK N   1      29.190  16.636   4.046  0.00  0.00     0.180 C 
HETATM   11  C   UNK N   1      28.423  15.420   3.555  0.00  0.00     0.043 C 
BRANCH  10  12
HETATM   12  C   UNK N   1      28.217  17.798   4.157  0.00  0.00     0.281 C 
HETATM   13  O   UNK N   1      27.100  17.674   3.678  0.00  0.00    -0.263 OA
BRANCH  12  14
HETATM   14  O   UNK N   1      28.539  18.983   4.744  0.00  0.00    -0.320 OA
BRANCH  14  15
HETATM   15  C   UNK N   1      27.744  20.105   4.727  0.00  0.00     0.174 C 
HETATM   16  C   UNK N   1      27.582  20.620   6.143  0.00  0.00     0.034 C 
ENDBRANCH  14  15
ENDBRANCH  12  14
ENDBRANCH  10  12
ENDBRANCH   8  10
ENDBRANCH   5   6
BRANCH   5  17
HETATM   17  C   UNK N   1      32.867  14.804   4.302  0.00  0.00     0.038 C 
BRANCH  17  18
HETATM   18  C   UNK N   1      31.827  13.835   3.756  0.00  0.00    -0.020 C 
HETATM   19  C   UNK N   1      31.518  12.763   4.784  0.00  0.00     0.009 C 
HETATM   20  C   UNK N   1      32.362  13.181   2.502  0.00  0.00     0.009 C 
ENDBRANCH  17  18
ENDBRANCH   5  17
ENDBRANCH   2   5
BRANCH   3  21
HETATM   21  C   UNK N   1      32.487  16.833   7.504  0.00  0.00     0.087 C 
BRANCH  21  22
HETATM   22  C   UNK N   1      33.089  15.734   8.403  0.00  0.00     0.119 C 
BRANCH  22  23
HETATM   23  C   UNK N   1      34.382  15.995   9.116  0.00  0.00     0.241 C 
HETATM   24  O   UNK N   1      35.333  15.239   8.970  0.00  0.00    -0.271 OA
HETATM   25  N   UNK N   1      34.522  17.127   9.843  0.00  0.00    -0.237 N 
HETATM   26  H   UNK N   1      33.751  17.730   9.949  0.00  0.00     0.197 HD
BRANCH  25  27
HETATM   27  O   UNK N   1      35.687  17.443  10.419  0.00  0.00    -0.287 OA
HETATM   28  H   UNK N   1      36.255  17.001  11.070  0.00  0.00     0.244 HD
ENDBRANCH  25  27
ENDBRANCH  22  23
ENDBRANCH  21  22
BRANCH  21  29
HETATM   29  C   UNK N   1      31.711  17.915   8.271  0.00  0.00     0.018 C 
BRANCH  29  30
HETATM   30  C   UNK N   1      30.354  17.549   8.861  0.00  0.00    -0.022 C 
HETATM   31  C   UNK N   1      29.770  18.724   9.625  0.00  0.00     0.009 C 
HETATM   32  C   UNK N   1      29.420  17.258   7.707  0.00  0.00     0.009 C 
ENDBRANCH  29  30
ENDBRANCH  21  29
ENDBRANCH   3  21
TORSDOF 14
ENDMDL
MODEL 5
REMARK VINA RESULT:      -5.7      2.177      3.914
REMARK  14 active torsions:
REMARK  status: ('A' for Active; 'I' for Inactive)
REMARK    1  A    between atoms: O_5  and  C_13 
REMARK    2  A    between atoms: O_5  and  C_20 
REMARK    3  A    between atoms: O_6  and  N_7 
REMARK       I    between atoms: N_7  and  C_10 
REMARK       I    between atoms: N_8  and  C_12 
REMARK    4  A    between atoms: N_8  and  C_16 
REMARK       I    between atoms: N_9  and  C_11 
REMARK    5  A    between atoms: C_15  and  N_9 
REMARK    6  A    between atoms: C_10  and  C_19 
REMARK    7  A    between atoms: C_11  and  C_14 
REMARK    8  A    between atoms: C_12  and  C_15 
REMARK    9  A    between atoms: C_13  and  C_16 
REMARK   10  A    between atoms: C_14  and  C_19 
REMARK   11  A    between atoms: C_14  and  C_21 
REMARK   12  A    between atoms: C_15  and  C_22 
REMARK   13  A    between atoms: C_17  and  C_21 
REMARK   14  A    between atoms: C_18  and  C_22 
ROOT
HETATM    1  O   UNK N   1      31.447  22.134  -2.262  0.00  0.00    -0.273 OA
HETATM    2  N   UNK N   1      29.798  23.468  -2.946  0.00  0.00    -0.347 N 
HETATM    3  C   UNK N   1      30.815  22.588  -3.204  0.00  0.00     0.223 C 
HETATM    4  H   UNK N   1      29.638  23.707  -2.005  0.00  0.00     0.163 HD
ENDROOT
BRANCH   2   5
HETATM    5  C   UNK N   1      28.934  24.079  -3.946  0.00  0.00     0.177 C 
BRANCH   5   6
HETATM    6  C   UNK N   1      27.491  24.248  -3.467  0.00  0.00     0.241 C 
HETATM    7  O   UNK N   1      27.214  23.817  -2.359  0.00  0.00    -0.271 OA
HETATM    8  N   UNK N   1      26.489  24.840  -4.187  0.00  0.00    -0.346 N 
HETATM    9  H   UNK N   1      25.632  24.936  -3.712  0.00  0.00     0.163 HD
BRANCH   8  10
HETATM   10  C   UNK N   1      26.504  25.346  -5.547  0.00  0.00     0.180 C 
HETATM   11  C   UNK N   1      25.597  26.563  -5.611  0.00  0.00     0.043 C 
BRANCH  10  12
HETATM   12  C   UNK N   1      26.003  24.327  -6.557  0.00  0.00     0.281 C 
HETATM   13  O   UNK N   1      25.223  23.465  -6.181  0.00  0.00    -0.263 OA
BRANCH  12  14
HETATM   14  O   UNK N   1      26.401  24.313  -7.859  0.00  0.00    -0.320 OA
BRANCH  14  15
HETATM   15  C   UNK N   1      25.570  24.533  -8.932  0.00  0.00     0.174 C 
HETATM   16  C   UNK N   1      25.651  25.994  -9.332  0.00  0.00     0.034 C 
ENDBRANCH  14  15
ENDBRANCH  12  14
ENDBRANCH  10  12
ENDBRANCH   8  10
ENDBRANCH   5   6
BRANCH   5  17
HETATM   17  C   UNK N   1      29.529  25.378  -4.465  0.00  0.00     0.038 C 
BRANCH  17  18
HETATM   18  C   UNK N   1      30.780  25.785  -3.699  0.00  0.00    -0.020 C 
HETATM   19  C   UNK N   1      30.646  27.209  -3.193  0.00  0.00     0.009 C 
HETATM   20  C   UNK N   1      31.979  25.695  -4.615  0.00  0.00     0.009 C 
ENDBRANCH  17  18
ENDBRANCH   5  17
ENDBRANCH   2   5
BRANCH   3  21
HETATM   21  C   UNK N   1      31.166  22.123  -4.615  0.00  0.00     0.087 C 
BRANCH  21  22
HETATM   22  C   UNK N   1      32.641  21.735  -4.844  0.00  0.00     0.119 C 
BRANCH  22  23
HETATM   23  C   UNK N   1      33.027  20.287  -4.851  0.00  0.00     0.241 C 
HETATM   24  O   UNK N   1      33.352  19.737  -5.895  0.00  0.00    -0.271 OA
HETATM   25  N   UNK N   1      33.111  19.617  -3.679  0.00  0.00    -0.237 N 
HETATM   26  H   UNK N   1      32.852  20.071  -2.844  0.00  0.00     0.197 HD
BRANCH  25  27
HETATM   27  O   UNK N   1      33.539  18.350  -3.631  0.00  0.00    -0.287 OA
HETATM   28  H   UNK N   1      33.756  17.742  -2.907  0.00  0.00     0.244 HD
ENDBRANCH  25  27
ENDBRANCH  22  23
ENDBRANCH  21  22
BRANCH  21  29
HETATM   29  C   UNK N   1      30.158  21.123  -5.201  0.00  0.00     0.018 C 
BRANCH  29  30
HETATM   30  C   UNK N   1      29.956  21.101  -6.711  0.00  0.00    -0.022 C 
HETATM   31  C   UNK N   1      29.903  19.672  -7.222  0.00  0.00     0.009 C 
HETATM   32  C   UNK N   1      28.610  21.729  -7.000  0.00  0.00     0.009 C 
ENDBRANCH  29  30
ENDBRANCH  21  29
ENDBRANCH   3  21
TORSDOF 14
ENDMDL
MODEL 6
REMARK VINA RESULT:      -5.7     13.910     16.168
REMARK  14 active torsions:
REMARK  status: ('A' for Active; 'I' for Inactive)
REMARK    1  A    between atoms: O_5  and  C_13 
REMARK    2  A    between atoms: O_5  and  C_20 
REMARK    3  A    between atoms: O_6  and  N_7 
REMARK       I    between atoms: N_7  and  C_10 
REMARK       I    between atoms: N_8  and  C_12 
REMARK    4  A    between atoms: N_8  and  C_16 
REMARK       I    between atoms: N_9  and  C_11 
REMARK    5  A    between atoms: C_15  and  N_9 
REMARK    6  A    between atoms: C_10  and  C_19 
REMARK    7  A    between atoms: C_11  and  C_14 
REMARK    8  A    between atoms: C_12  and  C_15 
REMARK    9  A    between atoms: C_13  and  C_16 
REMARK   10  A    between atoms: C_14  and  C_19 
REMARK   11  A    between atoms: C_14  and  C_21 
REMARK   12  A    between atoms: C_15  and  C_22 
REMARK   13  A    between atoms: C_17  and  C_21 
REMARK   14  A    between atoms: C_18  and  C_22 
ROOT
HETATM    1  O   UNK N   1      18.147  15.892   5.936  0.00  0.00    -0.273 OA
HETATM    2  N   UNK N   1      19.259  16.568   4.127  0.00  0.00    -0.347 N 
HETATM    3  C   UNK N   1      19.229  16.024   5.382  0.00  0.00     0.223 C 
HETATM    4  H   UNK N   1      18.399  16.846   3.736  0.00  0.00     0.163 HD
ENDROOT
BRANCH   2   5
HETATM    5  C   UNK N   1      20.454  16.771   3.321  0.00  0.00     0.177 C 
BRANCH   5   6
HETATM    6  C   UNK N   1      20.860  15.528   2.528  0.00  0.00     0.241 C 
HETATM    7  O   UNK N   1      20.081  15.126   1.679  0.00  0.00    -0.271 OA
HETATM    8  N   UNK N   1      22.025  14.831   2.701  0.00  0.00    -0.346 N 
HETATM    9  H   UNK N   1      22.172  14.096   2.064  0.00  0.00     0.163 HD
BRANCH   8  10
HETATM   10  C   UNK N   1      23.075  15.018   3.685  0.00  0.00     0.180 C 
HETATM   11  C   UNK N   1      24.299  15.572   2.975  0.00  0.00     0.043 C 
BRANCH  10  12
HETATM   12  C   UNK N   1      23.471  13.721   4.372  0.00  0.00     0.281 C 
HETATM   13  O   UNK N   1      22.641  12.829   4.460  0.00  0.00    -0.263 OA
BRANCH  12  14
HETATM   14  O   UNK N   1      24.701  13.514   4.916  0.00  0.00    -0.320 OA
BRANCH  14  15
HETATM   15  C   UNK N   1      24.937  13.291   6.252  0.00  0.00     0.174 C 
HETATM   16  C   UNK N   1      24.816  14.601   7.004  0.00  0.00     0.034 C 
ENDBRANCH  14  15
ENDBRANCH  12  14
ENDBRANCH  10  12
ENDBRANCH   8  10
ENDBRANCH   5   6
BRANCH   5  17
HETATM   17  C   UNK N   1      20.320  18.003   2.441  0.00  0.00     0.038 C 
BRANCH  17  18
HETATM   18  C   UNK N   1      21.264  19.120   2.864  0.00  0.00    -0.020 C 
HETATM   19  C   UNK N   1      22.192  18.636   3.963  0.00  0.00     0.009 C 
HETATM   20  C   UNK N   1      20.456  20.290   3.377  0.00  0.00     0.009 C 
ENDBRANCH  17  18
ENDBRANCH   5  17
ENDBRANCH   2   5
BRANCH   3  21
HETATM   21  C   UNK N   1      20.485  15.541   6.104  0.00  0.00     0.087 C 
BRANCH  21  22
HETATM   22  C   UNK N   1      21.274  16.624   6.868  0.00  0.00     0.119 C 
BRANCH  22  23
HETATM   23  C   UNK N   1      20.528  17.680   7.624  0.00  0.00     0.241 C 
HETATM   24  O   UNK N   1      20.728  18.866   7.394  0.00  0.00    -0.271 OA
HETATM   25  N   UNK N   1      19.558  17.314   8.493  0.00  0.00    -0.237 N 
HETATM   26  H   UNK N   1      19.402  16.357   8.666  0.00  0.00     0.197 HD
BRANCH  25  27
HETATM   27  O   UNK N   1      18.806  18.226   9.120  0.00  0.00    -0.287 OA
HETATM   28  H   UNK N   1      18.956  19.142   9.400  0.00  0.00     0.244 HD
ENDBRANCH  25  27
ENDBRANCH  22  23
ENDBRANCH  21  22
BRANCH  21  29
HETATM   29  C   UNK N   1      20.277  14.242   6.896  0.00  0.00     0.018 C 
BRANCH  29  30
HETATM   30  C   UNK N   1      21.299  13.876   7.965  0.00  0.00    -0.022 C 
HETATM   31  C   UNK N   1      20.701  14.039   9.353  0.00  0.00     0.009 C 
HETATM   32  C   UNK N   1      21.634  12.411   7.793  0.00  0.00     0.009 C 
ENDBRANCH  29  30
ENDBRANCH  21  29
ENDBRANCH   3  21
TORSDOF 14
ENDMDL
MODEL 7
REMARK VINA RESULT:      -5.7     13.569     16.342
REMARK  14 active torsions:
REMARK  status: ('A' for Active; 'I' for Inactive)
REMARK    1  A    between atoms: O_5  and  C_13 
REMARK    2  A    between atoms: O_5  and  C_20 
REMARK    3  A    between atoms: O_6  and  N_7 
REMARK       I    between atoms: N_7  and  C_10 
REMARK       I    between atoms: N_8  and  C_12 
REMARK    4  A    between atoms: N_8  and  C_16 
REMARK       I    between atoms: N_9  and  C_11 
REMARK    5  A    between atoms: C_15  and  N_9 
REMARK    6  A    between atoms: C_10  and  C_19 
REMARK    7  A    between atoms: C_11  and  C_14 
REMARK    8  A    between atoms: C_12  and  C_15 
REMARK    9  A    between atoms: C_13  and  C_16 
REMARK   10  A    between atoms: C_14  and  C_19 
REMARK   11  A    between atoms: C_14  and  C_21 
REMARK   12  A    between atoms: C_15  and  C_22 
REMARK   13  A    between atoms: C_17  and  C_21 
REMARK   14  A    between atoms: C_18  and  C_22 
ROOT
HETATM    1  O   UNK N   1      21.105  18.809   6.818  0.00  0.00    -0.273 OA
HETATM    2  N   UNK N   1      20.587  16.791   6.028  0.00  0.00    -0.347 N 
HETATM    3  C   UNK N   1      21.101  18.048   5.862  0.00  0.00     0.223 C 
HETATM    4  H   UNK N   1      20.225  16.566   6.916  0.00  0.00     0.163 HD
ENDROOT
BRANCH   2   5
HETATM    5  C   UNK N   1      20.529  15.757   5.004  0.00  0.00     0.177 C 
BRANCH   5   6
HETATM    6  C   UNK N   1      20.040  14.411   5.540  0.00  0.00     0.241 C 
HETATM    7  O   UNK N   1      18.962  14.005   5.136  0.00  0.00    -0.271 OA
HETATM    8  N   UNK N   1      20.716  13.630   6.438  0.00  0.00    -0.346 N 
HETATM    9  H   UNK N   1      20.303  12.758   6.629  0.00  0.00     0.163 HD
BRANCH   8  10
HETATM   10  C   UNK N   1      21.952  13.900   7.149  0.00  0.00     0.180 C 
HETATM   11  C   UNK N   1      22.782  12.628   7.159  0.00  0.00     0.043 C 
BRANCH  10  12
HETATM   12  C   UNK N   1      21.718  14.325   8.589  0.00  0.00     0.281 C 
HETATM   13  O   UNK N   1      21.107  15.361   8.801  0.00  0.00    -0.263 OA
BRANCH  12  14
HETATM   14  O   UNK N   1      22.178  13.618   9.657  0.00  0.00    -0.320 OA
BRANCH  14  15
HETATM   15  C   UNK N   1      21.394  12.841  10.476  0.00  0.00     0.174 C 
HETATM   16  C   UNK N   1      22.285  12.069  11.430  0.00  0.00     0.034 C 
ENDBRANCH  14  15
ENDBRANCH  12  14
ENDBRANCH  10  12
ENDBRANCH   8  10
ENDBRANCH   5   6
BRANCH   5  17
HETATM   17  C   UNK N   1      19.734  16.226   3.797  0.00  0.00     0.038 C 
BRANCH  17  18
HETATM   18  C   UNK N   1      20.414  15.865   2.483  0.00  0.00    -0.020 C 
HETATM   19  C   UNK N   1      19.574  14.862   1.715  0.00  0.00     0.009 C 
HETATM   20  C   UNK N   1      21.769  15.259   2.771  0.00  0.00     0.009 C 
ENDBRANCH  17  18
ENDBRANCH   5  17
ENDBRANCH   2   5
BRANCH   3  21
HETATM   21  C   UNK N   1      21.704  18.526   4.543  0.00  0.00     0.087 C 
BRANCH  21  22
HETATM   22  C   UNK N   1      20.975  19.702   3.862  0.00  0.00     0.119 C 
BRANCH  22  23
HETATM   23  C   UNK N   1      21.224  19.980   2.411  0.00  0.00     0.241 C 
HETATM   24  O   UNK N   1      22.219  20.601   2.061  0.00  0.00    -0.271 OA
HETATM   25  N   UNK N   1      20.394  19.452   1.482  0.00  0.00    -0.237 N 
HETATM   26  H   UNK N   1      19.600  18.950   1.775  0.00  0.00     0.197 HD
BRANCH  25  27
HETATM   27  O   UNK N   1      20.632  19.598   0.174  0.00  0.00    -0.287 OA
HETATM   28  H   UNK N   1      20.148  20.021  -0.553  0.00  0.00     0.244 HD
ENDBRANCH  25  27
ENDBRANCH  22  23
ENDBRANCH  21  22
BRANCH  21  29
HETATM   29  C   UNK N   1      23.232  18.676   4.584  0.00  0.00     0.018 C 
BRANCH  29  30
HETATM   30  C   UNK N   1      24.085  17.529   4.055  0.00  0.00    -0.022 C 
HETATM   31  C   UNK N   1      25.437  18.041   3.588  0.00  0.00     0.009 C 
HETATM   32  C   UNK N   1      24.340  16.583   5.207  0.00  0.00     0.009 C 
ENDBRANCH  29  30
ENDBRANCH  21  29
ENDBRANCH   3  21
TORSDOF 14
ENDMDL
MODEL 8
REMARK VINA RESULT:      -5.7     13.011     15.874
REMARK  14 active torsions:
REMARK  status: ('A' for Active; 'I' for Inactive)
REMARK    1  A    between atoms: O_5  and  C_13 
REMARK    2  A    between atoms: O_5  and  C_20 
REMARK    3  A    between atoms: O_6  and  N_7 
REMARK       I    between atoms: N_7  and  C_10 
REMARK       I    between atoms: N_8  and  C_12 
REMARK    4  A    between atoms: N_8  and  C_16 
REMARK       I    between atoms: N_9  and  C_11 
REMARK    5  A    between atoms: C_15  and  N_9 
REMARK    6  A    between atoms: C_10  and  C_19 
REMARK    7  A    between atoms: C_11  and  C_14 
REMARK    8  A    between atoms: C_12  and  C_15 
REMARK    9  A    between atoms: C_13  and  C_16 
REMARK   10  A    between atoms: C_14  and  C_19 
REMARK   11  A    between atoms: C_14  and  C_21 
REMARK   12  A    between atoms: C_15  and  C_22 
REMARK   13  A    between atoms: C_17  and  C_21 
REMARK   14  A    between atoms: C_18  and  C_22 
ROOT
HETATM    1  O   UNK N   1      21.778  18.539   6.496  0.00  0.00    -0.273 OA
HETATM    2  N   UNK N   1      21.712  16.478   5.651  0.00  0.00    -0.347 N 
HETATM    3  C   UNK N   1      21.803  17.835   5.497  0.00  0.00     0.223 C 
HETATM    4  H   UNK N   1      21.612  16.135   6.568  0.00  0.00     0.163 HD
ENDROOT
BRANCH   2   5
HETATM    5  C   UNK N   1      21.751  15.500   4.574  0.00  0.00     0.177 C 
BRANCH   5   6
HETATM    6  C   UNK N   1      22.759  14.377   4.821  0.00  0.00     0.241 C 
HETATM    7  O   UNK N   1      23.334  13.915   3.849  0.00  0.00    -0.271 OA
HETATM    8  N   UNK N   1      23.060  13.848   6.047  0.00  0.00    -0.346 N 
HETATM    9  H   UNK N   1      23.783  13.180   6.049  0.00  0.00     0.163 HD
BRANCH   8  10
HETATM   10  C   UNK N   1      22.472  14.128   7.344  0.00  0.00     0.180 C 
HETATM   11  C   UNK N   1      23.379  13.545   8.414  0.00  0.00     0.043 C 
BRANCH  10  12
HETATM   12  C   UNK N   1      21.091  13.514   7.505  0.00  0.00     0.281 C 
HETATM   13  O   UNK N   1      20.916  12.364   7.133  0.00  0.00    -0.263 OA
BRANCH  12  14
HETATM   14  O   UNK N   1      20.032  14.193   8.024  0.00  0.00    -0.320 OA
BRANCH  14  15
HETATM   15  C   UNK N   1      20.087  14.989   9.144  0.00  0.00     0.174 C 
HETATM   16  C   UNK N   1      19.884  16.435   8.736  0.00  0.00     0.034 C 
ENDBRANCH  14  15
ENDBRANCH  12  14
ENDBRANCH  10  12
ENDBRANCH   8  10
ENDBRANCH   5   6
BRANCH   5  17
HETATM   17  C   UNK N   1      20.360  14.973   4.261  0.00  0.00     0.038 C 
BRANCH  17  18
HETATM   18  C   UNK N   1      19.903  15.349   2.858  0.00  0.00    -0.020 C 
HETATM   19  C   UNK N   1      19.324  14.137   2.152  0.00  0.00     0.009 C 
HETATM   20  C   UNK N   1      21.085  15.866   2.069  0.00  0.00     0.009 C 
ENDBRANCH  17  18
ENDBRANCH   5  17
ENDBRANCH   2   5
BRANCH   3  21
HETATM   21  C   UNK N   1      21.970  18.502   4.134  0.00  0.00     0.087 C 
BRANCH  21  22
HETATM   22  C   UNK N   1      20.883  19.529   3.754  0.00  0.00     0.119 C 
BRANCH  22  23
HETATM   23  C   UNK N   1      21.029  20.318   2.488  0.00  0.00     0.241 C 
HETATM   24  O   UNK N   1      21.685  21.351   2.474  0.00  0.00    -0.271 OA
HETATM   25  N   UNK N   1      20.515  19.827   1.338  0.00  0.00    -0.237 N 
HETATM   26  H   UNK N   1      19.993  18.992   1.360  0.00  0.00     0.197 HD
BRANCH  25  27
HETATM   27  O   UNK N   1      20.701  20.453   0.170  0.00  0.00    -0.287 OA
HETATM   28  H   UNK N   1      20.232  21.167  -0.291  0.00  0.00     0.244 HD
ENDBRANCH  25  27
ENDBRANCH  22  23
ENDBRANCH  21  22
BRANCH  21  29
HETATM   29  C   UNK N   1      23.404  18.977   3.855  0.00  0.00     0.018 C 
BRANCH  29  30
HETATM   30  C   UNK N   1      24.554  18.233   4.524  0.00  0.00    -0.022 C 
HETATM   31  C   UNK N   1      25.082  17.137   3.613  0.00  0.00     0.009 C 
HETATM   32  C   UNK N   1      25.678  19.223   4.729  0.00  0.00     0.009 C 
ENDBRANCH  29  30
ENDBRANCH  21  29
ENDBRANCH   3  21
TORSDOF 14
ENDMDL
MODEL 9
REMARK VINA RESULT:      -5.6     11.633     14.781
REMARK  14 active torsions:
REMARK  status: ('A' for Active; 'I' for Inactive)
REMARK    1  A    between atoms: O_5  and  C_13 
REMARK    2  A    between atoms: O_5  and  C_20 
REMARK    3  A    between atoms: O_6  and  N_7 
REMARK       I    between atoms: N_7  and  C_10 
REMARK       I    between atoms: N_8  and  C_12 
REMARK    4  A    between atoms: N_8  and  C_16 
REMARK       I    between atoms: N_9  and  C_11 
REMARK    5  A    between atoms: C_15  and  N_9 
REMARK    6  A    between atoms: C_10  and  C_19 
REMARK    7  A    between atoms: C_11  and  C_14 
REMARK    8  A    between atoms: C_12  and  C_15 
REMARK    9  A    between atoms: C_13  and  C_16 
REMARK   10  A    between atoms: C_14  and  C_19 
REMARK   11  A    between atoms: C_14  and  C_21 
REMARK   12  A    between atoms: C_15  and  C_22 
REMARK   13  A    between atoms: C_17  and  C_21 
REMARK   14  A    between atoms: C_18  and  C_22 
ROOT
HETATM    1  O   UNK N   1      21.576  18.346   6.734  0.00  0.00    -0.273 OA
HETATM    2  N   UNK N   1      23.501  18.153   5.629  0.00  0.00    -0.347 N 
HETATM    3  C   UNK N   1      22.139  18.032   5.696  0.00  0.00     0.223 C 
HETATM    4  H   UNK N   1      23.965  18.473   6.437  0.00  0.00     0.163 HD
ENDROOT
BRANCH   2   5
HETATM    5  C   UNK N   1      24.321  17.848   4.466  0.00  0.00     0.177 C 
BRANCH   5   6
HETATM    6  C   UNK N   1      25.068  19.068   3.924  0.00  0.00     0.241 C 
HETATM    7  O   UNK N   1      24.788  19.441   2.796  0.00  0.00    -0.271 OA
HETATM    8  N   UNK N   1      26.026  19.769   4.604  0.00  0.00    -0.346 N 
HETATM    9  H   UNK N   1      26.361  20.573   4.146  0.00  0.00     0.163 HD
BRANCH   8  10
HETATM   10  C   UNK N   1      26.620  19.501   5.901  0.00  0.00     0.180 C 
HETATM   11  C   UNK N   1      26.865  20.829   6.596  0.00  0.00     0.043 C 
BRANCH  10  12
HETATM   12  C   UNK N   1      27.947  18.767   5.796  0.00  0.00     0.281 C 
HETATM   13  O   UNK N   1      28.677  19.010   4.847  0.00  0.00    -0.263 OA
BRANCH  12  14
HETATM   14  O   UNK N   1      28.353  17.833   6.699  0.00  0.00    -0.320 OA
BRANCH  14  15
HETATM   15  C   UNK N   1      29.106  18.102   7.818  0.00  0.00     0.174 C 
HETATM   16  C   UNK N   1      28.206  18.085   9.038  0.00  0.00     0.034 C 
ENDBRANCH  14  15
ENDBRANCH  12  14
ENDBRANCH  10  12
ENDBRANCH   8  10
ENDBRANCH   5   6
BRANCH   5  17
HETATM   17  C   UNK N   1      25.248  16.676   4.740  0.00  0.00     0.038 C 
BRANCH  17  18
HETATM   18  C   UNK N   1      24.719  15.768   5.842  0.00  0.00    -0.020 C 
HETATM   19  C   UNK N   1      25.803  15.503   6.870  0.00  0.00     0.009 C 
HETATM   20  C   UNK N   1      24.275  14.455   5.238  0.00  0.00     0.009 C 
ENDBRANCH  17  18
ENDBRANCH   5  17
ENDBRANCH   2   5
BRANCH   3  21
HETATM   21  C   UNK N   1      21.293  17.558   4.517  0.00  0.00     0.087 C 
BRANCH  21  22
HETATM   22  C   UNK N   1      21.413  18.396   3.228  0.00  0.00     0.119 C 
BRANCH  22  23
HETATM   23  C   UNK N   1      21.257  19.885   3.303  0.00  0.00     0.241 C 
HETATM   24  O   UNK N   1      20.381  20.381   3.998  0.00  0.00    -0.271 OA
HETATM   25  N   UNK N   1      22.155  20.678   2.676  0.00  0.00    -0.237 N 
HETATM   26  H   UNK N   1      22.859  20.267   2.123  0.00  0.00     0.197 HD
BRANCH  25  27
HETATM   27  O   UNK N   1      22.107  22.010   2.792  0.00  0.00    -0.287 OA
HETATM   28  H   UNK N   1      22.694  22.671   3.192  0.00  0.00     0.244 HD
ENDBRANCH  25  27
ENDBRANCH  22  23
ENDBRANCH  21  22
BRANCH  21  29
HETATM   29  C   UNK N   1      21.359  16.040   4.286  0.00  0.00     0.018 C 
BRANCH  29  30
HETATM   30  C   UNK N   1      20.260  15.170   4.885  0.00  0.00    -0.022 C 
HETATM   31  C   UNK N   1      20.611  14.773   6.309  0.00  0.00     0.009 C 
HETATM   32  C   UNK N   1      19.002  16.007   4.951  0.00  0.00     0.009 C 
ENDBRANCH  29  30
ENDBRANCH  21  29
ENDBRANCH   3  21
TORSDOF 14
ENDMDL
