REMARK  14 active torsions:
REMARK  status: ('A' for Active; 'I' for Inactive)
REMARK    1  A    between atoms: O_5  and  C_13 
REMARK    2  A    between atoms: O_5  and  C_20 
REMARK    3  A    between atoms: O_6  and  N_7 
REMARK       I    between atoms: N_7  and  C_10 
REMARK       I    between atoms: N_8  and  C_12 
REMARK    4  A    between atoms: N_8  and  C_16 
REMARK       I    between atoms: N_9  and  C_11 
REMARK    5  A    between atoms: C_15  and  N_9 
REMARK    6  A    between atoms: C_10  and  C_19 
REMARK    7  A    between atoms: C_11  and  C_14 
REMARK    8  A    between atoms: C_12  and  C_15 
REMARK    9  A    between atoms: C_13  and  C_16 
REMARK   10  A    between atoms: C_14  and  C_19 
REMARK   11  A    between atoms: C_14  and  C_21 
REMARK   12  A    between atoms: C_15  and  C_22 
REMARK   13  A    between atoms: C_17  and  C_21 
REMARK   14  A    between atoms: C_18  and  C_22 
ROOT
HETATM    1  O   UNK N   1      -2.212  -0.665   1.587  0.00  0.00    -0.273 OA
HETATM    2  N   UNK N   1      -0.354  -1.082   0.430  0.00  0.00    -0.347 N 
HETATM    3  C   UNK N   1      -1.630  -0.594   0.515  0.00  0.00     0.223 C 
HETATM    4  H   UNK N   1       0.028  -1.487   1.242  0.00  0.00     0.163 HD
ENDROOT
BRANCH   2   5
HETATM    5  C   UNK N   1       0.486  -1.053  -0.759  0.00  0.00     0.177 C 
BRANCH   5   6
HETATM    6  C   UNK N   1       1.051   0.336  -1.059  0.00  0.00     0.241 C 
HETATM    7  O   UNK N   1       0.630   0.911  -2.050  0.00  0.00    -0.271 OA
HETATM    8  N   UNK N   1       1.994   0.980  -0.305  0.00  0.00    -0.346 N 
HETATM    9  H   UNK N   1       2.202   1.899  -0.589  0.00  0.00     0.163 HD
BRANCH   8  10
HETATM   10  C   UNK N   1       2.732   0.507   0.852  0.00  0.00     0.180 C 
HETATM   11  C   UNK N   1       3.446   1.693   1.478  0.00  0.00     0.043 C 
BRANCH  10  12
HETATM   12  C   UNK N   1       3.774  -0.540   0.494  0.00  0.00     0.281 C 
HETATM   13  O   UNK N   1       3.737  -1.620   1.063  0.00  0.00    -0.263 OA
BRANCH  12  14
HETATM   14  O   UNK N   1       4.763  -0.323  -0.415  0.00  0.00    -0.320 OA
BRANCH  14  15
HETATM   15  C   UNK N   1       4.987   0.873  -1.056  0.00  0.00     0.174 C 
HETATM   16  C   UNK N   1       6.411   1.320  -0.790  0.00  0.00     0.034 C 
ENDBRANCH  14  15
ENDBRANCH  12  14
ENDBRANCH  10  12
ENDBRANCH   8  10
ENDBRANCH   5   6
BRANCH   5  17
HETATM   17  C   UNK N   1       1.568  -2.118  -0.692  0.00  0.00     0.038 C 
BRANCH  17  18
HETATM   18  C   UNK N   1       0.992  -3.514  -0.499  0.00  0.00    -0.020 C 
HETATM   19  C   UNK N   1       0.823  -3.813   0.979  0.00  0.00     0.009 C 
HETATM   20  C   UNK N   1       1.931  -4.531  -1.107  0.00  0.00     0.009 C 
ENDBRANCH  17  18
ENDBRANCH   5  17
ENDBRANCH   2   5
BRANCH   3  21
HETATM   21  C   UNK N   1      -2.341   0.068  -0.663  0.00  0.00     0.087 C 
BRANCH  21  22
HETATM   22  C   UNK N   1      -3.752  -0.468  -0.979  0.00  0.00     0.119 C 
BRANCH  22  23
HETATM   23  C   UNK N   1      -4.845  -0.300   0.033  0.00  0.00     0.241 C 
HETATM   24  O   UNK N   1      -5.107   0.807   0.484  0.00  0.00    -0.271 OA
HETATM   25  N   UNK N   1      -5.607  -1.366   0.369  0.00  0.00    -0.237 N 
HETATM   26  H   UNK N   1      -5.390  -2.251  -0.004  0.00  0.00     0.197 HD
BRANCH  25  27
HETATM   27  O   UNK N   1      -6.650  -1.241   1.198  0.00  0.00    -0.287 OA
HETATM   28  H   UNK N   1      -6.950  -0.540   1.798  0.00  0.00     0.244 HD
ENDBRANCH  25  27
ENDBRANCH  22  23
ENDBRANCH  21  22
BRANCH  21  29
HETATM   29  C   UNK N   1      -2.240   1.601  -0.658  0.00  0.00     0.018 C 
BRANCH  29  30
HETATM   30  C   UNK N   1      -2.475   2.336   0.656  0.00  0.00    -0.022 C 
HETATM   31  C   UNK N   1      -1.277   2.179   1.577  0.00  0.00     0.009 C 
HETATM   32  C   UNK N   1      -2.603   3.809   0.337  0.00  0.00     0.009 C 
ENDBRANCH  29  30
ENDBRANCH  21  29
ENDBRANCH   3  21
TORSDOF 14
