MODEL 1
REMARK VINA RESULT:      -5.9      0.000      0.000
REMARK  6 active torsions:
REMARK  status: ('A' for Active; 'I' for Inactive)
REMARK    1  A    between atoms: S_2  and  N_4 
REMARK    2  A    between atoms: S_2  and  C_11 
REMARK       I    between atoms: N_4  and  C_5 
REMARK       I    between atoms: C_5  and  N_7 
REMARK    3  A    between atoms: N_7  and  C_8 
REMARK    4  A    between atoms: C_8  and  C_9 
REMARK    5  A    between atoms: C_9  and  S_10 
REMARK    6  A    between atoms: C_14  and  N_15 
ROOT
HETATM    1  O   UNK N   1      35.524  11.115  13.777  0.00  0.00    -0.200 OA
HETATM    2  S   UNK N   1      36.508  11.978  14.581  0.00  0.00     0.266 S 
HETATM    3  O   UNK N   1      37.750  11.074  14.588  0.00  0.00    -0.200 OA
ENDROOT
BRANCH   2   4
HETATM    4  N   UNK N   1      36.965  13.299  13.511  0.00  0.00    -0.232 N 
HETATM    5  C   UNK N   1      36.061  14.128  12.936  0.00  0.00     0.329 C 
HETATM    6  O   UNK N   1      34.869  14.014  13.188  0.00  0.00    -0.246 OA
HETATM    7  N   UNK N   1      36.490  15.077  12.068  0.00  0.00    -0.342 N 
HETATM    8  H   UNK N   1      37.456  15.156  11.891  0.00  0.00     0.164 HD
HETATM    9  H   UNK N   1      37.921  13.443  13.322  0.00  0.00     0.183 HD
BRANCH   7  10
HETATM   10  C   UNK N   1      35.584  15.976  11.397  0.00  0.00     0.134 C 
BRANCH  10  11
HETATM   11  C   UNK N   1      35.487  15.603   9.930  0.00  0.00     0.090 C 
BRANCH  11  12
HETATM   12  S   UNK N   1      34.504  16.848   9.049  0.00  0.00    -0.181 SA
HETATM   13  H   UNK N   1      33.694  17.706   9.724  0.00  0.00     0.101 HD
ENDBRANCH  11  12
ENDBRANCH  10  11
ENDBRANCH   7  10
ENDBRANCH   2   4
BRANCH   2  14
HETATM   14  C   UNK N   1      35.939  12.299  16.249  0.00  0.00     0.080 A 
HETATM   15  C   UNK N   1      35.704  13.617  16.656  0.00  0.00     0.027 A 
HETATM   16  C   UNK N   1      35.321  13.888  17.973  0.00  0.00     0.030 A 
HETATM   17  C   UNK N   1      35.176  12.842  18.887  0.00  0.00     0.025 A 
HETATM   18  C   UNK N   1      35.407  11.523  18.481  0.00  0.00     0.030 A 
HETATM   19  C   UNK N   1      35.791  11.250  17.163  0.00  0.00     0.027 A 
BRANCH  17  20
HETATM   20  N   UNK N   1      34.806  13.118  20.218  0.00  0.00    -0.399 N 
HETATM   21  H   UNK N   1      35.396  13.650  20.800  0.00  0.00     0.156 HD
HETATM   22  H   UNK N   1      33.953  12.775  20.568  0.00  0.00     0.156 HD
ENDBRANCH  17  20
ENDBRANCH   2  14
TORSDOF 6
ENDMDL
MODEL 2
REMARK VINA RESULT:      -5.6      5.663      9.573
REMARK  6 active torsions:
REMARK  status: ('A' for Active; 'I' for Inactive)
REMARK    1  A    between atoms: S_2  and  N_4 
REMARK    2  A    between atoms: S_2  and  C_11 
REMARK       I    between atoms: N_4  and  C_5 
REMARK       I    between atoms: C_5  and  N_7 
REMARK    3  A    between atoms: N_7  and  C_8 
REMARK    4  A    between atoms: C_8  and  C_9 
REMARK    5  A    between atoms: C_9  and  S_10 
REMARK    6  A    between atoms: C_14  and  N_15 
ROOT
HETATM    1  O   UNK N   1      34.122  18.005   6.501  0.00  0.00    -0.200 OA
HETATM    2  S   UNK N   1      33.193  16.859   6.933  0.00  0.00     0.266 S 
HETATM    3  O   UNK N   1      33.089  16.060   5.625  0.00  0.00    -0.200 OA
ENDROOT
BRANCH   2   4
HETATM    4  N   UNK N   1      34.166  15.826   7.973  0.00  0.00    -0.232 N 
HETATM    5  C   UNK N   1      34.763  16.272   9.105  0.00  0.00     0.329 C 
HETATM    6  O   UNK N   1      34.599  17.425   9.478  0.00  0.00    -0.246 OA
HETATM    7  N   UNK N   1      35.553  15.428   9.813  0.00  0.00    -0.342 N 
HETATM    8  H   UNK N   1      35.660  14.501   9.498  0.00  0.00     0.164 HD
HETATM    9  H   UNK N   1      34.282  14.881   7.723  0.00  0.00     0.183 HD
BRANCH   7  10
HETATM   10  C   UNK N   1      36.243  15.840  11.011  0.00  0.00     0.134 C 
BRANCH  10  11
HETATM   11  C   UNK N   1      35.783  14.993  12.182  0.00  0.00     0.090 C 
BRANCH  11  12
HETATM   12  S   UNK N   1      35.247  13.366  11.582  0.00  0.00    -0.181 SA
HETATM   13  H   UNK N   1      36.001  12.256  11.802  0.00  0.00     0.101 HD
ENDBRANCH  11  12
ENDBRANCH  10  11
ENDBRANCH   7  10
ENDBRANCH   2   4
BRANCH   2  14
HETATM   14  C   UNK N   1      31.582  17.442   7.459  0.00  0.00     0.080 A 
HETATM   15  C   UNK N   1      31.467  18.172   8.647  0.00  0.00     0.027 A 
HETATM   16  C   UNK N   1      30.210  18.577   9.104  0.00  0.00     0.030 A 
HETATM   17  C   UNK N   1      29.064  18.250   8.375  0.00  0.00     0.025 A 
HETATM   18  C   UNK N   1      29.176  17.523   7.185  0.00  0.00     0.030 A 
HETATM   19  C   UNK N   1      30.435  17.115   6.728  0.00  0.00     0.027 A 
BRANCH  17  20
HETATM   20  N   UNK N   1      27.796  18.645   8.845  0.00  0.00    -0.399 N 
HETATM   21  H   UNK N   1      27.294  18.072   9.471  0.00  0.00     0.156 HD
HETATM   22  H   UNK N   1      27.408  19.498   8.546  0.00  0.00     0.156 HD
ENDBRANCH  17  20
ENDBRANCH   2  14
TORSDOF 6
ENDMDL
MODEL 3
REMARK VINA RESULT:      -5.6      6.384      8.259
REMARK  6 active torsions:
REMARK  status: ('A' for Active; 'I' for Inactive)
REMARK    1  A    between atoms: S_2  and  N_4 
REMARK    2  A    between atoms: S_2  and  C_11 
REMARK       I    between atoms: N_4  and  C_5 
REMARK       I    between atoms: C_5  and  N_7 
REMARK    3  A    between atoms: N_7  and  C_8 
REMARK    4  A    between atoms: C_8  and  C_9 
REMARK    5  A    between atoms: C_9  and  S_10 
REMARK    6  A    between atoms: C_14  and  N_15 
ROOT
HETATM    1  O   UNK N   1      34.572  17.675   6.773  0.00  0.00    -0.200 OA
HETATM    2  S   UNK N   1      34.375  17.897   8.281  0.00  0.00     0.266 S 
HETATM    3  O   UNK N   1      35.214  19.165   8.501  0.00  0.00    -0.200 OA
ENDROOT
BRANCH   2   4
HETATM    4  N   UNK N   1      32.718  18.459   8.465  0.00  0.00    -0.232 N 
HETATM    5  C   UNK N   1      31.644  17.642   8.343  0.00  0.00     0.329 C 
HETATM    6  O   UNK N   1      31.797  16.445   8.146  0.00  0.00    -0.246 OA
HETATM    7  N   UNK N   1      30.398  18.169   8.430  0.00  0.00    -0.342 N 
HETATM    8  H   UNK N   1      30.301  19.134   8.601  0.00  0.00     0.164 HD
HETATM    9  H   UNK N   1      32.563  19.411   8.667  0.00  0.00     0.183 HD
BRANCH   7  10
HETATM   10  C   UNK N   1      29.209  17.366   8.282  0.00  0.00     0.134 C 
BRANCH  10  11
HETATM   11  C   UNK N   1      28.573  17.639   6.933  0.00  0.00     0.090 C 
BRANCH  11  12
HETATM   12  S   UNK N   1      27.901  19.325   6.907  0.00  0.00    -0.181 SA
HETATM   13  H   UNK N   1      28.235  20.227   7.868  0.00  0.00     0.101 HD
ENDBRANCH  11  12
ENDBRANCH  10  11
ENDBRANCH   7  10
ENDBRANCH   2   4
BRANCH   2  14
HETATM   14  C   UNK N   1      35.000  16.535   9.263  0.00  0.00     0.080 A 
HETATM   15  C   UNK N   1      35.342  16.750  10.603  0.00  0.00     0.027 A 
HETATM   16  C   UNK N   1      35.891  15.715  11.364  0.00  0.00     0.030 A 
HETATM   17  C   UNK N   1      36.103  14.461  10.786  0.00  0.00     0.025 A 
HETATM   18  C   UNK N   1      35.759  14.241   9.448  0.00  0.00     0.030 A 
HETATM   19  C   UNK N   1      35.211  15.279   8.684  0.00  0.00     0.027 A 
BRANCH  17  20
HETATM   20  N   UNK N   1      36.672  13.422  11.549  0.00  0.00    -0.399 N 
HETATM   21  H   UNK N   1      36.978  13.589  12.470  0.00  0.00     0.156 HD
HETATM   22  H   UNK N   1      36.765  12.524  11.158  0.00  0.00     0.156 HD
ENDBRANCH  17  20
ENDBRANCH   2  14
TORSDOF 6
ENDMDL
MODEL 4
REMARK VINA RESULT:      -5.4     16.570     18.366
REMARK  6 active torsions:
REMARK  status: ('A' for Active; 'I' for Inactive)
REMARK    1  A    between atoms: S_2  and  N_4 
REMARK    2  A    between atoms: S_2  and  C_11 
REMARK       I    between atoms: N_4  and  C_5 
REMARK       I    between atoms: C_5  and  N_7 
REMARK    3  A    between atoms: N_7  and  C_8 
REMARK    4  A    between atoms: C_8  and  C_9 
REMARK    5  A    between atoms: C_9  and  S_10 
REMARK    6  A    between atoms: C_14  and  N_15 
ROOT
HETATM    1  O   UNK N   1      20.957  18.625   2.432  0.00  0.00    -0.200 OA
HETATM    2  S   UNK N   1      21.524  18.890   3.835  0.00  0.00     0.266 S 
HETATM    3  O   UNK N   1      20.720  20.133   4.245  0.00  0.00    -0.200 OA
ENDROOT
BRANCH   2   4
HETATM    4  N   UNK N   1      20.870  17.617   4.859  0.00  0.00    -0.232 N 
HETATM    5  C   UNK N   1      20.977  17.629   6.210  0.00  0.00     0.329 C 
HETATM    6  O   UNK N   1      21.501  18.576   6.780  0.00  0.00    -0.246 OA
HETATM    7  N   UNK N   1      20.508  16.575   6.920  0.00  0.00    -0.342 N 
HETATM    8  H   UNK N   1      20.078  15.830   6.438  0.00  0.00     0.164 HD
HETATM    9  H   UNK N   1      20.404  16.861   4.432  0.00  0.00     0.183 HD
BRANCH   7  10
HETATM   10  C   UNK N   1      20.612  16.505   8.358  0.00  0.00     0.134 C 
BRANCH  10  11
HETATM   11  C   UNK N   1      19.334  15.927   8.935  0.00  0.00     0.090 C 
BRANCH  11  12
HETATM   12  S   UNK N   1      18.112  17.250   9.153  0.00  0.00    -0.181 SA
HETATM   13  H   UNK N   1      16.829  16.967   9.506  0.00  0.00     0.101 HD
ENDBRANCH  11  12
ENDBRANCH  10  11
ENDBRANCH   7  10
ENDBRANCH   2   4
BRANCH   2  14
HETATM   14  C   UNK N   1      23.281  19.241   3.811  0.00  0.00     0.080 A 
HETATM   15  C   UNK N   1      23.769  20.269   2.996  0.00  0.00     0.027 A 
HETATM   16  C   UNK N   1      25.142  20.513   2.918  0.00  0.00     0.030 A 
HETATM   17  C   UNK N   1      26.033  19.727   3.652  0.00  0.00     0.025 A 
HETATM   18  C   UNK N   1      25.549  18.701   4.471  0.00  0.00     0.030 A 
HETATM   19  C   UNK N   1      24.173  18.455   4.549  0.00  0.00     0.027 A 
BRANCH  17  20
HETATM   20  N   UNK N   1      27.419  19.963   3.560  0.00  0.00    -0.399 N 
HETATM   21  H   UNK N   1      27.986  19.395   2.989  0.00  0.00     0.156 HD
HETATM   22  H   UNK N   1      27.824  20.701   4.070  0.00  0.00     0.156 HD
ENDBRANCH  17  20
ENDBRANCH   2  14
TORSDOF 6
ENDMDL
MODEL 5
REMARK VINA RESULT:      -5.2     15.348     16.820
REMARK  6 active torsions:
REMARK  status: ('A' for Active; 'I' for Inactive)
REMARK    1  A    between atoms: S_2  and  N_4 
REMARK    2  A    between atoms: S_2  and  C_11 
REMARK       I    between atoms: N_4  and  C_5 
REMARK       I    between atoms: C_5  and  N_7 
REMARK    3  A    between atoms: N_7  and  C_8 
REMARK    4  A    between atoms: C_8  and  C_9 
REMARK    5  A    between atoms: C_9  and  S_10 
REMARK    6  A    between atoms: C_14  and  N_15 
ROOT
HETATM    1  O   UNK N   1      20.436  17.299   9.059  0.00  0.00    -0.200 OA
HETATM    2  S   UNK N   1      19.865  15.959   8.570  0.00  0.00     0.266 S 
HETATM    3  O   UNK N   1      18.423  16.049   9.092  0.00  0.00    -0.200 OA
ENDROOT
BRANCH   2   4
HETATM    4  N   UNK N   1      19.686  16.127   6.827  0.00  0.00    -0.232 N 
HETATM    5  C   UNK N   1      20.705  16.493   6.013  0.00  0.00     0.329 C 
HETATM    6  O   UNK N   1      21.826  16.675   6.469  0.00  0.00    -0.246 OA
HETATM    7  N   UNK N   1      20.466  16.668   4.691  0.00  0.00    -0.342 N 
HETATM    8  H   UNK N   1      19.558  16.503   4.346  0.00  0.00     0.164 HD
HETATM    9  H   UNK N   1      18.806  15.945   6.425  0.00  0.00     0.183 HD
BRANCH   7  10
HETATM   10  C   UNK N   1      21.495  17.084   3.769  0.00  0.00     0.134 C 
BRANCH  10  11
HETATM   11  C   UNK N   1      21.390  18.578   3.528  0.00  0.00     0.090 C 
BRANCH  11  12
HETATM   12  S   UNK N   1      19.804  18.956   2.730  0.00  0.00    -0.181 SA
HETATM   13  H   UNK N   1      18.759  18.090   2.805  0.00  0.00     0.101 HD
ENDBRANCH  11  12
ENDBRANCH  10  11
ENDBRANCH   7  10
ENDBRANCH   2   4
BRANCH   2  14
HETATM   14  C   UNK N   1      20.717  14.551   9.277  0.00  0.00     0.080 A 
HETATM   15  C   UNK N   1      20.041  13.713  10.172  0.00  0.00     0.027 A 
HETATM   16  C   UNK N   1      20.710  12.648  10.781  0.00  0.00     0.030 A 
HETATM   17  C   UNK N   1      22.059  12.420  10.500  0.00  0.00     0.025 A 
HETATM   18  C   UNK N   1      22.737  13.254   9.604  0.00  0.00     0.030 A 
HETATM   19  C   UNK N   1      22.068  14.322   8.995  0.00  0.00     0.027 A 
BRANCH  17  20
HETATM   20  N   UNK N   1      22.738  11.357  11.128  0.00  0.00    -0.399 N 
HETATM   21  H   UNK N   1      23.632  11.083  10.818  0.00  0.00     0.156 HD
HETATM   22  H   UNK N   1      22.315  10.884  11.880  0.00  0.00     0.156 HD
ENDBRANCH  17  20
ENDBRANCH   2  14
TORSDOF 6
ENDMDL
MODEL 6
REMARK VINA RESULT:      -5.2      5.697     10.749
REMARK  6 active torsions:
REMARK  status: ('A' for Active; 'I' for Inactive)
REMARK    1  A    between atoms: S_2  and  N_4 
REMARK    2  A    between atoms: S_2  and  C_11 
REMARK       I    between atoms: N_4  and  C_5 
REMARK       I    between atoms: C_5  and  N_7 
REMARK    3  A    between atoms: N_7  and  C_8 
REMARK    4  A    between atoms: C_8  and  C_9 
REMARK    5  A    between atoms: C_9  and  S_10 
REMARK    6  A    between atoms: C_14  and  N_15 
ROOT
HETATM    1  O   UNK N   1      32.694  18.212   8.617  0.00  0.00    -0.200 OA
HETATM    2  S   UNK N   1      33.455  17.445   7.525  0.00  0.00     0.266 S 
HETATM    3  O   UNK N   1      34.614  18.413   7.243  0.00  0.00    -0.200 OA
ENDROOT
BRANCH   2   4
HETATM    4  N   UNK N   1      34.232  16.096   8.346  0.00  0.00    -0.232 N 
HETATM    5  C   UNK N   1      34.892  16.230   9.522  0.00  0.00     0.329 C 
HETATM    6  O   UNK N   1      34.926  17.312  10.092  0.00  0.00    -0.246 OA
HETATM    7  N   UNK N   1      35.523  15.154  10.053  0.00  0.00    -0.342 N 
HETATM    8  H   UNK N   1      35.471  14.292   9.580  0.00  0.00     0.164 HD
HETATM    9  H   UNK N   1      34.186  15.204   7.933  0.00  0.00     0.183 HD
BRANCH   7  10
HETATM   10  C   UNK N   1      36.268  15.228  11.286  0.00  0.00     0.134 C 
BRANCH  10  11
HETATM   11  C   UNK N   1      36.219  13.887  11.993  0.00  0.00     0.090 C 
BRANCH  11  12
HETATM   12  S   UNK N   1      36.269  14.144  13.789  0.00  0.00    -0.181 SA
HETATM   13  H   UNK N   1      37.289  13.649  14.539  0.00  0.00     0.101 HD
ENDBRANCH  11  12
ENDBRANCH  10  11
ENDBRANCH   7  10
ENDBRANCH   2   4
BRANCH   2  14
HETATM   14  C   UNK N   1      32.466  17.182   6.054  0.00  0.00     0.080 A 
HETATM   15  C   UNK N   1      33.022  17.434   4.795  0.00  0.00     0.027 A 
HETATM   16  C   UNK N   1      32.244  17.295   3.642  0.00  0.00     0.030 A 
HETATM   17  C   UNK N   1      30.906  16.907   3.746  0.00  0.00     0.025 A 
HETATM   18  C   UNK N   1      30.349  16.651   5.004  0.00  0.00     0.030 A 
HETATM   19  C   UNK N   1      31.127  16.791   6.159  0.00  0.00     0.027 A 
BRANCH  17  20
HETATM   20  N   UNK N   1      30.118  16.784   2.585  0.00  0.00    -0.399 N 
HETATM   21  H   UNK N   1      29.734  17.582   2.155  0.00  0.00     0.156 HD
HETATM   22  H   UNK N   1      29.950  15.893   2.202  0.00  0.00     0.156 HD
ENDBRANCH  17  20
ENDBRANCH   2  14
TORSDOF 6
ENDMDL
MODEL 7
REMARK VINA RESULT:      -5.1     20.484     22.446
REMARK  6 active torsions:
REMARK  status: ('A' for Active; 'I' for Inactive)
REMARK    1  A    between atoms: S_2  and  N_4 
REMARK    2  A    between atoms: S_2  and  C_11 
REMARK       I    between atoms: N_4  and  C_5 
REMARK       I    between atoms: C_5  and  N_7 
REMARK    3  A    between atoms: N_7  and  C_8 
REMARK    4  A    between atoms: C_8  and  C_9 
REMARK    5  A    between atoms: C_9  and  S_10 
REMARK    6  A    between atoms: C_14  and  N_15 
ROOT
HETATM    1  O   UNK N   1      30.304  23.132  -1.582  0.00  0.00    -0.200 OA
HETATM    2  S   UNK N   1      30.424  23.638  -3.027  0.00  0.00     0.266 S 
HETATM    3  O   UNK N   1      30.973  25.054  -2.797  0.00  0.00    -0.200 OA
ENDROOT
BRANCH   2   4
HETATM    4  N   UNK N   1      31.790  22.772  -3.721  0.00  0.00    -0.232 N 
HETATM    5  C   UNK N   1      31.772  21.440  -3.965  0.00  0.00     0.329 C 
HETATM    6  O   UNK N   1      30.760  20.786  -3.753  0.00  0.00    -0.246 OA
HETATM    7  N   UNK N   1      32.892  20.838  -4.436  0.00  0.00    -0.342 N 
HETATM    8  H   UNK N   1      33.690  21.388  -4.611  0.00  0.00     0.164 HD
HETATM    9  H   UNK N   1      32.605  23.279  -3.943  0.00  0.00     0.183 HD
BRANCH   7  10
HETATM   10  C   UNK N   1      32.955  19.419  -4.692  0.00  0.00     0.134 C 
BRANCH  10  11
HETATM   11  C   UNK N   1      34.296  18.878  -4.235  0.00  0.00     0.090 C 
BRANCH  11  12
HETATM   12  S   UNK N   1      35.633  19.789  -5.057  0.00  0.00    -0.181 SA
HETATM   13  H   UNK N   1      35.360  20.761  -5.969  0.00  0.00     0.101 HD
ENDBRANCH  11  12
ENDBRANCH  10  11
ENDBRANCH   7  10
ENDBRANCH   2   4
BRANCH   2  14
HETATM   14  C   UNK N   1      28.844  23.692  -3.870  0.00  0.00     0.080 A 
HETATM   15  C   UNK N   1      28.778  23.386  -5.234  0.00  0.00     0.027 A 
HETATM   16  C   UNK N   1      27.564  23.486  -5.920  0.00  0.00     0.030 A 
HETATM   17  C   UNK N   1      26.413  23.896  -5.243  0.00  0.00     0.025 A 
HETATM   18  C   UNK N   1      26.475  24.199  -3.879  0.00  0.00     0.030 A 
HETATM   19  C   UNK N   1      27.691  24.101  -3.192  0.00  0.00     0.027 A 
BRANCH  17  20
HETATM   20  N   UNK N   1      25.193  24.012  -5.939  0.00  0.00    -0.399 N 
HETATM   21  H   UNK N   1      24.752  24.888  -6.030  0.00  0.00     0.156 HD
HETATM   22  H   UNK N   1      24.780  23.212  -6.336  0.00  0.00     0.156 HD
ENDBRANCH  17  20
ENDBRANCH   2  14
TORSDOF 6
ENDMDL
MODEL 8
REMARK VINA RESULT:      -5.1      9.238     11.568
REMARK  6 active torsions:
REMARK  status: ('A' for Active; 'I' for Inactive)
REMARK    1  A    between atoms: S_2  and  N_4 
REMARK    2  A    between atoms: S_2  and  C_11 
REMARK       I    between atoms: N_4  and  C_5 
REMARK       I    between atoms: C_5  and  N_7 
REMARK    3  A    between atoms: N_7  and  C_8 
REMARK    4  A    between atoms: C_8  and  C_9 
REMARK    5  A    between atoms: C_9  and  S_10 
REMARK    6  A    between atoms: C_14  and  N_15 
ROOT
HETATM    1  O   UNK N   1      30.919  15.642   4.276  0.00  0.00    -0.200 OA
HETATM    2  S   UNK N   1      31.419  17.057   4.607  0.00  0.00     0.266 S 
HETATM    3  O   UNK N   1      32.399  17.298   3.449  0.00  0.00    -0.200 OA
ENDROOT
BRANCH   2   4
HETATM    4  N   UNK N   1      30.074  18.132   4.241  0.00  0.00    -0.232 N 
HETATM    5  C   UNK N   1      28.878  18.059   4.874  0.00  0.00     0.329 C 
HETATM    6  O   UNK N   1      28.706  17.255   5.780  0.00  0.00    -0.246 OA
HETATM    7  N   UNK N   1      27.871  18.878   4.484  0.00  0.00    -0.342 N 
HETATM    8  H   UNK N   1      28.039  19.526   3.760  0.00  0.00     0.164 HD
HETATM    9  H   UNK N   1      30.196  18.819   3.545  0.00  0.00     0.183 HD
BRANCH   7  10
HETATM   10  C   UNK N   1      26.564  18.838   5.092  0.00  0.00     0.134 C 
BRANCH  10  11
HETATM   11  C   UNK N   1      26.044  20.250   5.279  0.00  0.00     0.090 C 
BRANCH  11  12
HETATM   12  S   UNK N   1      27.269  21.234   6.188  0.00  0.00    -0.181 SA
HETATM   13  H   UNK N   1      28.211  20.635   6.965  0.00  0.00     0.101 HD
ENDBRANCH  11  12
ENDBRANCH  10  11
ENDBRANCH   7  10
ENDBRANCH   2   4
BRANCH   2  14
HETATM   14  C   UNK N   1      32.259  17.138   6.187  0.00  0.00     0.080 A 
HETATM   15  C   UNK N   1      33.585  17.584   6.241  0.00  0.00     0.027 A 
HETATM   16  C   UNK N   1      34.274  17.592   7.457  0.00  0.00     0.030 A 
HETATM   17  C   UNK N   1      33.641  17.150   8.621  0.00  0.00     0.025 A 
HETATM   18  C   UNK N   1      32.315  16.707   8.570  0.00  0.00     0.030 A 
HETATM   19  C   UNK N   1      31.624  16.697   7.353  0.00  0.00     0.027 A 
BRANCH  17  20
HETATM   20  N   UNK N   1      34.343  17.143   9.843  0.00  0.00    -0.399 N 
HETATM   21  H   UNK N   1      35.204  16.672   9.922  0.00  0.00     0.156 HD
HETATM   22  H   UNK N   1      33.969  17.611  10.623  0.00  0.00     0.156 HD
ENDBRANCH  17  20
ENDBRANCH   2  14
TORSDOF 6
ENDMDL
MODEL 9
REMARK VINA RESULT:      -5.1     16.800     19.014
REMARK  6 active torsions:
REMARK  status: ('A' for Active; 'I' for Inactive)
REMARK    1  A    between atoms: S_2  and  N_4 
REMARK    2  A    between atoms: S_2  and  C_11 
REMARK       I    between atoms: N_4  and  C_5 
REMARK       I    between atoms: C_5  and  N_7 
REMARK    3  A    between atoms: N_7  and  C_8 
REMARK    4  A    between atoms: C_8  and  C_9 
REMARK    5  A    between atoms: C_9  and  S_10 
REMARK    6  A    between atoms: C_14  and  N_15 
ROOT
HETATM    1  O   UNK N   1      21.076  21.112   2.984  0.00  0.00    -0.200 OA
HETATM    2  S   UNK N   1      21.576  19.710   3.363  0.00  0.00     0.266 S 
HETATM    3  O   UNK N   1      20.967  19.553   4.765  0.00  0.00    -0.200 OA
ENDROOT
BRANCH   2   4
HETATM    4  N   UNK N   1      20.642  18.590   2.378  0.00  0.00    -0.232 N 
HETATM    5  C   UNK N   1      20.610  17.255   2.609  0.00  0.00     0.329 C 
HETATM    6  O   UNK N   1      21.204  16.779   3.566  0.00  0.00    -0.246 OA
HETATM    7  N   UNK N   1      19.921  16.454   1.760  0.00  0.00    -0.342 N 
HETATM    8  H   UNK N   1      19.441  16.864   1.004  0.00  0.00     0.164 HD
HETATM    9  H   UNK N   1      20.118  18.949   1.625  0.00  0.00     0.183 HD
BRANCH   7  10
HETATM   10  C   UNK N   1      19.865  15.022   1.926  0.00  0.00     0.134 C 
BRANCH  10  11
HETATM   11  C   UNK N   1      20.858  14.360   0.989  0.00  0.00     0.090 C 
BRANCH  11  12
HETATM   12  S   UNK N   1      22.207  13.623   1.954  0.00  0.00    -0.181 SA
HETATM   13  H   UNK N   1      22.992  12.646   1.427  0.00  0.00     0.101 HD
ENDBRANCH  11  12
ENDBRANCH  10  11
ENDBRANCH   7  10
ENDBRANCH   2   4
BRANCH   2  14
HETATM   14  C   UNK N   1      23.364  19.611   3.426  0.00  0.00     0.080 A 
HETATM   15  C   UNK N   1      23.974  18.633   4.220  0.00  0.00     0.027 A 
HETATM   16  C   UNK N   1      25.367  18.585   4.329  0.00  0.00     0.030 A 
HETATM   17  C   UNK N   1      26.153  19.516   3.647  0.00  0.00     0.025 A 
HETATM   18  C   UNK N   1      25.546  20.493   2.850  0.00  0.00     0.030 A 
HETATM   19  C   UNK N   1      24.152  20.543   2.741  0.00  0.00     0.027 A 
BRANCH  17  20
HETATM   20  N   UNK N   1      27.556  19.476   3.771  0.00  0.00    -0.399 N 
HETATM   21  H   UNK N   1      28.046  20.244   4.145  0.00  0.00     0.156 HD
HETATM   22  H   UNK N   1      28.049  18.675   3.482  0.00  0.00     0.156 HD
ENDBRANCH  17  20
ENDBRANCH   2  14
TORSDOF 6
ENDMDL
