MODEL 1
REMARK VINA RESULT:      -7.1      0.000      0.000
REMARK  8 active torsions:
REMARK  status: ('A' for Active; 'I' for Inactive)
REMARK    1  A    between atoms: C_2  and  O_3 
REMARK    2  A    between atoms: C_4  and  C_2 
REMARK    3  A    between atoms: C_4  and  O_5 
REMARK    4  A    between atoms: C_7  and  O_8 
REMARK    5  A    between atoms: C_9  and  O_10 
REMARK    6  A    between atoms: C_11  and  C_13 
REMARK    7  A    between atoms: C_17  and  S_19 
REMARK    8  A    between atoms: S_19  and  C_20 
ROOT
HETATM    1  C   UNK N   1      20.865  19.685   3.170  0.00  0.00     0.163 C 
HETATM    2  C   UNK N   1      19.693  19.016   2.428  0.00  0.00     0.088 C 
HETATM    3  C   UNK N   1      20.171  17.794   1.659  0.00  0.00     0.155 C 
HETATM    4  C   UNK N   1      20.706  16.733   2.630  0.00  0.00     0.180 C 
HETATM    5  C   UNK N   1      21.606  17.314   3.715  0.00  0.00    -0.017 C 
HETATM    6  C   UNK N   1      21.684  18.651   3.908  0.00  0.00     0.032 C 
ENDROOT
BRANCH   5   7
HETATM    7  C   UNK N   1      22.271  16.415   4.700  0.00  0.00    -0.026 A 
HETATM    8  C   UNK N   1      23.565  16.673   5.177  0.00  0.00     0.012 A 
HETATM    9  C   UNK N   1      24.211  15.749   6.007  0.00  0.00     0.002 A 
HETATM   10  C   UNK N   1      23.586  14.539   6.330  0.00  0.00     0.019 A 
HETATM   11  C   UNK N   1      22.299  14.266   5.855  0.00  0.00     0.006 A 
HETATM   12  C   UNK N   1      21.650  15.214   5.060  0.00  0.00     0.031 A 
BRANCH  11  13
HETATM   13  S   UNK N   1      21.547  12.657   6.190  0.00  0.00    -0.091 SA
BRANCH  13  14
HETATM   14  C   UNK N   1      21.842  12.600   7.970  0.00  0.00     0.005 A 
HETATM   15  C   UNK N   1      21.097  13.429   8.815  0.00  0.00     0.019 A 
HETATM   16  C   UNK N   1      21.289  13.376  10.199  0.00  0.00     0.001 A 
HETATM   17  C   UNK N   1      22.220  12.488  10.743  0.00  0.00     0.000 A 
HETATM   18  C   UNK N   1      22.972  11.660   9.903  0.00  0.00     0.001 A 
HETATM   19  C   UNK N   1      22.790  11.722   8.517  0.00  0.00     0.019 A 
ENDBRANCH  13  14
ENDBRANCH  11  13
ENDBRANCH   5   7
BRANCH   4  20
HETATM   20  O   UNK N   1      21.391  15.766   1.890  0.00  0.00    -0.388 OA
HETATM   21  H   UNK N   1      22.318  15.502   1.776  0.00  0.00     0.210 HD
ENDBRANCH   4  20
BRANCH   3  22
HETATM   22  O   UNK N   1      19.121  17.267   0.906  0.00  0.00    -0.393 OA
HETATM   23  H   UNK N   1      18.202  17.581   0.898  0.00  0.00     0.210 HD
ENDBRANCH   3  22
BRANCH   1  24
HETATM   24  C   UNK N   1      21.740  20.497   2.243  0.00  0.00     0.180 C 
HETATM   25  O   UNK N   1      22.697  21.118   2.700  0.00  0.00    -0.648 OA
BRANCH  24  26
HETATM   26  O   UNK N   1      21.470  20.583   0.929  0.00  0.00    -0.774 OA
HETATM   27  H   UNK N   1      21.258  19.831   0.413  0.00  0.00     0.167 HD
ENDBRANCH  24  26
ENDBRANCH   1  24
BRANCH   1  28
HETATM   28  O   UNK N   1      20.320  20.548   4.119  0.00  0.00    -0.375 OA
HETATM   29  H   UNK N   1      19.466  20.613   4.575  0.00  0.00     0.211 HD
ENDBRANCH   1  28
TORSDOF 8
ENDMDL
MODEL 2
REMARK VINA RESULT:      -7.1      2.719      5.040
REMARK  8 active torsions:
REMARK  status: ('A' for Active; 'I' for Inactive)
REMARK    1  A    between atoms: C_2  and  O_3 
REMARK    2  A    between atoms: C_4  and  C_2 
REMARK    3  A    between atoms: C_4  and  O_5 
REMARK    4  A    between atoms: C_7  and  O_8 
REMARK    5  A    between atoms: C_9  and  O_10 
REMARK    6  A    between atoms: C_11  and  C_13 
REMARK    7  A    between atoms: C_17  and  S_19 
REMARK    8  A    between atoms: S_19  and  C_20 
ROOT
HETATM    1  C   UNK N   1      20.762  19.862   3.136  0.00  0.00     0.163 C 
HETATM    2  C   UNK N   1      19.577  19.058   2.570  0.00  0.00     0.088 C 
HETATM    3  C   UNK N   1      20.072  17.882   1.742  0.00  0.00     0.155 C 
HETATM    4  C   UNK N   1      20.853  16.902   2.627  0.00  0.00     0.180 C 
HETATM    5  C   UNK N   1      21.829  17.595   3.571  0.00  0.00    -0.017 C 
HETATM    6  C   UNK N   1      21.786  18.935   3.749  0.00  0.00     0.032 C 
ENDROOT
BRANCH   5   7
HETATM    7  C   UNK N   1      22.722  16.789   4.451  0.00  0.00    -0.026 A 
HETATM    8  C   UNK N   1      22.261  16.229   5.653  0.00  0.00     0.012 A 
HETATM    9  C   UNK N   1      23.151  15.581   6.518  0.00  0.00     0.002 A 
HETATM   10  C   UNK N   1      24.515  15.529   6.211  0.00  0.00     0.019 A 
HETATM   11  C   UNK N   1      24.988  16.090   5.021  0.00  0.00     0.006 A 
HETATM   12  C   UNK N   1      24.084  16.698   4.147  0.00  0.00     0.031 A 
BRANCH  11  13
HETATM   13  S   UNK N   1      26.765  16.110   4.688  0.00  0.00    -0.091 SA
BRANCH  13  14
HETATM   14  C   UNK N   1      27.059  17.869   4.962  0.00  0.00     0.005 A 
HETATM   15  C   UNK N   1      27.430  18.311   6.235  0.00  0.00     0.019 A 
HETATM   16  C   UNK N   1      27.693  19.666   6.459  0.00  0.00     0.001 A 
HETATM   17  C   UNK N   1      27.595  20.582   5.409  0.00  0.00     0.000 A 
HETATM   18  C   UNK N   1      27.219  20.147   4.135  0.00  0.00     0.001 A 
HETATM   19  C   UNK N   1      26.943  18.793   3.912  0.00  0.00     0.019 A 
ENDBRANCH  13  14
ENDBRANCH  11  13
ENDBRANCH   5   7
BRANCH   4  20
HETATM   20  O   UNK N   1      21.528  16.003   1.797  0.00  0.00    -0.388 OA
HETATM   21  H   UNK N   1      22.316  15.442   1.870  0.00  0.00     0.210 HD
ENDBRANCH   4  20
BRANCH   3  22
HETATM   22  O   UNK N   1      18.989  17.233   1.147  0.00  0.00    -0.393 OA
HETATM   23  H   UNK N   1      18.528  17.502   0.337  0.00  0.00     0.210 HD
ENDBRANCH   3  22
BRANCH   1  24
HETATM   24  C   UNK N   1      21.402  20.749   2.092  0.00  0.00     0.180 C 
HETATM   25  O   UNK N   1      22.610  20.668   1.884  0.00  0.00    -0.648 OA
BRANCH  24  26
HETATM   26  O   UNK N   1      20.679  21.653   1.410  0.00  0.00    -0.774 OA
HETATM   27  H   UNK N   1      21.060  22.204   0.754  0.00  0.00     0.167 HD
ENDBRANCH  24  26
ENDBRANCH   1  24
BRANCH   1  28
HETATM   28  O   UNK N   1      20.267  20.676   4.153  0.00  0.00    -0.375 OA
HETATM   29  H   UNK N   1      19.391  20.830   4.541  0.00  0.00     0.211 HD
ENDBRANCH   1  28
TORSDOF 8
ENDMDL
MODEL 3
REMARK VINA RESULT:      -7.0      4.378      5.560
REMARK  8 active torsions:
REMARK  status: ('A' for Active; 'I' for Inactive)
REMARK    1  A    between atoms: C_2  and  O_3 
REMARK    2  A    between atoms: C_4  and  C_2 
REMARK    3  A    between atoms: C_4  and  O_5 
REMARK    4  A    between atoms: C_7  and  O_8 
REMARK    5  A    between atoms: C_9  and  O_10 
REMARK    6  A    between atoms: C_11  and  C_13 
REMARK    7  A    between atoms: C_17  and  S_19 
REMARK    8  A    between atoms: S_19  and  C_20 
ROOT
HETATM    1  C   UNK N   1      21.470  20.311   2.633  0.00  0.00     0.163 C 
HETATM    2  C   UNK N   1      20.610  19.422   3.551  0.00  0.00     0.088 C 
HETATM    3  C   UNK N   1      21.132  17.994   3.559  0.00  0.00     0.155 C 
HETATM    4  C   UNK N   1      22.548  17.951   4.150  0.00  0.00     0.180 C 
HETATM    5  C   UNK N   1      23.451  19.059   3.619  0.00  0.00    -0.017 C 
HETATM    6  C   UNK N   1      22.939  20.089   2.906  0.00  0.00     0.032 C 
ENDROOT
BRANCH   5   7
HETATM    7  C   UNK N   1      24.882  19.123   4.032  0.00  0.00    -0.026 A 
HETATM    8  C   UNK N   1      25.698  20.214   3.694  0.00  0.00     0.012 A 
HETATM    9  C   UNK N   1      27.066  20.193   3.989  0.00  0.00     0.002 A 
HETATM   10  C   UNK N   1      27.638  19.062   4.583  0.00  0.00     0.019 A 
HETATM   11  C   UNK N   1      26.838  17.965   4.917  0.00  0.00     0.006 A 
HETATM   12  C   UNK N   1      25.467  18.015   4.653  0.00  0.00     0.031 A 
BRANCH  11  13
HETATM   13  S   UNK N   1      27.606  16.470   5.584  0.00  0.00    -0.091 SA
BRANCH  13  14
HETATM   14  C   UNK N   1      28.548  17.238   6.918  0.00  0.00     0.005 A 
HETATM   15  C   UNK N   1      27.867  17.826   7.988  0.00  0.00     0.019 A 
HETATM   16  C   UNK N   1      28.580  18.397   9.046  0.00  0.00     0.001 A 
HETATM   17  C   UNK N   1      29.977  18.374   9.043  0.00  0.00     0.000 A 
HETATM   18  C   UNK N   1      30.664  17.792   7.973  0.00  0.00     0.001 A 
HETATM   19  C   UNK N   1      29.951  17.232   6.908  0.00  0.00     0.019 A 
ENDBRANCH  13  14
ENDBRANCH  11  13
ENDBRANCH   5   7
BRANCH   4  20
HETATM   20  O   UNK N   1      23.100  16.696   3.878  0.00  0.00    -0.388 OA
HETATM   21  H   UNK N   1      23.528  15.995   4.395  0.00  0.00     0.210 HD
ENDBRANCH   4  20
BRANCH   3  22
HETATM   22  O   UNK N   1      20.278  17.181   4.305  0.00  0.00    -0.393 OA
HETATM   23  H   UNK N   1      19.412  16.844   4.026  0.00  0.00     0.210 HD
ENDBRANCH   3  22
BRANCH   1  24
HETATM   24  C   UNK N   1      21.160  20.092   1.170  0.00  0.00     0.180 C 
HETATM   25  O   UNK N   1      21.524  20.923   0.341  0.00  0.00    -0.648 OA
BRANCH  24  26
HETATM   26  O   UNK N   1      20.459  19.021   0.760  0.00  0.00    -0.774 OA
HETATM   27  H   UNK N   1      20.788  18.428   0.114  0.00  0.00     0.167 HD
ENDBRANCH  24  26
ENDBRANCH   1  24
BRANCH   1  28
HETATM   28  O   UNK N   1      21.178  21.638   2.946  0.00  0.00    -0.375 OA
HETATM   29  H   UNK N   1      20.456  22.249   2.732  0.00  0.00     0.211 HD
ENDBRANCH   1  28
TORSDOF 8
ENDMDL
MODEL 4
REMARK VINA RESULT:      -7.0      8.805     11.664
REMARK  8 active torsions:
REMARK  status: ('A' for Active; 'I' for Inactive)
REMARK    1  A    between atoms: C_2  and  O_3 
REMARK    2  A    between atoms: C_4  and  C_2 
REMARK    3  A    between atoms: C_4  and  O_5 
REMARK    4  A    between atoms: C_7  and  O_8 
REMARK    5  A    between atoms: C_9  and  O_10 
REMARK    6  A    between atoms: C_11  and  C_13 
REMARK    7  A    between atoms: C_17  and  S_19 
REMARK    8  A    between atoms: S_19  and  C_20 
ROOT
HETATM    1  C   UNK N   1      34.163  17.443   8.366  0.00  0.00     0.163 C 
HETATM    2  C   UNK N   1      34.689  16.562   7.218  0.00  0.00     0.088 C 
HETATM    3  C   UNK N   1      33.960  15.227   7.188  0.00  0.00     0.155 C 
HETATM    4  C   UNK N   1      32.470  15.445   6.893  0.00  0.00     0.180 C 
HETATM    5  C   UNK N   1      31.863  16.593   7.691  0.00  0.00    -0.017 C 
HETATM    6  C   UNK N   1      32.652  17.454   8.376  0.00  0.00     0.032 C 
ENDROOT
BRANCH   5   7
HETATM    7  C   UNK N   1      30.408  16.897   7.582  0.00  0.00    -0.026 A 
HETATM    8  C   UNK N   1      29.668  17.359   8.682  0.00  0.00     0.012 A 
HETATM    9  C   UNK N   1      28.280  17.520   8.583  0.00  0.00     0.002 A 
HETATM   10  C   UNK N   1      27.617  17.177   7.400  0.00  0.00     0.019 A 
HETATM   11  C   UNK N   1      28.342  16.707   6.300  0.00  0.00     0.006 A 
HETATM   12  C   UNK N   1      29.730  16.589   6.399  0.00  0.00     0.031 A 
BRANCH  11  13
HETATM   13  S   UNK N   1      27.462  16.166   4.816  0.00  0.00    -0.091 SA
BRANCH  13  14
HETATM   14  C   UNK N   1      26.888  17.782   4.253  0.00  0.00     0.005 A 
HETATM   15  C   UNK N   1      25.565  17.928   3.825  0.00  0.00     0.019 A 
HETATM   16  C   UNK N   1      25.093  19.178   3.415  0.00  0.00     0.001 A 
HETATM   17  C   UNK N   1      25.940  20.289   3.441  0.00  0.00     0.000 A 
HETATM   18  C   UNK N   1      27.265  20.149   3.863  0.00  0.00     0.001 A 
HETATM   19  C   UNK N   1      27.742  18.895   4.261  0.00  0.00     0.019 A 
ENDBRANCH  13  14
ENDBRANCH  11  13
ENDBRANCH   5   7
BRANCH   4  20
HETATM   20  O   UNK N   1      31.791  14.252   7.156  0.00  0.00    -0.388 OA
HETATM   21  H   UNK N   1      31.766  13.363   6.768  0.00  0.00     0.210 HD
ENDBRANCH   4  20
BRANCH   3  22
HETATM   22  O   UNK N   1      34.525  14.401   6.215  0.00  0.00    -0.393 OA
HETATM   23  H   UNK N   1      34.391  13.445   6.122  0.00  0.00     0.210 HD
ENDBRANCH   3  22
BRANCH   1  24
HETATM   24  C   UNK N   1      34.702  17.014   9.711  0.00  0.00     0.180 C 
HETATM   25  O   UNK N   1      35.683  17.584  10.183  0.00  0.00    -0.648 OA
BRANCH  24  26
HETATM   26  O   UNK N   1      34.150  15.992  10.389  0.00  0.00    -0.774 OA
HETATM   27  H   UNK N   1      33.793  15.242   9.956  0.00  0.00     0.167 HD
ENDBRANCH  24  26
ENDBRANCH   1  24
BRANCH   1  28
HETATM   28  O   UNK N   1      34.592  18.747   8.122  0.00  0.00    -0.375 OA
HETATM   29  H   UNK N   1      35.456  19.184   8.069  0.00  0.00     0.211 HD
ENDBRANCH   1  28
TORSDOF 8
ENDMDL
MODEL 5
REMARK VINA RESULT:      -6.9     12.525     14.456
REMARK  8 active torsions:
REMARK  status: ('A' for Active; 'I' for Inactive)
REMARK    1  A    between atoms: C_2  and  O_3 
REMARK    2  A    between atoms: C_4  and  C_2 
REMARK    3  A    between atoms: C_4  and  O_5 
REMARK    4  A    between atoms: C_7  and  O_8 
REMARK    5  A    between atoms: C_9  and  O_10 
REMARK    6  A    between atoms: C_11  and  C_13 
REMARK    7  A    between atoms: C_17  and  S_19 
REMARK    8  A    between atoms: S_19  and  C_20 
ROOT
HETATM    1  C   UNK N   1      34.272  17.425   7.795  0.00  0.00     0.163 C 
HETATM    2  C   UNK N   1      32.897  17.592   8.468  0.00  0.00     0.088 C 
HETATM    3  C   UNK N   1      32.240  16.238   8.691  0.00  0.00     0.155 C 
HETATM    4  C   UNK N   1      33.078  15.397   9.664  0.00  0.00     0.180 C 
HETATM    5  C   UNK N   1      34.572  15.446   9.363  0.00  0.00    -0.017 C 
HETATM    6  C   UNK N   1      35.074  16.347   8.487  0.00  0.00     0.032 C 
ENDROOT
BRANCH   5   7
HETATM    7  C   UNK N   1      35.526  14.628  10.165  0.00  0.00    -0.026 A 
HETATM    8  C   UNK N   1      36.247  13.567   9.594  0.00  0.00     0.012 A 
HETATM    9  C   UNK N   1      37.043  12.741  10.397  0.00  0.00     0.002 A 
HETATM   10  C   UNK N   1      37.088  12.940  11.782  0.00  0.00     0.019 A 
HETATM   11  C   UNK N   1      36.369  13.989  12.363  0.00  0.00     0.006 A 
HETATM   12  C   UNK N   1      35.610  14.830  11.546  0.00  0.00     0.031 A 
BRANCH  11  13
HETATM   13  S   UNK N   1      36.350  14.169  14.161  0.00  0.00    -0.091 SA
BRANCH  13  14
HETATM   14  C   UNK N   1      35.695  12.539  14.577  0.00  0.00     0.005 A 
HETATM   15  C   UNK N   1      36.429  11.702  15.424  0.00  0.00     0.019 A 
HETATM   16  C   UNK N   1      35.922  10.449  15.782  0.00  0.00     0.001 A 
HETATM   17  C   UNK N   1      34.677  10.033  15.305  0.00  0.00     0.000 A 
HETATM   18  C   UNK N   1      33.942  10.864  14.454  0.00  0.00     0.001 A 
HETATM   19  C   UNK N   1      34.453  12.113  14.084  0.00  0.00     0.019 A 
ENDBRANCH  13  14
ENDBRANCH  11  13
ENDBRANCH   5   7
BRANCH   4  20
HETATM   20  O   UNK N   1      32.612  14.080   9.619  0.00  0.00    -0.388 OA
HETATM   21  H   UNK N   1      32.398  13.393  10.270  0.00  0.00     0.210 HD
ENDBRANCH   4  20
BRANCH   3  22
HETATM   22  O   UNK N   1      30.952  16.414   9.198  0.00  0.00    -0.393 OA
HETATM   23  H   UNK N   1      30.714  16.864  10.024  0.00  0.00     0.210 HD
ENDBRANCH   3  22
BRANCH   1  24
HETATM   24  C   UNK N   1      34.155  17.136   6.316  0.00  0.00     0.180 C 
HETATM   25  O   UNK N   1      34.731  16.161   5.840  0.00  0.00    -0.648 OA
BRANCH  24  26
HETATM   26  O   UNK N   1      33.458  17.948   5.502  0.00  0.00    -0.774 OA
HETATM   27  H   UNK N   1      33.879  18.529   4.898  0.00  0.00     0.167 HD
ENDBRANCH  24  26
ENDBRANCH   1  24
BRANCH   1  28
HETATM   28  O   UNK N   1      34.961  18.627   7.949  0.00  0.00    -0.375 OA
HETATM   29  H   UNK N   1      34.722  19.566   7.888  0.00  0.00     0.211 HD
ENDBRANCH   1  28
TORSDOF 8
ENDMDL
MODEL 6
REMARK VINA RESULT:      -6.8     16.552     18.529
REMARK  8 active torsions:
REMARK  status: ('A' for Active; 'I' for Inactive)
REMARK    1  A    between atoms: C_2  and  O_3 
REMARK    2  A    between atoms: C_4  and  C_2 
REMARK    3  A    between atoms: C_4  and  O_5 
REMARK    4  A    between atoms: C_7  and  O_8 
REMARK    5  A    between atoms: C_9  and  O_10 
REMARK    6  A    between atoms: C_11  and  C_13 
REMARK    7  A    between atoms: C_17  and  S_19 
REMARK    8  A    between atoms: S_19  and  C_20 
ROOT
HETATM    1  C   UNK N   1      35.437  13.074  12.800  0.00  0.00     0.163 C 
HETATM    2  C   UNK N   1      35.661  11.625  12.329  0.00  0.00     0.088 C 
HETATM    3  C   UNK N   1      36.825  10.991  13.075  0.00  0.00     0.155 C 
HETATM    4  C   UNK N   1      36.505  10.895  14.573  0.00  0.00     0.180 C 
HETATM    5  C   UNK N   1      35.881  12.168  15.134  0.00  0.00    -0.017 C 
HETATM    6  C   UNK N   1      35.444  13.147  14.309  0.00  0.00     0.032 C 
ENDROOT
BRANCH   5   7
HETATM    7  C   UNK N   1      35.573  12.275  16.589  0.00  0.00    -0.026 A 
HETATM    8  C   UNK N   1      35.310  13.512  17.197  0.00  0.00     0.012 A 
HETATM    9  C   UNK N   1      35.145  13.597  18.584  0.00  0.00     0.002 A 
HETATM   10  C   UNK N   1      35.286  12.454  19.379  0.00  0.00     0.019 A 
HETATM   11  C   UNK N   1      35.555  11.217  18.787  0.00  0.00     0.006 A 
HETATM   12  C   UNK N   1      35.679  11.138  17.397  0.00  0.00     0.031 A 
BRANCH  11  13
HETATM   13  S   UNK N   1      35.841   9.770  19.832  0.00  0.00    -0.091 SA
BRANCH  13  14
HETATM   14  C   UNK N   1      34.123   9.410  20.249  0.00  0.00     0.005 A 
HETATM   15  C   UNK N   1      33.584   9.924  21.433  0.00  0.00     0.019 A 
HETATM   16  C   UNK N   1      32.245   9.682  21.758  0.00  0.00     0.001 A 
HETATM   17  C   UNK N   1      31.439   8.934  20.896  0.00  0.00     0.000 A 
HETATM   18  C   UNK N   1      31.974   8.414  19.714  0.00  0.00     0.001 A 
HETATM   19  C   UNK N   1      33.317   8.644  19.394  0.00  0.00     0.019 A 
ENDBRANCH  13  14
ENDBRANCH  11  13
ENDBRANCH   5   7
BRANCH   4  20
HETATM   20  O   UNK N   1      37.684  10.585  15.255  0.00  0.00    -0.388 OA
HETATM   21  H   UNK N   1      38.184   9.777  15.454  0.00  0.00     0.210 HD
ENDBRANCH   4  20
BRANCH   3  22
HETATM   22  O   UNK N   1      37.084   9.721  12.559  0.00  0.00    -0.393 OA
HETATM   23  H   UNK N   1      37.848   9.461  12.020  0.00  0.00     0.210 HD
ENDBRANCH   3  22
BRANCH   1  24
HETATM   24  C   UNK N   1      36.452  14.029  12.214  0.00  0.00     0.180 C 
HETATM   25  O   UNK N   1      36.229  15.237  12.231  0.00  0.00    -0.648 OA
BRANCH  24  26
HETATM   26  O   UNK N   1      37.581  13.579  11.640  0.00  0.00    -0.774 OA
HETATM   27  H   UNK N   1      38.420  13.683  12.042  0.00  0.00     0.167 HD
ENDBRANCH  24  26
ENDBRANCH   1  24
BRANCH   1  28
HETATM   28  O   UNK N   1      34.172  13.463  12.364  0.00  0.00    -0.375 OA
HETATM   29  H   UNK N   1      33.794  14.279  12.000  0.00  0.00     0.211 HD
ENDBRANCH   1  28
TORSDOF 8
ENDMDL
MODEL 7
REMARK VINA RESULT:      -6.7      9.398     12.259
REMARK  8 active torsions:
REMARK  status: ('A' for Active; 'I' for Inactive)
REMARK    1  A    between atoms: C_2  and  O_3 
REMARK    2  A    between atoms: C_4  and  C_2 
REMARK    3  A    between atoms: C_4  and  O_5 
REMARK    4  A    between atoms: C_7  and  O_8 
REMARK    5  A    between atoms: C_9  and  O_10 
REMARK    6  A    between atoms: C_11  and  C_13 
REMARK    7  A    between atoms: C_17  and  S_19 
REMARK    8  A    between atoms: S_19  and  C_20 
ROOT
HETATM    1  C   UNK N   1      33.759  15.604   9.235  0.00  0.00     0.163 C 
HETATM    2  C   UNK N   1      34.108  17.090   9.442  0.00  0.00     0.088 C 
HETATM    3  C   UNK N   1      34.610  17.709   8.147  0.00  0.00     0.155 C 
HETATM    4  C   UNK N   1      33.502  17.687   7.085  0.00  0.00     0.180 C 
HETATM    5  C   UNK N   1      32.761  16.357   7.021  0.00  0.00    -0.017 C 
HETATM    6  C   UNK N   1      32.927  15.424   7.987  0.00  0.00     0.032 C 
ENDROOT
BRANCH   5   7
HETATM    7  C   UNK N   1      31.701  16.136   5.996  0.00  0.00    -0.026 A 
HETATM    8  C   UNK N   1      32.010  16.011   4.633  0.00  0.00     0.012 A 
HETATM    9  C   UNK N   1      30.987  15.926   3.681  0.00  0.00     0.002 A 
HETATM   10  C   UNK N   1      29.648  16.012   4.079  0.00  0.00     0.019 A 
HETATM   11  C   UNK N   1      29.327  16.144   5.434  0.00  0.00     0.006 A 
HETATM   12  C   UNK N   1      30.357  16.188   6.378  0.00  0.00     0.031 A 
BRANCH  11  13
HETATM   13  S   UNK N   1      27.601  16.361   5.925  0.00  0.00    -0.091 SA
BRANCH  13  14
HETATM   14  C   UNK N   1      27.494  18.150   5.707  0.00  0.00     0.005 A 
HETATM   15  C   UNK N   1      27.751  18.989   6.796  0.00  0.00     0.019 A 
HETATM   16  C   UNK N   1      27.704  20.377   6.638  0.00  0.00     0.001 A 
HETATM   17  C   UNK N   1      27.410  20.932   5.390  0.00  0.00     0.000 A 
HETATM   18  C   UNK N   1      27.148  20.098   4.299  0.00  0.00     0.001 A 
HETATM   19  C   UNK N   1      27.181  18.708   4.458  0.00  0.00     0.019 A 
ENDBRANCH  13  14
ENDBRANCH  11  13
ENDBRANCH   5   7
BRANCH   4  20
HETATM   20  O   UNK N   1      34.075  17.989   5.846  0.00  0.00    -0.388 OA
HETATM   21  H   UNK N   1      34.100  18.760   5.258  0.00  0.00     0.210 HD
ENDBRANCH   4  20
BRANCH   3  22
HETATM   22  O   UNK N   1      35.025  19.021   8.378  0.00  0.00    -0.393 OA
HETATM   23  H   UNK N   1      34.496  19.733   8.773  0.00  0.00     0.210 HD
ENDBRANCH   3  22
BRANCH   1  24
HETATM   24  C   UNK N   1      34.991  14.729   9.188  0.00  0.00     0.180 C 
HETATM   25  O   UNK N   1      35.833  14.817  10.077  0.00  0.00    -0.648 OA
BRANCH  24  26
HETATM   26  O   UNK N   1      35.201  13.879   8.168  0.00  0.00    -0.774 OA
HETATM   27  H   UNK N   1      36.037  13.793   7.754  0.00  0.00     0.167 HD
ENDBRANCH  24  26
ENDBRANCH   1  24
BRANCH   1  28
HETATM   28  O   UNK N   1      32.983  15.203  10.322  0.00  0.00    -0.375 OA
HETATM   29  H   UNK N   1      32.242  15.590  10.813  0.00  0.00     0.211 HD
ENDBRANCH   1  28
TORSDOF 8
ENDMDL
MODEL 8
REMARK VINA RESULT:      -6.7     12.721     14.753
REMARK  8 active torsions:
REMARK  status: ('A' for Active; 'I' for Inactive)
REMARK    1  A    between atoms: C_2  and  O_3 
REMARK    2  A    between atoms: C_4  and  C_2 
REMARK    3  A    between atoms: C_4  and  O_5 
REMARK    4  A    between atoms: C_7  and  O_8 
REMARK    5  A    between atoms: C_9  and  O_10 
REMARK    6  A    between atoms: C_11  and  C_13 
REMARK    7  A    between atoms: C_17  and  S_19 
REMARK    8  A    between atoms: S_19  and  C_20 
ROOT
HETATM    1  C   UNK N   1      33.088  15.913   7.691  0.00  0.00     0.163 C 
HETATM    2  C   UNK N   1      33.870  17.197   7.357  0.00  0.00     0.088 C 
HETATM    3  C   UNK N   1      34.330  17.892   8.629  0.00  0.00     0.155 C 
HETATM    4  C   UNK N   1      35.312  16.996   9.397  0.00  0.00     0.180 C 
HETATM    5  C   UNK N   1      34.858  15.543   9.479  0.00  0.00    -0.017 C 
HETATM    6  C   UNK N   1      33.827  15.095   8.724  0.00  0.00     0.032 C 
ENDROOT
BRANCH   5   7
HETATM    7  C   UNK N   1      35.657  14.549  10.251  0.00  0.00    -0.026 A 
HETATM    8  C   UNK N   1      36.958  14.190   9.864  0.00  0.00     0.012 A 
HETATM    9  C   UNK N   1      37.638  13.167  10.536  0.00  0.00     0.002 A 
HETATM   10  C   UNK N   1      37.006  12.464  11.568  0.00  0.00     0.019 A 
HETATM   11  C   UNK N   1      35.707  12.807  11.957  0.00  0.00     0.006 A 
HETATM   12  C   UNK N   1      35.054  13.856  11.305  0.00  0.00     0.031 A 
BRANCH  11  13
HETATM   13  S   UNK N   1      34.864  11.822  13.217  0.00  0.00    -0.091 SA
BRANCH  13  14
HETATM   14  C   UNK N   1      35.328  12.800  14.661  0.00  0.00     0.005 A 
HETATM   15  C   UNK N   1      34.575  12.688  15.834  0.00  0.00     0.019 A 
HETATM   16  C   UNK N   1      34.937  13.414  16.973  0.00  0.00     0.001 A 
HETATM   17  C   UNK N   1      36.059  14.246  16.946  0.00  0.00     0.000 A 
HETATM   18  C   UNK N   1      36.812  14.366  15.774  0.00  0.00     0.001 A 
HETATM   19  C   UNK N   1      36.443  13.651  14.630  0.00  0.00     0.019 A 
ENDBRANCH  13  14
ENDBRANCH  11  13
ENDBRANCH   5   7
BRANCH   4  20
HETATM   20  O   UNK N   1      35.484  17.529  10.677  0.00  0.00    -0.388 OA
HETATM   21  H   UNK N   1      35.970  18.275  11.063  0.00  0.00     0.210 HD
ENDBRANCH   4  20
BRANCH   3  22
HETATM   22  O   UNK N   1      34.938  19.107   8.312  0.00  0.00    -0.393 OA
HETATM   23  H   UNK N   1      34.955  19.534   7.441  0.00  0.00     0.210 HD
ENDBRANCH   3  22
BRANCH   1  24
HETATM   24  C   UNK N   1      31.677  16.204   8.150  0.00  0.00     0.180 C 
HETATM   25  O   UNK N   1      30.820  16.508   7.324  0.00  0.00    -0.648 OA
BRANCH  24  26
HETATM   26  O   UNK N   1      31.350  16.173   9.453  0.00  0.00    -0.774 OA
HETATM   27  H   UNK N   1      31.921  16.501  10.119  0.00  0.00     0.167 HD
ENDBRANCH  24  26
ENDBRANCH   1  24
BRANCH   1  28
HETATM   28  O   UNK N   1      33.016  15.153   6.524  0.00  0.00    -0.375 OA
HETATM   29  H   UNK N   1      33.647  14.623   6.012  0.00  0.00     0.211 HD
ENDBRANCH   1  28
TORSDOF 8
ENDMDL
MODEL 9
REMARK VINA RESULT:      -6.6     14.207     16.827
REMARK  8 active torsions:
REMARK  status: ('A' for Active; 'I' for Inactive)
REMARK    1  A    between atoms: C_2  and  O_3 
REMARK    2  A    between atoms: C_4  and  C_2 
REMARK    3  A    between atoms: C_4  and  O_5 
REMARK    4  A    between atoms: C_7  and  O_8 
REMARK    5  A    between atoms: C_9  and  O_10 
REMARK    6  A    between atoms: C_11  and  C_13 
REMARK    7  A    between atoms: C_17  and  S_19 
REMARK    8  A    between atoms: S_19  and  C_20 
ROOT
HETATM    1  C   UNK N   1      30.953  22.787  -2.966  0.00  0.00     0.163 C 
HETATM    2  C   UNK N   1      31.864  23.969  -3.344  0.00  0.00     0.088 C 
HETATM    3  C   UNK N   1      32.082  24.020  -4.848  0.00  0.00     0.155 C 
HETATM    4  C   UNK N   1      30.750  24.277  -5.567  0.00  0.00     0.180 C 
HETATM    5  C   UNK N   1      29.604  23.435  -5.021  0.00  0.00    -0.017 C 
HETATM    6  C   UNK N   1      29.739  22.745  -3.865  0.00  0.00     0.032 C 
ENDROOT
BRANCH   5   7
HETATM    7  C   UNK N   1      28.254  23.504  -5.652  0.00  0.00    -0.026 A 
HETATM    8  C   UNK N   1      27.863  22.603  -6.654  0.00  0.00     0.012 A 
HETATM    9  C   UNK N   1      26.638  22.767  -7.313  0.00  0.00     0.002 A 
HETATM   10  C   UNK N   1      25.817  23.858  -7.007  0.00  0.00     0.019 A 
HETATM   11  C   UNK N   1      26.199  24.767  -6.016  0.00  0.00     0.006 A 
HETATM   12  C   UNK N   1      27.405  24.571  -5.339  0.00  0.00     0.031 A 
BRANCH  11  13
HETATM   13  S   UNK N   1      25.183  26.229  -5.706  0.00  0.00    -0.091 SA
BRANCH  13  14
HETATM   14  C   UNK N   1      26.426  27.488  -6.064  0.00  0.00     0.005 A 
HETATM   15  C   UNK N   1      26.617  28.538  -5.160  0.00  0.00     0.019 A 
HETATM   16  C   UNK N   1      27.597  29.505  -5.404  0.00  0.00     0.001 A 
HETATM   17  C   UNK N   1      28.396  29.420  -6.547  0.00  0.00     0.000 A 
HETATM   18  C   UNK N   1      28.207  28.375  -7.456  0.00  0.00     0.001 A 
HETATM   19  C   UNK N   1      27.217  27.415  -7.220  0.00  0.00     0.019 A 
ENDBRANCH  13  14
ENDBRANCH  11  13
ENDBRANCH   5   7
BRANCH   4  20
HETATM   20  O   UNK N   1      30.933  24.032  -6.931  0.00  0.00    -0.388 OA
HETATM   21  H   UNK N   1      31.131  24.566  -7.716  0.00  0.00     0.210 HD
ENDBRANCH   4  20
BRANCH   3  22
HETATM   22  O   UNK N   1      32.996  25.027  -5.161  0.00  0.00    -0.393 OA
HETATM   23  H   UNK N   1      33.594  25.476  -4.543  0.00  0.00     0.210 HD
ENDBRANCH   3  22
BRANCH   1  24
HETATM   24  C   UNK N   1      31.687  21.466  -2.996  0.00  0.00     0.180 C 
HETATM   25  O   UNK N   1      31.393  20.628  -3.845  0.00  0.00    -0.648 OA
BRANCH  24  26
HETATM   26  O   UNK N   1      32.633  21.174  -2.088  0.00  0.00    -0.774 OA
HETATM   27  H   UNK N   1      32.457  20.641  -1.338  0.00  0.00     0.167 HD
ENDBRANCH  24  26
ENDBRANCH   1  24
BRANCH   1  28
HETATM   28  O   UNK N   1      30.506  23.005  -1.664  0.00  0.00    -0.375 OA
HETATM   29  H   UNK N   1      30.132  22.446  -0.965  0.00  0.00     0.211 HD
ENDBRANCH   1  28
TORSDOF 8
ENDMDL
