REMARK  6 active torsions:
REMARK  status: ('A' for Active; 'I' for Inactive)
REMARK    1  A    between atoms: C_3  and  N_4 
REMARK    2  A    between atoms: C_3  and  C_5 
REMARK    3  A    between atoms: C_7  and  C_11 
REMARK    4  A    between atoms: C_11  and  N_12 
REMARK    5  A    between atoms: N_16  and  S_19 
REMARK    6  A    between atoms: S_19  and  C_22 
ROOT
HETATM    1  N   UNK N   1      -1.700   1.320  -1.261  0.00  0.00    -0.346 N 
HETATM    2  C   UNK N   1      -1.501   1.920  -0.059  0.00  0.00     0.234 C 
HETATM    3  O   UNK N   1      -2.447   2.258   0.641  0.00  0.00    -0.272 OA
HETATM    4  C   UNK N   1      -0.089   2.121   0.423  0.00  0.00     0.210 C 
HETATM    5  N   UNK N   1       0.800   0.981   0.089  0.00  0.00    -0.196 NA
HETATM    6  C   UNK N   1       0.366   0.138  -1.047  0.00  0.00     0.128 C 
HETATM    7  C   UNK N   1      -0.543   0.896  -2.008  0.00  0.00     0.141 C 
ENDROOT
BRANCH   1   8
HETATM    8  C   UNK N   1      -3.015   0.969  -1.744  0.00  0.00     0.164 C 
BRANCH   8   9
HETATM    9  C   UNK N   1      -3.478  -0.293  -1.087  0.00  0.00    -0.039 A 
HETATM   10  C   UNK N   1      -4.727  -0.347  -0.462  0.00  0.00     0.024 A 
HETATM   11  C   UNK N   1      -5.160  -1.533   0.152  0.00  0.00     0.007 A 
HETATM   12  C   UNK N   1      -4.322  -2.658   0.145  0.00  0.00     0.015 A 
HETATM   13  C   UNK N   1      -3.074  -2.605  -0.478  0.00  0.00     0.002 A 
HETATM   14  C   UNK N   1      -2.658  -1.429  -1.100  0.00  0.00     0.009 A 
BRANCH  11  15
HETATM   15  C   UNK N   1      -6.493  -1.600   0.787  0.00  0.00     0.102 C 
HETATM   16  N   UNK N   1      -6.894  -2.686   1.340  0.00  0.00    -0.385 N 
HETATM   17  H   UNK N   1      -7.770  -2.836   1.765  0.00  0.00     0.157 HD
ATOM     18  HN  UNK N   1      -6.242  -3.470   1.340  1.00  0.00     0.157 HD
BRANCH  15  19
HETATM   19  N   UNK N   1      -7.351  -0.477   0.763  0.00  0.00    -0.385 N 
HETATM   20  H   UNK N   1      -6.973   0.432   0.745  0.00  0.00     0.157 HD
HETATM   21  H   UNK N   1      -8.328  -0.603   0.763  0.00  0.00     0.157 HD
ENDBRANCH  15  19
ENDBRANCH  11  15
ENDBRANCH   8   9
ENDBRANCH   1   8
BRANCH   5  22
HETATM   22  S   UNK N   1       0.968  -0.029   1.539  0.00  0.00     0.250 S 
HETATM   23  O   UNK N   1       1.315  -1.482   1.175  0.00  0.00    -0.205 OA
HETATM   24  O   UNK N   1       1.913   0.471   2.644  0.00  0.00    -0.205 OA
BRANCH  22  25
HETATM   25  C   UNK N   1       2.720   0.194   0.884  0.00  0.00     0.116 A 
HETATM   26  C   UNK N   1       3.731  -0.802   0.745  0.00  0.00     0.045 A 
HETATM   27  C   UNK N   1       4.987  -0.267   0.350  0.00  0.00    -0.017 A 
HETATM   28  C   UNK N   1       4.994   1.113   0.188  0.00  0.00     0.018 A 
HETATM   29  C   UNK N   1       6.157  -0.999   0.157  0.00  0.00     0.014 A 
HETATM   30  S   UNK N   1       3.481   1.669   0.528  0.00  0.00    -0.076 SA
HETATM   31  C   UNK N   1       6.138   1.819  -0.165  0.00  0.00     0.043 A 
HETATM   32  C   UNK N   1       7.323   1.091  -0.358  0.00  0.00     0.035 A 
HETATM   33 Cl   UNK N   1       8.800   1.932  -0.772  0.00  0.00    -0.084 Cl
HETATM   34  C   UNK N   1       7.332  -0.311  -0.198  0.00  0.00     0.024 A 
ENDBRANCH  22  25
ENDBRANCH   5  22
TORSDOF 6
