MODEL 1
REMARK VINA RESULT:      -8.1      0.000      0.000
REMARK  6 active torsions:
REMARK  status: ('A' for Active; 'I' for Inactive)
REMARK    1  A    between atoms: C_3  and  N_4 
REMARK    2  A    between atoms: C_3  and  C_5 
REMARK    3  A    between atoms: C_7  and  C_11 
REMARK    4  A    between atoms: C_11  and  N_12 
REMARK    5  A    between atoms: N_16  and  S_19 
REMARK    6  A    between atoms: S_19  and  C_22 
ROOT
HETATM    1  N   UNK N   1      33.203  15.873   8.074  0.00  0.00    -0.346 N 
HETATM    2  C   UNK N   1      32.907  14.593   8.420  0.00  0.00     0.234 C 
HETATM    3  O   UNK N   1      32.321  13.850   7.643  0.00  0.00    -0.272 OA
HETATM    4  C   UNK N   1      33.355  14.086   9.764  0.00  0.00     0.210 C 
HETATM    5  N   UNK N   1      34.696  14.590  10.150  0.00  0.00    -0.196 NA
HETATM    6  C   UNK N   1      35.128  15.842   9.489  0.00  0.00     0.128 C 
HETATM    7  C   UNK N   1      33.944  16.676   9.013  0.00  0.00     0.141 C 
ENDROOT
BRANCH   1   8
HETATM    8  C   UNK N   1      32.929  16.404   6.759  0.00  0.00     0.164 C 
BRANCH   8   9
HETATM    9  C   UNK N   1      31.530  16.932   6.705  0.00  0.00    -0.039 A 
HETATM   10  C   UNK N   1      30.897  17.375   7.870  0.00  0.00     0.024 A 
HETATM   11  C   UNK N   1      29.585  17.873   7.816  0.00  0.00     0.007 A 
HETATM   12  C   UNK N   1      28.911  17.907   6.586  0.00  0.00     0.015 A 
HETATM   13  C   UNK N   1      29.542  17.464   5.423  0.00  0.00     0.002 A 
HETATM   14  C   UNK N   1      30.851  16.987   5.481  0.00  0.00     0.009 A 
BRANCH  11  15
HETATM   15  C   UNK N   1      28.926  18.369   9.042  0.00  0.00     0.102 C 
HETATM   16  N   UNK N   1      27.659  18.570   9.061  0.00  0.00    -0.385 N 
HETATM   17  H   UNK N   1      27.134  18.920   9.818  0.00  0.00     0.157 HD
ATOM     18  HN  UNK N   1      27.144  18.343   8.210  1.00  0.00     0.157 HD
BRANCH  15  19
HETATM   19  N   UNK N   1      29.690  18.657  10.196  0.00  0.00    -0.385 N 
HETATM   20  H   UNK N   1      29.278  18.599  11.088  0.00  0.00     0.157 HD
HETATM   21  H   UNK N   1      30.636  18.916  10.108  0.00  0.00     0.157 HD
ENDBRANCH  15  19
ENDBRANCH  11  15
ENDBRANCH   8   9
ENDBRANCH   1   8
BRANCH   5  22
HETATM   22  S   UNK N   1      35.881  13.311   9.818  0.00  0.00     0.250 S 
HETATM   23  O   UNK N   1      37.306  13.754  10.192  0.00  0.00    -0.205 OA
HETATM   24  O   UNK N   1      35.599  11.917  10.401  0.00  0.00    -0.205 OA
BRANCH  22  25
HETATM   25  C   UNK N   1      35.735  13.377  11.695  0.00  0.00     0.116 A 
HETATM   26  C   UNK N   1      36.436  14.235  12.593  0.00  0.00     0.045 A 
HETATM   27  C   UNK N   1      36.193  13.926  13.959  0.00  0.00    -0.017 A 
HETATM   28  C   UNK N   1      35.337  12.850  14.158  0.00  0.00     0.018 A 
HETATM   29  C   UNK N   1      36.757  14.582  15.052  0.00  0.00     0.014 A 
HETATM   30  S   UNK N   1      34.887  12.283  12.678  0.00  0.00    -0.076 SA
HETATM   31  C   UNK N   1      35.006  12.381  15.423  0.00  0.00     0.043 A 
HETATM   32  C   UNK N   1      35.572  13.032  16.531  0.00  0.00     0.035 A 
HETATM   33 Cl   UNK N   1      35.215  12.463  18.147  0.00  0.00    -0.084 Cl
HETATM   34  C   UNK N   1      36.442  14.127  16.346  0.00  0.00     0.024 A 
ENDBRANCH  22  25
ENDBRANCH   5  22
TORSDOF 6
ENDMDL
MODEL 2
REMARK VINA RESULT:      -8.0      1.488      1.765
REMARK  6 active torsions:
REMARK  status: ('A' for Active; 'I' for Inactive)
REMARK    1  A    between atoms: C_3  and  N_4 
REMARK    2  A    between atoms: C_3  and  C_5 
REMARK    3  A    between atoms: C_7  and  C_11 
REMARK    4  A    between atoms: C_11  and  N_12 
REMARK    5  A    between atoms: N_16  and  S_19 
REMARK    6  A    between atoms: S_19  and  C_22 
ROOT
HETATM    1  N   UNK N   1      33.372  15.932   7.830  0.00  0.00    -0.346 N 
HETATM    2  C   UNK N   1      34.387  15.194   7.312  0.00  0.00     0.234 C 
HETATM    3  O   UNK N   1      34.859  15.454   6.212  0.00  0.00    -0.272 OA
HETATM    4  C   UNK N   1      34.959  14.072   8.137  0.00  0.00     0.210 C 
HETATM    5  N   UNK N   1      35.043  14.405   9.580  0.00  0.00    -0.196 NA
HETATM    6  C   UNK N   1      34.129  15.470  10.049  0.00  0.00     0.128 C 
HETATM    7  C   UNK N   1      32.903  15.607   9.153  0.00  0.00     0.141 C 
ENDROOT
BRANCH   1   8
HETATM    8  C   UNK N   1      32.851  17.106   7.168  0.00  0.00     0.164 C 
BRANCH   8   9
HETATM    9  C   UNK N   1      31.387  16.936   6.910  0.00  0.00    -0.039 A 
HETATM   10  C   UNK N   1      30.456  17.748   7.563  0.00  0.00     0.024 A 
HETATM   11  C   UNK N   1      29.083  17.588   7.318  0.00  0.00     0.007 A 
HETATM   12  C   UNK N   1      28.654  16.596   6.423  0.00  0.00     0.015 A 
HETATM   13  C   UNK N   1      29.583  15.783   5.771  0.00  0.00     0.002 A 
HETATM   14  C   UNK N   1      30.945  15.960   6.008  0.00  0.00     0.009 A 
BRANCH  11  15
HETATM   15  C   UNK N   1      28.099  18.466   7.985  0.00  0.00     0.102 C 
HETATM   16  N   UNK N   1      27.820  18.303   9.226  0.00  0.00    -0.385 N 
HETATM   17  H   UNK N   1      27.164  18.818   9.751  0.00  0.00     0.157 HD
ATOM     18  HN  UNK N   1      28.328  17.568   9.719  1.00  0.00     0.157 HD
BRANCH  15  19
HETATM   19  N   UNK N   1      27.432  19.475   7.252  0.00  0.00    -0.385 N 
HETATM   20  H   UNK N   1      27.003  20.225   7.724  0.00  0.00     0.157 HD
HETATM   21  H   UNK N   1      27.397  19.428   6.269  0.00  0.00     0.157 HD
ENDBRANCH  15  19
ENDBRANCH  11  15
ENDBRANCH   8   9
ENDBRANCH   1   8
BRANCH   5  22
HETATM   22  S   UNK N   1      36.718  14.869   9.940  0.00  0.00     0.250 S 
HETATM   23  O   UNK N   1      36.776  16.022  10.956  0.00  0.00    -0.205 OA
HETATM   24  O   UNK N   1      37.687  13.753  10.364  0.00  0.00    -0.205 OA
BRANCH  22  25
HETATM   25  C   UNK N   1      36.104  13.989  11.488  0.00  0.00     0.116 A 
HETATM   26  C   UNK N   1      36.177  14.446  12.837  0.00  0.00     0.045 A 
HETATM   27  C   UNK N   1      35.745  13.472  13.777  0.00  0.00    -0.017 A 
HETATM   28  C   UNK N   1      35.350  12.267  13.210  0.00  0.00     0.018 A 
HETATM   29  C   UNK N   1      35.726  13.632  15.161  0.00  0.00     0.014 A 
HETATM   30  S   UNK N   1      35.530  12.394  11.578  0.00  0.00    -0.076 SA
HETATM   31  C   UNK N   1      34.926  11.185  13.972  0.00  0.00     0.043 A 
HETATM   32  C   UNK N   1      34.907  11.335  15.368  0.00  0.00     0.035 A 
HETATM   33 Cl   UNK N   1      34.413   9.994  16.378  0.00  0.00    -0.084 Cl
HETATM   34  C   UNK N   1      35.305  12.553  15.960  0.00  0.00     0.024 A 
ENDBRANCH  22  25
ENDBRANCH   5  22
TORSDOF 6
ENDMDL
MODEL 3
REMARK VINA RESULT:      -7.9      3.899      8.978
REMARK  6 active torsions:
REMARK  status: ('A' for Active; 'I' for Inactive)
REMARK    1  A    between atoms: C_3  and  N_4 
REMARK    2  A    between atoms: C_3  and  C_5 
REMARK    3  A    between atoms: C_7  and  C_11 
REMARK    4  A    between atoms: C_11  and  N_12 
REMARK    5  A    between atoms: N_16  and  S_19 
REMARK    6  A    between atoms: S_19  and  C_22 
ROOT
HETATM    1  N   UNK N   1      35.221  14.504  10.539  0.00  0.00    -0.346 N 
HETATM    2  C   UNK N   1      35.648  15.779  10.341  0.00  0.00     0.234 C 
HETATM    3  O   UNK N   1      36.795  16.109  10.614  0.00  0.00    -0.272 OA
HETATM    4  C   UNK N   1      34.695  16.773   9.732  0.00  0.00     0.210 C 
HETATM    5  N   UNK N   1      33.846  16.179   8.670  0.00  0.00    -0.196 NA
HETATM    6  C   UNK N   1      33.670  14.712   8.733  0.00  0.00     0.128 C 
HETATM    7  C   UNK N   1      33.877  14.169  10.143  0.00  0.00     0.141 C 
ENDROOT
BRANCH   1   8
HETATM    8  C   UNK N   1      36.102  13.454  10.994  0.00  0.00     0.164 C 
BRANCH   8   9
HETATM    9  C   UNK N   1      35.741  13.058  12.391  0.00  0.00    -0.039 A 
HETATM   10  C   UNK N   1      36.244  13.775  13.480  0.00  0.00     0.024 A 
HETATM   11  C   UNK N   1      35.903  13.403  14.790  0.00  0.00     0.007 A 
HETATM   12  C   UNK N   1      35.065  12.297  14.996  0.00  0.00     0.015 A 
HETATM   13  C   UNK N   1      34.563  11.580  13.909  0.00  0.00     0.002 A 
HETATM   14  C   UNK N   1      34.893  11.965  12.611  0.00  0.00     0.009 A 
BRANCH  11  15
HETATM   15  C   UNK N   1      36.411  14.179  15.942  0.00  0.00     0.102 C 
HETATM   16  N   UNK N   1      35.889  14.031  17.104  0.00  0.00    -0.385 N 
HETATM   17  H   UNK N   1      36.139  14.517  17.923  0.00  0.00     0.157 HD
ATOM     18  HN  UNK N   1      35.142  13.342  17.188  1.00  0.00     0.157 HD
BRANCH  15  19
HETATM   19  N   UNK N   1      37.455  15.115  15.765  0.00  0.00    -0.385 N 
HETATM   20  H   UNK N   1      37.316  16.060  16.004  0.00  0.00     0.157 HD
HETATM   21  H   UNK N   1      38.324  14.822  15.405  0.00  0.00     0.157 HD
ENDBRANCH  15  19
ENDBRANCH  11  15
ENDBRANCH   8   9
ENDBRANCH   1   8
BRANCH   5  22
HETATM   22  S   UNK N   1      34.542  16.621   7.098  0.00  0.00     0.250 S 
HETATM   23  O   UNK N   1      34.275  15.537   6.041  0.00  0.00    -0.205 OA
HETATM   24  O   UNK N   1      34.183  18.003   6.529  0.00  0.00    -0.205 OA
BRANCH  22  25
HETATM   25  C   UNK N   1      32.679  16.805   6.886  0.00  0.00     0.116 A 
HETATM   26  C   UNK N   1      31.775  17.529   7.717  0.00  0.00     0.045 A 
HETATM   27  C   UNK N   1      30.414  17.344   7.351  0.00  0.00    -0.017 A 
HETATM   28  C   UNK N   1      30.225  16.492   6.269  0.00  0.00     0.018 A 
HETATM   29  C   UNK N   1      29.316  17.911   7.995  0.00  0.00     0.014 A 
HETATM   30  S   UNK N   1      31.706  15.970   5.773  0.00  0.00    -0.076 SA
HETATM   31  C   UNK N   1      28.963  16.167   5.786  0.00  0.00     0.043 A 
HETATM   32  C   UNK N   1      27.850  16.729   6.430  0.00  0.00     0.035 A 
HETATM   33 Cl   UNK N   1      26.237  16.328   5.883  0.00  0.00    -0.084 Cl
HETATM   34  C   UNK N   1      28.026  17.597   7.529  0.00  0.00     0.024 A 
ENDBRANCH  22  25
ENDBRANCH   5  22
TORSDOF 6
ENDMDL
MODEL 4
REMARK VINA RESULT:      -7.8      4.175      9.523
REMARK  6 active torsions:
REMARK  status: ('A' for Active; 'I' for Inactive)
REMARK    1  A    between atoms: C_3  and  N_4 
REMARK    2  A    between atoms: C_3  and  C_5 
REMARK    3  A    between atoms: C_7  and  C_11 
REMARK    4  A    between atoms: C_11  and  N_12 
REMARK    5  A    between atoms: N_16  and  S_19 
REMARK    6  A    between atoms: S_19  and  C_22 
ROOT
HETATM    1  N   UNK N   1      36.426  12.271  13.744  0.00  0.00    -0.346 N 
HETATM    2  C   UNK N   1      36.246  13.617  13.762  0.00  0.00     0.234 C 
HETATM    3  O   UNK N   1      36.711  14.303  14.663  0.00  0.00    -0.272 OA
HETATM    4  C   UNK N   1      35.503  14.262  12.623  0.00  0.00     0.210 C 
HETATM    5  N   UNK N   1      35.816  13.646  11.310  0.00  0.00    -0.196 NA
HETATM    6  C   UNK N   1      36.331  12.259  11.356  0.00  0.00     0.128 C 
HETATM    7  C   UNK N   1      35.901  11.531  12.625  0.00  0.00     0.141 C 
ENDROOT
BRANCH   1   8
HETATM    8  C   UNK N   1      37.235  11.584  14.723  0.00  0.00     0.164 C 
BRANCH   8   9
HETATM    9  C   UNK N   1      36.372  11.086  15.839  0.00  0.00    -0.039 A 
HETATM   10  C   UNK N   1      36.197  11.854  16.993  0.00  0.00     0.024 A 
HETATM   11  C   UNK N   1      35.384  11.386  18.038  0.00  0.00     0.007 A 
HETATM   12  C   UNK N   1      34.761  10.134  17.918  0.00  0.00     0.015 A 
HETATM   13  C   UNK N   1      34.936   9.366  16.766  0.00  0.00     0.002 A 
HETATM   14  C   UNK N   1      35.731   9.845  15.726  0.00  0.00     0.009 A 
BRANCH  11  15
HETATM   15  C   UNK N   1      35.175  12.210  19.247  0.00  0.00     0.102 C 
HETATM   16  N   UNK N   1      35.190  13.491  19.169  0.00  0.00    -0.385 N 
HETATM   17  H   UNK N   1      35.086  14.123  19.917  0.00  0.00     0.157 HD
ATOM     18  HN  UNK N   1      35.324  13.893  18.242  1.00  0.00     0.157 HD
BRANCH  15  19
HETATM   19  N   UNK N   1      34.986  11.595  20.505  0.00  0.00    -0.385 N 
HETATM   20  H   UNK N   1      35.575  11.826  21.260  0.00  0.00     0.157 HD
HETATM   21  H   UNK N   1      34.265  10.935  20.628  0.00  0.00     0.157 HD
ENDBRANCH  15  19
ENDBRANCH  11  15
ENDBRANCH   8   9
ENDBRANCH   1   8
BRANCH   5  22
HETATM   22  S   UNK N   1      36.996  14.683  10.483  0.00  0.00     0.250 S 
HETATM   23  O   UNK N   1      37.259  14.200   9.047  0.00  0.00    -0.205 OA
HETATM   24  O   UNK N   1      36.729  16.197  10.483  0.00  0.00    -0.205 OA
BRANCH  22  25
HETATM   25  C   UNK N   1      35.338  15.080   9.681  0.00  0.00     0.116 A 
HETATM   26  C   UNK N   1      34.571  14.250   8.811  0.00  0.00     0.045 A 
HETATM   27  C   UNK N   1      33.434  14.912   8.272  0.00  0.00    -0.017 A 
HETATM   28  C   UNK N   1      33.295  16.232   8.682  0.00  0.00     0.018 A 
HETATM   29  C   UNK N   1      32.518  14.357   7.381  0.00  0.00     0.014 A 
HETATM   30  S   UNK N   1      34.551  16.584   9.689  0.00  0.00    -0.076 SA
HETATM   31  C   UNK N   1      32.263  17.049   8.236  0.00  0.00     0.043 A 
HETATM   32  C   UNK N   1      31.337  16.501   7.335  0.00  0.00     0.035 A 
HETATM   33 Cl   UNK N   1      30.036  17.493   6.716  0.00  0.00    -0.084 Cl
HETATM   34  C   UNK N   1      31.464  15.161   6.910  0.00  0.00     0.024 A 
ENDBRANCH  22  25
ENDBRANCH   5  22
TORSDOF 6
ENDMDL
MODEL 5
REMARK VINA RESULT:      -7.5      3.927      9.108
REMARK  6 active torsions:
REMARK  status: ('A' for Active; 'I' for Inactive)
REMARK    1  A    between atoms: C_3  and  N_4 
REMARK    2  A    between atoms: C_3  and  C_5 
REMARK    3  A    between atoms: C_7  and  C_11 
REMARK    4  A    between atoms: C_11  and  N_12 
REMARK    5  A    between atoms: N_16  and  S_19 
REMARK    6  A    between atoms: S_19  and  C_22 
ROOT
HETATM    1  N   UNK N   1      35.508  14.534  10.520  0.00  0.00    -0.346 N 
HETATM    2  C   UNK N   1      35.695  15.869  10.359  0.00  0.00     0.234 C 
HETATM    3  O   UNK N   1      36.747  16.402  10.690  0.00  0.00    -0.272 OA
HETATM    4  C   UNK N   1      34.600  16.680   9.721  0.00  0.00     0.210 C 
HETATM    5  N   UNK N   1      33.924  15.962   8.612  0.00  0.00    -0.196 NA
HETATM    6  C   UNK N   1      34.025  14.486   8.647  0.00  0.00     0.128 C 
HETATM    7  C   UNK N   1      34.269  13.961  10.057  0.00  0.00     0.141 C 
ENDROOT
BRANCH   1   8
HETATM    8  C   UNK N   1      36.550  13.657  11.001  0.00  0.00     0.164 C 
BRANCH   8   9
HETATM    9  C   UNK N   1      36.223  13.190  12.384  0.00  0.00    -0.039 A 
HETATM   10  C   UNK N   1      35.860  11.860  12.613  0.00  0.00     0.024 A 
HETATM   11  C   UNK N   1      35.555  11.424  13.913  0.00  0.00     0.007 A 
HETATM   12  C   UNK N   1      35.605  12.338  14.976  0.00  0.00     0.015 A 
HETATM   13  C   UNK N   1      35.967  13.666  14.748  0.00  0.00     0.002 A 
HETATM   14  C   UNK N   1      36.284  14.088  13.458  0.00  0.00     0.009 A 
BRANCH  11  15
HETATM   15  C   UNK N   1      35.200  10.010  14.160  0.00  0.00     0.102 C 
HETATM   16  N   UNK N   1      34.910   9.234  13.181  0.00  0.00    -0.385 N 
HETATM   17  H   UNK N   1      34.638   8.289  13.246  0.00  0.00     0.157 HD
ATOM     18  HN  UNK N   1      34.967   9.633  12.245  1.00  0.00     0.157 HD
BRANCH  15  19
HETATM   19  N   UNK N   1      35.145   9.510  15.481  0.00  0.00    -0.385 N 
HETATM   20  H   UNK N   1      35.656   9.953  16.197  0.00  0.00     0.157 HD
HETATM   21  H   UNK N   1      34.595   8.719  15.687  0.00  0.00     0.157 HD
ENDBRANCH  15  19
ENDBRANCH  11  15
ENDBRANCH   8   9
ENDBRANCH   1   8
BRANCH   5  22
HETATM   22  S   UNK N   1      34.591  16.560   7.080  0.00  0.00     0.250 S 
HETATM   23  O   UNK N   1      34.327  15.576   5.929  0.00  0.00    -0.205 OA
HETATM   24  O   UNK N   1      34.203  17.984   6.648  0.00  0.00    -0.205 OA
BRANCH  22  25
HETATM   25  C   UNK N   1      32.723  16.732   6.909  0.00  0.00     0.116 A 
HETATM   26  C   UNK N   1      31.838  17.482   7.737  0.00  0.00     0.045 A 
HETATM   27  C   UNK N   1      30.469  17.282   7.411  0.00  0.00    -0.017 A 
HETATM   28  C   UNK N   1      30.256  16.392   6.365  0.00  0.00     0.018 A 
HETATM   29  C   UNK N   1      29.385  17.867   8.063  0.00  0.00     0.014 A 
HETATM   30  S   UNK N   1      31.726  15.856   5.850  0.00  0.00    -0.076 SA
HETATM   31  C   UNK N   1      28.983  16.046   5.925  0.00  0.00     0.043 A 
HETATM   32  C   UNK N   1      27.884  16.628   6.577  0.00  0.00     0.035 A 
HETATM   33 Cl   UNK N   1      26.260  16.204   6.086  0.00  0.00    -0.084 Cl
HETATM   34  C   UNK N   1      28.085  17.534   7.641  0.00  0.00     0.024 A 
ENDBRANCH  22  25
ENDBRANCH   5  22
TORSDOF 6
ENDMDL
MODEL 6
REMARK VINA RESULT:      -7.5      1.385      1.969
REMARK  6 active torsions:
REMARK  status: ('A' for Active; 'I' for Inactive)
REMARK    1  A    between atoms: C_3  and  N_4 
REMARK    2  A    between atoms: C_3  and  C_5 
REMARK    3  A    between atoms: C_7  and  C_11 
REMARK    4  A    between atoms: C_11  and  N_12 
REMARK    5  A    between atoms: N_16  and  S_19 
REMARK    6  A    between atoms: S_19  and  C_22 
ROOT
HETATM    1  N   UNK N   1      32.778  16.325   8.167  0.00  0.00    -0.346 N 
HETATM    2  C   UNK N   1      32.654  15.027   8.546  0.00  0.00     0.234 C 
HETATM    3  O   UNK N   1      31.981  14.240   7.891  0.00  0.00    -0.272 OA
HETATM    4  C   UNK N   1      33.399  14.556   9.766  0.00  0.00     0.210 C 
HETATM    5  N   UNK N   1      34.749  15.161   9.884  0.00  0.00    -0.196 NA
HETATM    6  C   UNK N   1      34.945  16.441   9.169  0.00  0.00     0.128 C 
HETATM    7  C   UNK N   1      33.630  17.182   8.951  0.00  0.00     0.141 C 
ENDROOT
BRANCH   1   8
HETATM    8  C   UNK N   1      32.207  16.833   6.942  0.00  0.00     0.164 C 
BRANCH   8   9
HETATM    9  C   UNK N   1      30.831  17.359   7.202  0.00  0.00    -0.039 A 
HETATM   10  C   UNK N   1      29.863  17.336   6.194  0.00  0.00     0.024 A 
HETATM   11  C   UNK N   1      28.572  17.828   6.441  0.00  0.00     0.007 A 
HETATM   12  C   UNK N   1      28.266  18.357   7.704  0.00  0.00     0.015 A 
HETATM   13  C   UNK N   1      29.232  18.383   8.711  0.00  0.00     0.002 A 
HETATM   14  C   UNK N   1      30.507  17.876   8.463  0.00  0.00     0.009 A 
BRANCH  11  15
HETATM   15  C   UNK N   1      27.539  17.776   5.385  0.00  0.00     0.102 C 
HETATM   16  N   UNK N   1      27.876  17.786   4.147  0.00  0.00    -0.385 N 
HETATM   17  H   UNK N   1      27.264  17.779   3.375  0.00  0.00     0.157 HD
ATOM     18  HN  UNK N   1      28.875  17.801   3.943  1.00  0.00     0.157 HD
BRANCH  15  19
HETATM   19  N   UNK N   1      26.168  17.747   5.729  0.00  0.00    -0.385 N 
HETATM   20  H   UNK N   1      25.893  17.865   6.667  0.00  0.00     0.157 HD
HETATM   21  H   UNK N   1      25.487  17.610   5.031  0.00  0.00     0.157 HD
ENDBRANCH  15  19
ENDBRANCH  11  15
ENDBRANCH   8   9
ENDBRANCH   1   8
BRANCH   5  22
HETATM   22  S   UNK N   1      35.936  13.976   9.302  0.00  0.00     0.250 S 
HETATM   23  O   UNK N   1      37.362  14.345   9.743  0.00  0.00    -0.205 OA
HETATM   24  O   UNK N   1      35.664  12.494   9.607  0.00  0.00    -0.205 OA
BRANCH  22  25
HETATM   25  C   UNK N   1      35.806  13.678  11.157  0.00  0.00     0.116 A 
HETATM   26  C   UNK N   1      36.316  14.495  12.209  0.00  0.00     0.045 A 
HETATM   27  C   UNK N   1      36.165  13.905  13.493  0.00  0.00    -0.017 A 
HETATM   28  C   UNK N   1      35.566  12.652  13.479  0.00  0.00     0.018 A 
HETATM   29  C   UNK N   1      36.589  14.464  14.698  0.00  0.00     0.014 A 
HETATM   30  S   UNK N   1      35.229  12.271  11.912  0.00  0.00    -0.076 SA
HETATM   31  C   UNK N   1      35.362  11.907  14.635  0.00  0.00     0.043 A 
HETATM   32  C   UNK N   1      35.789  12.460  15.853  0.00  0.00     0.035 A 
HETATM   33 Cl   UNK N   1      35.586  11.552  17.335  0.00  0.00    -0.084 Cl
HETATM   34  C   UNK N   1      36.398  13.732  15.884  0.00  0.00     0.024 A 
ENDBRANCH  22  25
ENDBRANCH   5  22
TORSDOF 6
ENDMDL
MODEL 7
REMARK VINA RESULT:      -7.3      4.249      9.412
REMARK  6 active torsions:
REMARK  status: ('A' for Active; 'I' for Inactive)
REMARK    1  A    between atoms: C_3  and  N_4 
REMARK    2  A    between atoms: C_3  and  C_5 
REMARK    3  A    between atoms: C_7  and  C_11 
REMARK    4  A    between atoms: C_11  and  N_12 
REMARK    5  A    between atoms: N_16  and  S_19 
REMARK    6  A    between atoms: S_19  and  C_22 
ROOT
HETATM    1  N   UNK N   1      36.147  14.463   9.456  0.00  0.00    -0.346 N 
HETATM    2  C   UNK N   1      35.628  15.451  10.230  0.00  0.00     0.234 C 
HETATM    3  O   UNK N   1      36.263  15.916  11.168  0.00  0.00    -0.272 OA
HETATM    4  C   UNK N   1      34.271  16.002   9.883  0.00  0.00     0.210 C 
HETATM    5  N   UNK N   1      34.052  16.114   8.420  0.00  0.00    -0.196 NA
HETATM    6  C   UNK N   1      34.890  15.235   7.575  0.00  0.00     0.128 C 
HETATM    7  C   UNK N   1      35.371  14.002   8.333  0.00  0.00     0.141 C 
ENDROOT
BRANCH   1   8
HETATM    8  C   UNK N   1      37.492  13.966   9.632  0.00  0.00     0.164 C 
BRANCH   8   9
HETATM    9  C   UNK N   1      37.468  12.719  10.458  0.00  0.00    -0.039 A 
HETATM   10  C   UNK N   1      37.489  12.796  11.854  0.00  0.00     0.024 A 
HETATM   11  C   UNK N   1      37.464  11.624  12.627  0.00  0.00     0.007 A 
HETATM   12  C   UNK N   1      37.434  10.376  11.987  0.00  0.00     0.015 A 
HETATM   13  C   UNK N   1      37.414  10.298  10.593  0.00  0.00     0.002 A 
HETATM   14  C   UNK N   1      37.421  11.466   9.832  0.00  0.00     0.009 A 
BRANCH  11  15
HETATM   15  C   UNK N   1      37.456  11.705  14.103  0.00  0.00     0.102 C 
HETATM   16  N   UNK N   1      37.413  12.845  14.690  0.00  0.00    -0.385 N 
HETATM   17  H   UNK N   1      37.429  13.003  15.662  0.00  0.00     0.157 HD
ATOM     18  HN  UNK N   1      37.357  13.669  14.091  1.00  0.00     0.157 HD
BRANCH  15  19
HETATM   19  N   UNK N   1      37.527  10.528  14.882  0.00  0.00    -0.385 N 
HETATM   20  H   UNK N   1      38.257   9.883  14.736  0.00  0.00     0.157 HD
HETATM   21  H   UNK N   1      36.847  10.351  15.572  0.00  0.00     0.157 HD
ENDBRANCH  15  19
ENDBRANCH  11  15
ENDBRANCH   8   9
ENDBRANCH   1   8
BRANCH   5  22
HETATM   22  S   UNK N   1      34.318  17.806   7.952  0.00  0.00     0.250 S 
HETATM   23  O   UNK N   1      34.558  17.939   6.439  0.00  0.00    -0.205 OA
HETATM   24  O   UNK N   1      33.274  18.839   8.407  0.00  0.00    -0.205 OA
BRANCH  22  25
HETATM   25  C   UNK N   1      32.606  17.373   7.297  0.00  0.00     0.116 A 
HETATM   26  C   UNK N   1      32.210  17.207   5.937  0.00  0.00     0.045 A 
HETATM   27  C   UNK N   1      30.809  17.021   5.786  0.00  0.00    -0.017 A 
HETATM   28  C   UNK N   1      30.097  17.049   6.979  0.00  0.00     0.018 A 
HETATM   29  C   UNK N   1      30.138  16.854   4.576  0.00  0.00     0.014 A 
HETATM   30  S   UNK N   1      31.171  17.301   8.202  0.00  0.00    -0.076 SA
HETATM   31  C   UNK N   1      28.714  16.915   7.029  0.00  0.00     0.043 A 
HETATM   32  C   UNK N   1      28.029  16.750   5.814  0.00  0.00     0.035 A 
HETATM   33 Cl   UNK N   1      26.285  16.610   5.815  0.00  0.00    -0.084 Cl
HETATM   34  C   UNK N   1      28.737  16.720   4.594  0.00  0.00     0.024 A 
ENDBRANCH  22  25
ENDBRANCH   5  22
TORSDOF 6
ENDMDL
MODEL 8
REMARK VINA RESULT:      -7.3      7.010      9.950
REMARK  6 active torsions:
REMARK  status: ('A' for Active; 'I' for Inactive)
REMARK    1  A    between atoms: C_3  and  N_4 
REMARK    2  A    between atoms: C_3  and  C_5 
REMARK    3  A    between atoms: C_7  and  C_11 
REMARK    4  A    between atoms: C_11  and  N_12 
REMARK    5  A    between atoms: N_16  and  S_19 
REMARK    6  A    between atoms: S_19  and  C_22 
ROOT
HETATM    1  N   UNK N   1      24.676  12.984   6.392  0.00  0.00    -0.346 N 
HETATM    2  C   UNK N   1      25.462  12.956   5.285  0.00  0.00     0.234 C 
HETATM    3  O   UNK N   1      25.096  12.383   4.266  0.00  0.00    -0.272 OA
HETATM    4  C   UNK N   1      26.778  13.686   5.314  0.00  0.00     0.210 C 
HETATM    5  N   UNK N   1      26.706  14.972   6.050  0.00  0.00    -0.196 NA
HETATM    6  C   UNK N   1      25.610  15.088   7.037  0.00  0.00     0.128 C 
HETATM    7  C   UNK N   1      25.143  13.725   7.537  0.00  0.00     0.141 C 
ENDROOT
BRANCH   1   8
HETATM    8  C   UNK N   1      23.345  12.425   6.413  0.00  0.00     0.164 C 
BRANCH   8   9
HETATM    9  C   UNK N   1      22.573  12.993   7.562  0.00  0.00    -0.039 A 
HETATM   10  C   UNK N   1      22.479  12.289   8.766  0.00  0.00     0.024 A 
HETATM   11  C   UNK N   1      21.755  12.825   9.843  0.00  0.00     0.007 A 
HETATM   12  C   UNK N   1      21.116  14.065   9.695  0.00  0.00     0.015 A 
HETATM   13  C   UNK N   1      21.209  14.768   8.493  0.00  0.00     0.002 A 
HETATM   14  C   UNK N   1      21.943  14.237   7.433  0.00  0.00     0.009 A 
BRANCH  11  15
HETATM   15  C   UNK N   1      21.680  12.096  11.126  0.00  0.00     0.102 C 
HETATM   16  N   UNK N   1      20.560  11.979  11.741  0.00  0.00    -0.385 N 
HETATM   17  H   UNK N   1      20.413  11.536  12.609  0.00  0.00     0.157 HD
ATOM     18  HN  UNK N   1      19.742  12.384  11.287  1.00  0.00     0.157 HD
BRANCH  15  19
HETATM   19  N   UNK N   1      22.848  11.548  11.704  0.00  0.00    -0.385 N 
HETATM   20  H   UNK N   1      23.688  12.061  11.699  0.00  0.00     0.157 HD
HETATM   21  H   UNK N   1      22.821  10.652  12.114  0.00  0.00     0.157 HD
ENDBRANCH  15  19
ENDBRANCH  11  15
ENDBRANCH   8   9
ENDBRANCH   1   8
BRANCH   5  22
HETATM   22  S   UNK N   1      26.564  16.281   4.859  0.00  0.00     0.250 S 
HETATM   23  O   UNK N   1      26.337  17.640   5.541  0.00  0.00    -0.205 OA
HETATM   24  O   UNK N   1      27.679  16.405   3.808  0.00  0.00    -0.205 OA
BRANCH  22  25
HETATM   25  C   UNK N   1      28.242  16.534   5.677  0.00  0.00     0.116 A 
HETATM   26  C   UNK N   1      28.507  17.063   6.975  0.00  0.00     0.045 A 
HETATM   27  C   UNK N   1      29.893  17.250   7.225  0.00  0.00    -0.017 A 
HETATM   28  C   UNK N   1      30.718  16.897   6.164  0.00  0.00     0.018 A 
HETATM   29  C   UNK N   1      30.444  17.767   8.396  0.00  0.00     0.014 A 
HETATM   30  S   UNK N   1      29.759  16.367   4.934  0.00  0.00    -0.076 SA
HETATM   31  C   UNK N   1      32.100  17.039   6.211  0.00  0.00     0.043 A 
HETATM   32  C   UNK N   1      32.664  17.563   7.385  0.00  0.00     0.035 A 
HETATM   33 Cl   UNK N   1      34.395  17.793   7.487  0.00  0.00    -0.084 Cl
HETATM   34  C   UNK N   1      31.840  17.925   8.472  0.00  0.00     0.024 A 
ENDBRANCH  22  25
ENDBRANCH   5  22
TORSDOF 6
ENDMDL
MODEL 9
REMARK VINA RESULT:      -7.3      1.918      2.647
REMARK  6 active torsions:
REMARK  status: ('A' for Active; 'I' for Inactive)
REMARK    1  A    between atoms: C_3  and  N_4 
REMARK    2  A    between atoms: C_3  and  C_5 
REMARK    3  A    between atoms: C_7  and  C_11 
REMARK    4  A    between atoms: C_11  and  N_12 
REMARK    5  A    between atoms: N_16  and  S_19 
REMARK    6  A    between atoms: S_19  and  C_22 
ROOT
HETATM    1  N   UNK N   1      33.909  13.070   7.741  0.00  0.00    -0.346 N 
HETATM    2  C   UNK N   1      35.146  12.608   7.423  0.00  0.00     0.234 C 
HETATM    3  O   UNK N   1      35.544  12.615   6.265  0.00  0.00    -0.272 OA
HETATM    4  C   UNK N   1      36.044  12.126   8.532  0.00  0.00     0.210 C 
HETATM    5  N   UNK N   1      35.933  12.951   9.760  0.00  0.00    -0.196 NA
HETATM    6  C   UNK N   1      34.675  13.714   9.911  0.00  0.00     0.128 C 
HETATM    7  C   UNK N   1      33.526  13.086   9.130  0.00  0.00     0.141 C 
ENDROOT
BRANCH   1   8
HETATM    8  C   UNK N   1      33.032  13.671   6.764  0.00  0.00     0.164 C 
BRANCH   8   9
HETATM    9  C   UNK N   1      32.920  15.141   7.017  0.00  0.00    -0.039 A 
HETATM   10  C   UNK N   1      31.730  15.684   7.511  0.00  0.00     0.024 A 
HETATM   11  C   UNK N   1      31.628  17.064   7.749  0.00  0.00     0.007 A 
HETATM   12  C   UNK N   1      32.725  17.894   7.474  0.00  0.00     0.015 A 
HETATM   13  C   UNK N   1      33.913  17.353   6.980  0.00  0.00     0.002 A 
HETATM   14  C   UNK N   1      34.013  15.980   6.761  0.00  0.00     0.009 A 
BRANCH  11  15
HETATM   15  C   UNK N   1      30.381  17.635   8.300  0.00  0.00     0.102 C 
HETATM   16  N   UNK N   1      29.257  17.413   7.724  0.00  0.00    -0.385 N 
HETATM   17  H   UNK N   1      28.379  17.767   7.999  0.00  0.00     0.157 HD
ATOM     18  HN  UNK N   1      29.272  16.810   6.902  1.00  0.00     0.157 HD
BRANCH  15  19
HETATM   19  N   UNK N   1      30.420  18.458   9.449  0.00  0.00    -0.385 N 
HETATM   20  H   UNK N   1      30.813  19.359   9.396  0.00  0.00     0.157 HD
HETATM   21  H   UNK N   1      30.053  18.131  10.302  0.00  0.00     0.157 HD
ENDBRANCH  15  19
ENDBRANCH  11  15
ENDBRANCH   8   9
ENDBRANCH   1   8
BRANCH   5  22
HETATM   22  S   UNK N   1      37.308  14.073   9.795  0.00  0.00     0.250 S 
HETATM   23  O   UNK N   1      36.925  15.412  10.447  0.00  0.00    -0.205 OA
HETATM   24  O   UNK N   1      38.626  13.559  10.398  0.00  0.00    -0.205 OA
BRANCH  22  25
HETATM   25  C   UNK N   1      37.069  13.525  11.582  0.00  0.00     0.116 A 
HETATM   26  C   UNK N   1      37.371  12.252  12.150  0.00  0.00     0.045 A 
HETATM   27  C   UNK N   1      36.937  12.128  13.497  0.00  0.00    -0.017 A 
HETATM   28  C   UNK N   1      36.295  13.255  13.996  0.00  0.00     0.018 A 
HETATM   29  C   UNK N   1      37.078  10.994  14.295  0.00  0.00     0.014 A 
HETATM   30  S   UNK N   1      36.259  14.387  12.799  0.00  0.00    -0.076 SA
HETATM   31  C   UNK N   1      35.774  13.311  15.283  0.00  0.00     0.043 A 
HETATM   32  C   UNK N   1      35.908  12.172  16.093  0.00  0.00     0.035 A 
HETATM   33 Cl   UNK N   1      35.241  12.176  17.711  0.00  0.00    -0.084 Cl
HETATM   34  C   UNK N   1      36.557  11.020  15.602  0.00  0.00     0.024 A 
ENDBRANCH  22  25
ENDBRANCH   5  22
TORSDOF 6
ENDMDL
