MODEL 1
REMARK VINA RESULT:      -8.7      0.000      0.000
REMARK  5 active torsions:
REMARK  status: ('A' for Active; 'I' for Inactive)
REMARK    1  A    between atoms: C_10  and  C_11 
REMARK    2  A    between atoms: C_11  and  N_12 
REMARK    3  A    between atoms: N_16  and  S_19 
REMARK    4  A    between atoms: S_19  and  C_22 
REMARK    5  A    between atoms: C_23  and  C_24 
ROOT
HETATM    1  N   UNK N   1      34.829  15.794   9.292  0.00  0.00    -0.344 N 
HETATM    2  C   UNK N   1      35.295  16.358  10.432  0.00  0.00     0.234 C 
HETATM    3  O   UNK N   1      35.532  17.561  10.491  0.00  0.00    -0.272 OA
HETATM    4  C   UNK N   1      35.567  15.469  11.603  0.00  0.00     0.210 C 
HETATM    5  N   UNK N   1      36.303  14.253  11.175  0.00  0.00    -0.197 NA
HETATM    6  C   UNK N   1      35.855  13.693   9.869  0.00  0.00     0.128 C 
HETATM    7  C   UNK N   1      34.604  14.365   9.302  0.00  0.00     0.141 C 
ENDROOT
BRANCH   1   8
HETATM    8  C   UNK N   1      34.662  16.554   8.075  0.00  0.00     0.182 C 
BRANCH   8   9
HETATM    9  C   UNK N   1      33.241  17.002   7.948  0.00  0.00     0.028 A 
HETATM   10  N   UNK N   1      32.606  17.742   8.887  0.00  0.00    -0.357 N 
HETATM   11  C   UNK N   1      31.341  17.845   8.453  0.00  0.00     0.045 A 
HETATM   12  H   UNK N   1      32.989  18.121   9.710  0.00  0.00     0.166 HD
HETATM   13  C   UNK N   1      31.170  17.181   7.275  0.00  0.00     0.008 A 
HETATM   14  C   UNK N   1      30.288  18.505   9.076  0.00  0.00     0.047 A 
HETATM   15  C   UNK N   1      29.930  17.131   6.655  0.00  0.00     0.101 A 
HETATM   16  C   UNK N   1      32.376  16.630   6.917  0.00  0.00     0.041 A 
HETATM   17  N   UNK N   1      28.882  17.772   7.256  0.00  0.00    -0.374 N 
HETATM   18  C   UNK N   1      29.035  18.454   8.437  0.00  0.00     0.090 A 
ATOM     19  HN  UNK N   1      27.964  17.743   6.814  1.00  0.00     0.164 HD
ENDBRANCH   8   9
ENDBRANCH   1   8
BRANCH   5  20
HETATM   20  S   UNK N   1      36.099  13.009  12.440  0.00  0.00     0.234 S 
HETATM   21  O   UNK N   1      36.251  14.339  13.203  0.00  0.00    -0.207 OA
HETATM   22  O   UNK N   1      34.571  13.146  12.331  0.00  0.00    -0.207 OA
BRANCH  20  23
HETATM   23  C   UNK N   1      35.909  13.073  14.216  0.00  0.00     0.127 C 
HETATM   24  C   UNK N   1      35.894  11.990  14.998  0.00  0.00     0.031 C 
BRANCH  24  25
HETATM   25  C   UNK N   1      35.613  12.160  16.426  0.00  0.00     0.007 A 
HETATM   26  C   UNK N   1      35.375  13.365  17.092  0.00  0.00     0.021 A 
HETATM   27  C   UNK N   1      35.183  13.191  18.496  0.00  0.00     0.033 A 
HETATM   28  C   UNK N   1      35.280  11.854  18.899  0.00  0.00     0.075 A 
HETATM   29 Cl   UNK N   1      35.114  11.230  20.524  0.00  0.00    -0.076 Cl
HETATM   30  S   UNK N   1      35.589  10.950  17.559  0.00  0.00    -0.078 SA
ENDBRANCH  24  25
ENDBRANCH  20  23
ENDBRANCH   5  20
TORSDOF 5
ENDMDL
MODEL 2
REMARK VINA RESULT:      -8.6      4.979      9.920
REMARK  5 active torsions:
REMARK  status: ('A' for Active; 'I' for Inactive)
REMARK    1  A    between atoms: C_10  and  C_11 
REMARK    2  A    between atoms: C_11  and  N_12 
REMARK    3  A    between atoms: N_16  and  S_19 
REMARK    4  A    between atoms: S_19  and  C_22 
REMARK    5  A    between atoms: C_23  and  C_24 
ROOT
HETATM    1  N   UNK N   1      35.692  15.156   9.602  0.00  0.00    -0.344 N 
HETATM    2  C   UNK N   1      35.176  16.395   9.772  0.00  0.00     0.234 C 
HETATM    3  O   UNK N   1      35.678  17.187  10.564  0.00  0.00    -0.272 OA
HETATM    4  C   UNK N   1      33.940  16.758   9.011  0.00  0.00     0.210 C 
HETATM    5  N   UNK N   1      32.942  15.663   9.083  0.00  0.00    -0.197 NA
HETATM    6  C   UNK N   1      33.526  14.295   8.997  0.00  0.00     0.128 C 
HETATM    7  C   UNK N   1      35.020  14.277   8.669  0.00  0.00     0.141 C 
ENDROOT
BRANCH   1   8
HETATM    8  C   UNK N   1      36.804  14.674  10.390  0.00  0.00     0.182 C 
BRANCH   8   9
HETATM    9  C   UNK N   1      36.309  14.164  11.705  0.00  0.00     0.028 A 
HETATM   10  N   UNK N   1      36.813  14.563  12.897  0.00  0.00    -0.357 N 
HETATM   11  C   UNK N   1      36.182  13.811  13.812  0.00  0.00     0.045 A 
HETATM   12  H   UNK N   1      37.494  15.254  13.058  0.00  0.00     0.166 HD
HETATM   13  C   UNK N   1      35.308  12.949  13.220  0.00  0.00     0.008 A 
HETATM   14  C   UNK N   1      36.358  13.836  15.190  0.00  0.00     0.047 A 
HETATM   15  C   UNK N   1      34.564  12.053  13.975  0.00  0.00     0.101 A 
HETATM   16  C   UNK N   1      35.360  13.153  11.863  0.00  0.00     0.041 A 
HETATM   17  N   UNK N   1      34.728  12.062  15.333  0.00  0.00    -0.374 N 
HETATM   18  C   UNK N   1      35.596  12.928  15.948  0.00  0.00     0.090 A 
ATOM     19  HN  UNK N   1      34.191  11.409  15.902  1.00  0.00     0.164 HD
ENDBRANCH   8   9
ENDBRANCH   1   8
BRANCH   5  20
HETATM   20  S   UNK N   1      31.782  15.883   7.744  0.00  0.00     0.234 S 
HETATM   21  O   UNK N   1      31.543  17.080   8.684  0.00  0.00    -0.207 OA
HETATM   22  O   UNK N   1      32.857  16.625   6.931  0.00  0.00    -0.207 OA
BRANCH  20  23
HETATM   23  C   UNK N   1      30.644  17.188   7.297  0.00  0.00     0.127 C 
HETATM   24  C   UNK N   1      29.560  16.997   6.540  0.00  0.00     0.031 C 
BRANCH  24  25
HETATM   25  C   UNK N   1      28.768  18.164   6.142  0.00  0.00     0.007 A 
HETATM   26  C   UNK N   1      28.562  18.628   4.841  0.00  0.00     0.021 A 
HETATM   27  C   UNK N   1      27.780  19.822   4.799  0.00  0.00     0.033 A 
HETATM   28  C   UNK N   1      27.396  20.269   6.068  0.00  0.00     0.075 A 
HETATM   29 Cl   UNK N   1      26.444  21.687   6.441  0.00  0.00    -0.076 Cl
HETATM   30  S   UNK N   1      28.009  19.215   7.175  0.00  0.00    -0.078 SA
ENDBRANCH  24  25
ENDBRANCH  20  23
ENDBRANCH   5  20
TORSDOF 5
ENDMDL
MODEL 3
REMARK VINA RESULT:      -8.0      4.309      9.323
REMARK  5 active torsions:
REMARK  status: ('A' for Active; 'I' for Inactive)
REMARK    1  A    between atoms: C_10  and  C_11 
REMARK    2  A    between atoms: C_11  and  N_12 
REMARK    3  A    between atoms: N_16  and  S_19 
REMARK    4  A    between atoms: S_19  and  C_22 
REMARK    5  A    between atoms: C_23  and  C_24 
ROOT
HETATM    1  N   UNK N   1      36.332  12.871  11.915  0.00  0.00    -0.344 N 
HETATM    2  C   UNK N   1      37.260  13.217  10.992  0.00  0.00     0.234 C 
HETATM    3  O   UNK N   1      38.415  12.812  11.074  0.00  0.00    -0.272 OA
HETATM    4  C   UNK N   1      36.856  14.154   9.898  0.00  0.00     0.210 C 
HETATM    5  N   UNK N   1      36.082  15.295  10.447  0.00  0.00    -0.197 NA
HETATM    6  C   UNK N   1      35.133  14.925  11.535  0.00  0.00     0.128 C 
HETATM    7  C   UNK N   1      35.001  13.418  11.758  0.00  0.00     0.141 C 
ENDROOT
BRANCH   1   8
HETATM    8  C   UNK N   1      36.665  12.078  13.075  0.00  0.00     0.182 C 
BRANCH   8   9
HETATM    9  C   UNK N   1      36.429  12.875  14.319  0.00  0.00     0.028 A 
HETATM   10  N   UNK N   1      37.140  13.980  14.642  0.00  0.00    -0.357 N 
HETATM   11  C   UNK N   1      36.699  14.336  15.858  0.00  0.00     0.045 A 
HETATM   12  H   UNK N   1      37.831  14.427  14.102  0.00  0.00     0.166 HD
HETATM   13  C   UNK N   1      35.741  13.475  16.304  0.00  0.00     0.008 A 
HETATM   14  C   UNK N   1      37.128  15.410  16.629  0.00  0.00     0.047 A 
HETATM   15  C   UNK N   1      35.162  13.634  17.555  0.00  0.00     0.101 A 
HETATM   16  C   UNK N   1      35.538  12.524  15.334  0.00  0.00     0.041 A 
HETATM   17  N   UNK N   1      35.575  14.684  18.327  0.00  0.00    -0.374 N 
HETATM   18  C   UNK N   1      36.531  15.567  17.894  0.00  0.00     0.090 A 
ATOM     19  HN  UNK N   1      35.160  14.814  19.250  1.00  0.00     0.164 HD
ENDBRANCH   8   9
ENDBRANCH   1   8
BRANCH   5  20
HETATM   20  S   UNK N   1      35.166  16.038   9.107  0.00  0.00     0.234 S 
HETATM   21  O   UNK N   1      34.097  15.529  10.092  0.00  0.00    -0.207 OA
HETATM   22  O   UNK N   1      35.270  17.411   9.793  0.00  0.00    -0.207 OA
BRANCH  20  23
HETATM   23  C   UNK N   1      33.433  16.382   8.837  0.00  0.00     0.127 C 
HETATM   24  C   UNK N   1      32.915  16.679   7.641  0.00  0.00     0.031 C 
BRANCH  24  25
HETATM   25  C   UNK N   1      31.502  17.058   7.564  0.00  0.00     0.007 A 
HETATM   26  C   UNK N   1      30.599  16.713   6.555  0.00  0.00     0.021 A 
HETATM   27  C   UNK N   1      29.306  17.287   6.752  0.00  0.00     0.033 A 
HETATM   28  C   UNK N   1      29.227  18.073   7.907  0.00  0.00     0.075 A 
HETATM   29 Cl   UNK N   1      27.830  18.946   8.493  0.00  0.00    -0.076 Cl
HETATM   30  S   UNK N   1      30.704  18.042   8.634  0.00  0.00    -0.078 SA
ENDBRANCH  24  25
ENDBRANCH  20  23
ENDBRANCH   5  20
TORSDOF 5
ENDMDL
MODEL 4
REMARK VINA RESULT:      -7.7      2.127      3.363
REMARK  5 active torsions:
REMARK  status: ('A' for Active; 'I' for Inactive)
REMARK    1  A    between atoms: C_10  and  C_11 
REMARK    2  A    between atoms: C_11  and  N_12 
REMARK    3  A    between atoms: N_16  and  S_19 
REMARK    4  A    between atoms: S_19  and  C_22 
REMARK    5  A    between atoms: C_23  and  C_24 
ROOT
HETATM    1  N   UNK N   1      32.903  16.321   7.182  0.00  0.00    -0.344 N 
HETATM    2  C   UNK N   1      33.879  17.236   7.389  0.00  0.00     0.234 C 
HETATM    3  O   UNK N   1      34.184  18.044   6.518  0.00  0.00    -0.272 OA
HETATM    4  C   UNK N   1      34.619  17.200   8.689  0.00  0.00     0.210 C 
HETATM    5  N   UNK N   1      34.998  15.808   9.036  0.00  0.00    -0.197 NA
HETATM    6  C   UNK N   1      33.959  14.791   8.712  0.00  0.00     0.128 C 
HETATM    7  C   UNK N   1      32.628  15.387   8.252  0.00  0.00     0.141 C 
ENDROOT
BRANCH   1   8
HETATM    8  C   UNK N   1      32.227  16.198   5.911  0.00  0.00     0.182 C 
BRANCH   8   9
HETATM    9  C   UNK N   1      30.906  16.896   5.970  0.00  0.00     0.028 A 
HETATM   10  N   UNK N   1      30.241  17.327   4.872  0.00  0.00    -0.357 N 
HETATM   11  C   UNK N   1      29.168  17.979   5.347  0.00  0.00     0.045 A 
HETATM   12  H   UNK N   1      30.489  17.191   3.930  0.00  0.00     0.166 HD
HETATM   13  C   UNK N   1      29.155  17.975   6.709  0.00  0.00     0.008 A 
HETATM   14  C   UNK N   1      28.176  18.616   4.611  0.00  0.00     0.047 A 
HETATM   15  C   UNK N   1      28.149  18.617   7.418  0.00  0.00     0.101 A 
HETATM   16  C   UNK N   1      30.258  17.281   7.145  0.00  0.00     0.041 A 
HETATM   17  N   UNK N   1      27.167  19.251   6.710  0.00  0.00    -0.374 N 
HETATM   18  C   UNK N   1      27.157  19.260   5.338  0.00  0.00     0.090 A 
ATOM     19  HN  UNK N   1      26.422  19.730   7.215  1.00  0.00     0.164 HD
ENDBRANCH   8   9
ENDBRANCH   1   8
BRANCH   5  20
HETATM   20  S   UNK N   1      35.343  15.748  10.787  0.00  0.00     0.234 S 
HETATM   21  O   UNK N   1      35.140  14.281  10.365  0.00  0.00    -0.207 OA
HETATM   22  O   UNK N   1      36.852  15.716  10.491  0.00  0.00    -0.207 OA
BRANCH  20  23
HETATM   23  C   UNK N   1      35.612  14.416  11.948  0.00  0.00     0.127 C 
HETATM   24  C   UNK N   1      35.989  14.605  13.215  0.00  0.00     0.031 C 
BRANCH  24  25
HETATM   25  C   UNK N   1      36.294  13.431  14.038  0.00  0.00     0.007 A 
HETATM   26  C   UNK N   1      37.103  12.350  13.681  0.00  0.00     0.021 A 
HETATM   27  C   UNK N   1      37.156  11.343  14.693  0.00  0.00     0.033 A 
HETATM   28  C   UNK N   1      36.381  11.655  15.815  0.00  0.00     0.075 A 
HETATM   29 Cl   UNK N   1      36.177  10.686  17.257  0.00  0.00    -0.076 Cl
HETATM   30  S   UNK N   1      35.675  13.118  15.544  0.00  0.00    -0.078 SA
ENDBRANCH  24  25
ENDBRANCH  20  23
ENDBRANCH   5  20
TORSDOF 5
ENDMDL
MODEL 5
REMARK VINA RESULT:      -7.6      5.875     10.642
REMARK  5 active torsions:
REMARK  status: ('A' for Active; 'I' for Inactive)
REMARK    1  A    between atoms: C_10  and  C_11 
REMARK    2  A    between atoms: C_11  and  N_12 
REMARK    3  A    between atoms: N_16  and  S_19 
REMARK    4  A    between atoms: S_19  and  C_22 
REMARK    5  A    between atoms: C_23  and  C_24 
ROOT
HETATM    1  N   UNK N   1      34.481  15.089   9.027  0.00  0.00    -0.344 N 
HETATM    2  C   UNK N   1      34.068  14.184   8.109  0.00  0.00     0.234 C 
HETATM    3  O   UNK N   1      34.786  13.246   7.777  0.00  0.00    -0.272 OA
HETATM    4  C   UNK N   1      32.732  14.387   7.466  0.00  0.00     0.210 C 
HETATM    5  N   UNK N   1      32.561  15.802   7.052  0.00  0.00    -0.197 NA
HETATM    6  C   UNK N   1      33.110  16.794   8.019  0.00  0.00     0.128 C 
HETATM    7  C   UNK N   1      33.582  16.180   9.338  0.00  0.00     0.141 C 
ENDROOT
BRANCH   1   8
HETATM    8  C   UNK N   1      35.806  15.046   9.602  0.00  0.00     0.182 C 
BRANCH   8   9
HETATM    9  C   UNK N   1      35.727  14.581  11.021  0.00  0.00     0.028 A 
HETATM   10  N   UNK N   1      36.424  15.151  12.032  0.00  0.00    -0.357 N 
HETATM   11  C   UNK N   1      36.161  14.394  13.108  0.00  0.00     0.045 A 
HETATM   12  H   UNK N   1      36.999  15.948  11.988  0.00  0.00     0.166 HD
HETATM   13  C   UNK N   1      35.328  13.363  12.790  0.00  0.00     0.008 A 
HETATM   14  C   UNK N   1      36.651  14.563  14.397  0.00  0.00     0.047 A 
HETATM   15  C   UNK N   1      34.943  12.433  13.746  0.00  0.00     0.101 A 
HETATM   16  C   UNK N   1      35.024  13.456  11.454  0.00  0.00     0.041 A 
HETATM   17  N   UNK N   1      35.419  12.583  15.019  0.00  0.00    -0.374 N 
HETATM   18  C   UNK N   1      36.251  13.619  15.361  0.00  0.00     0.090 A 
ATOM     19  HN  UNK N   1      35.147  11.907  15.733  1.00  0.00     0.164 HD
ENDBRANCH   8   9
ENDBRANCH   1   8
BRANCH   5  20
HETATM   20  S   UNK N   1      30.816  16.107   6.834  0.00  0.00     0.234 S 
HETATM   21  O   UNK N   1      31.515  17.383   6.326  0.00  0.00    -0.207 OA
HETATM   22  O   UNK N   1      30.866  15.426   5.456  0.00  0.00    -0.207 OA
BRANCH  20  23
HETATM   23  C   UNK N   1      29.878  17.425   6.072  0.00  0.00     0.127 C 
HETATM   24  C   UNK N   1      28.765  17.941   6.600  0.00  0.00     0.031 C 
BRANCH  24  25
HETATM   25  C   UNK N   1      28.017  18.935   5.825  0.00  0.00     0.007 A 
HETATM   26  C   UNK N   1      27.595  20.191   6.266  0.00  0.00     0.021 A 
HETATM   27  C   UNK N   1      26.843  20.899   5.279  0.00  0.00     0.033 A 
HETATM   28  C   UNK N   1      26.690  20.178   4.089  0.00  0.00     0.075 A 
HETATM   29 Cl   UNK N   1      25.837  20.690   2.651  0.00  0.00    -0.076 Cl
HETATM   30  S   UNK N   1      27.460  18.735   4.276  0.00  0.00    -0.078 SA
ENDBRANCH  24  25
ENDBRANCH  20  23
ENDBRANCH   5  20
TORSDOF 5
ENDMDL
MODEL 6
REMARK VINA RESULT:      -7.5      2.106      2.560
REMARK  5 active torsions:
REMARK  status: ('A' for Active; 'I' for Inactive)
REMARK    1  A    between atoms: C_10  and  C_11 
REMARK    2  A    between atoms: C_11  and  N_12 
REMARK    3  A    between atoms: N_16  and  S_19 
REMARK    4  A    between atoms: S_19  and  C_22 
REMARK    5  A    between atoms: C_23  and  C_24 
ROOT
HETATM    1  N   UNK N   1      34.004  16.137   9.358  0.00  0.00    -0.344 N 
HETATM    2  C   UNK N   1      34.930  16.679  10.184  0.00  0.00     0.234 C 
HETATM    3  O   UNK N   1      35.503  17.725   9.893  0.00  0.00    -0.272 OA
HETATM    4  C   UNK N   1      35.279  15.941  11.437  0.00  0.00     0.210 C 
HETATM    5  N   UNK N   1      35.479  14.498  11.155  0.00  0.00    -0.197 NA
HETATM    6  C   UNK N   1      34.520  13.928  10.167  0.00  0.00     0.128 C 
HETATM    7  C   UNK N   1      33.399  14.887   9.765  0.00  0.00     0.141 C 
ENDROOT
BRANCH   1   8
HETATM    8  C   UNK N   1      33.700  16.711   8.067  0.00  0.00     0.182 C 
BRANCH   8   9
HETATM    9  C   UNK N   1      32.265  17.132   8.025  0.00  0.00     0.028 A 
HETATM   10  N   UNK N   1      31.661  17.818   9.023  0.00  0.00    -0.357 N 
HETATM   11  C   UNK N   1      30.374  17.911   8.653  0.00  0.00     0.045 A 
HETATM   12  H   UNK N   1      32.074  18.172   9.843  0.00  0.00     0.166 HD
HETATM   13  C   UNK N   1      30.162  17.293   7.457  0.00  0.00     0.008 A 
HETATM   14  C   UNK N   1      29.338  18.521   9.351  0.00  0.00     0.047 A 
HETATM   15  C   UNK N   1      28.895  17.241   6.893  0.00  0.00     0.101 A 
HETATM   16  C   UNK N   1      31.361  16.784   7.021  0.00  0.00     0.041 A 
HETATM   17  N   UNK N   1      27.864  17.833   7.568  0.00  0.00    -0.374 N 
HETATM   18  C   UNK N   1      28.058  18.468   8.769  0.00  0.00     0.090 A 
ATOM     19  HN  UNK N   1      26.926  17.801   7.169  1.00  0.00     0.164 HD
ENDBRANCH   8   9
ENDBRANCH   1   8
BRANCH   5  20
HETATM   20  S   UNK N   1      35.323  13.607  12.695  0.00  0.00     0.234 S 
HETATM   21  O   UNK N   1      35.890  12.584  11.693  0.00  0.00    -0.207 OA
HETATM   22  O   UNK N   1      36.718  14.095  13.121  0.00  0.00    -0.207 OA
BRANCH  20  23
HETATM   23  C   UNK N   1      35.807  11.972  13.229  0.00  0.00     0.127 C 
HETATM   24  C   UNK N   1      35.222  11.320  14.239  0.00  0.00     0.031 C 
BRANCH  24  25
HETATM   25  C   UNK N   1      35.784  10.035  14.662  0.00  0.00     0.007 A 
HETATM   26  C   UNK N   1      35.524   8.784  14.097  0.00  0.00     0.021 A 
HETATM   27  C   UNK N   1      36.193   7.721  14.777  0.00  0.00     0.033 A 
HETATM   28  C   UNK N   1      36.957   8.163  15.863  0.00  0.00     0.075 A 
HETATM   29 Cl   UNK N   1      37.915   7.180  16.946  0.00  0.00    -0.076 Cl
HETATM   30  S   UNK N   1      36.795   9.799  15.954  0.00  0.00    -0.078 SA
ENDBRANCH  24  25
ENDBRANCH  20  23
ENDBRANCH   5  20
TORSDOF 5
ENDMDL
MODEL 7
REMARK VINA RESULT:      -7.2     16.297     18.193
REMARK  5 active torsions:
REMARK  status: ('A' for Active; 'I' for Inactive)
REMARK    1  A    between atoms: C_10  and  C_11 
REMARK    2  A    between atoms: C_11  and  N_12 
REMARK    3  A    between atoms: N_16  and  S_19 
REMARK    4  A    between atoms: S_19  and  C_22 
REMARK    5  A    between atoms: C_23  and  C_24 
ROOT
HETATM    1  N   UNK N   1      31.000  23.769  -3.721  0.00  0.00    -0.344 N 
HETATM    2  C   UNK N   1      31.096  22.780  -2.802  0.00  0.00     0.234 C 
HETATM    3  O   UNK N   1      30.660  22.929  -1.664  0.00  0.00    -0.272 OA
HETATM    4  C   UNK N   1      31.798  21.518  -3.191  0.00  0.00     0.210 C 
HETATM    5  N   UNK N   1      33.066  21.822  -3.898  0.00  0.00    -0.197 NA
HETATM    6  C   UNK N   1      32.983  22.978  -4.835  0.00  0.00     0.128 C 
HETATM    7  C   UNK N   1      31.566  23.519  -5.029  0.00  0.00     0.141 C 
ENDROOT
BRANCH   1   8
HETATM    8  C   UNK N   1      30.456  25.067  -3.395  0.00  0.00     0.182 C 
BRANCH   8   9
HETATM    9  C   UNK N   1      29.142  25.254  -4.084  0.00  0.00     0.028 A 
HETATM   10  N   UNK N   1      28.806  26.381  -4.756  0.00  0.00    -0.357 N 
HETATM   11  C   UNK N   1      27.532  26.195  -5.134  0.00  0.00     0.045 A 
HETATM   12  H   UNK N   1      29.373  27.166  -4.929  0.00  0.00     0.166 HD
HETATM   13  C   UNK N   1      27.065  24.988  -4.706  0.00  0.00     0.008 A 
HETATM   14  C   UNK N   1      26.728  27.075  -5.847  0.00  0.00     0.047 A 
HETATM   15  C   UNK N   1      25.758  24.596  -4.960  0.00  0.00     0.101 A 
HETATM   16  C   UNK N   1      28.078  24.353  -4.030  0.00  0.00     0.041 A 
HETATM   17  N   UNK N   1      24.952  25.452  -5.658  0.00  0.00    -0.374 N 
HETATM   18  C   UNK N   1      25.406  26.667  -6.105  0.00  0.00     0.090 A 
ATOM     19  HN  UNK N   1      23.989  25.180  -5.851  1.00  0.00     0.164 HD
ENDBRANCH   8   9
ENDBRANCH   1   8
BRANCH   5  20
HETATM   20  S   UNK N   1      33.552  20.368  -4.813  0.00  0.00     0.234 S 
HETATM   21  O   UNK N   1      33.800  20.015  -3.334  0.00  0.00    -0.207 OA
HETATM   22  O   UNK N   1      32.100  19.860  -4.781  0.00  0.00    -0.207 OA
BRANCH  20  23
HETATM   23  C   UNK N   1      34.065  18.723  -4.337  0.00  0.00     0.127 C 
HETATM   24  C   UNK N   1      34.820  17.932  -5.104  0.00  0.00     0.031 C 
BRANCH  24  25
HETATM   25  C   UNK N   1      35.077  16.560  -4.658  0.00  0.00     0.007 A 
HETATM   26  C   UNK N   1      34.927  16.063  -3.362  0.00  0.00     0.021 A 
HETATM   27  C   UNK N   1      35.309  14.691  -3.250  0.00  0.00     0.033 A 
HETATM   28  C   UNK N   1      35.755  14.147  -4.460  0.00  0.00     0.075 A 
HETATM   29 Cl   UNK N   1      36.313  12.514  -4.738  0.00  0.00    -0.076 Cl
HETATM   30  S   UNK N   1      35.669  15.331  -5.601  0.00  0.00    -0.078 SA
ENDBRANCH  24  25
ENDBRANCH  20  23
ENDBRANCH   5  20
TORSDOF 5
ENDMDL
MODEL 8
REMARK VINA RESULT:      -7.1      1.575      2.186
REMARK  5 active torsions:
REMARK  status: ('A' for Active; 'I' for Inactive)
REMARK    1  A    between atoms: C_10  and  C_11 
REMARK    2  A    between atoms: C_11  and  N_12 
REMARK    3  A    between atoms: N_16  and  S_19 
REMARK    4  A    between atoms: S_19  and  C_22 
REMARK    5  A    between atoms: C_23  and  C_24 
ROOT
HETATM    1  N   UNK N   1      35.394  14.432  10.157  0.00  0.00    -0.344 N 
HETATM    2  C   UNK N   1      35.839  15.021  11.291  0.00  0.00     0.234 C 
HETATM    3  O   UNK N   1      36.341  16.141  11.268  0.00  0.00    -0.272 OA
HETATM    4  C   UNK N   1      35.755  14.250  12.570  0.00  0.00     0.210 C 
HETATM    5  N   UNK N   1      36.233  12.859  12.374  0.00  0.00    -0.197 NA
HETATM    6  C   UNK N   1      35.825  12.249  11.077  0.00  0.00     0.128 C 
HETATM    7  C   UNK N   1      34.842  13.099  10.272  0.00  0.00     0.141 C 
ENDROOT
BRANCH   1   8
HETATM    8  C   UNK N   1      35.555  15.048   8.860  0.00  0.00     0.182 C 
BRANCH   8   9
HETATM    9  C   UNK N   1      34.223  15.485   8.338  0.00  0.00     0.028 A 
HETATM   10  N   UNK N   1      33.672  14.998   7.201  0.00  0.00    -0.357 N 
HETATM   11  C   UNK N   1      32.544  15.705   7.030  0.00  0.00     0.045 A 
HETATM   12  H   UNK N   1      34.022  14.282   6.625  0.00  0.00     0.166 HD
HETATM   13  C   UNK N   1      32.385  16.624   8.023  0.00  0.00     0.008 A 
HETATM   14  C   UNK N   1      31.625  15.587   5.994  0.00  0.00     0.047 A 
HETATM   15  C   UNK N   1      31.299  17.488   8.033  0.00  0.00     0.101 A 
HETATM   16  C   UNK N   1      33.447  16.507   8.887  0.00  0.00     0.041 A 
HETATM   17  N   UNK N   1      30.387  17.387   7.019  0.00  0.00    -0.374 N 
HETATM   18  C   UNK N   1      30.524  16.462   6.014  0.00  0.00     0.090 A 
ATOM     19  HN  UNK N   1      29.584  18.015   7.010  1.00  0.00     0.164 HD
ENDBRANCH   8   9
ENDBRANCH   1   8
BRANCH   5  20
HETATM   20  S   UNK N   1      35.596  11.861  13.710  0.00  0.00     0.234 S 
HETATM   21  O   UNK N   1      36.699  12.727  14.345  0.00  0.00    -0.207 OA
HETATM   22  O   UNK N   1      34.501  12.909  13.973  0.00  0.00    -0.207 OA
BRANCH  20  23
HETATM   23  C   UNK N   1      35.889  11.825  15.473  0.00  0.00     0.127 C 
HETATM   24  C   UNK N   1      35.493  10.827  16.268  0.00  0.00     0.031 C 
BRANCH  24  25
HETATM   25  C   UNK N   1      35.685  10.965  17.714  0.00  0.00     0.007 A 
HETATM   26  C   UNK N   1      35.230  12.011  18.520  0.00  0.00     0.021 A 
HETATM   27  C   UNK N   1      35.628  11.870  19.884  0.00  0.00     0.033 A 
HETATM   28  C   UNK N   1      36.390  10.719  20.115  0.00  0.00     0.075 A 
HETATM   29 Cl   UNK N   1      37.069  10.193  21.638  0.00  0.00    -0.076 Cl
HETATM   30  S   UNK N   1      36.548   9.929  18.679  0.00  0.00    -0.078 SA
ENDBRANCH  24  25
ENDBRANCH  20  23
ENDBRANCH   5  20
TORSDOF 5
ENDMDL
MODEL 9
REMARK VINA RESULT:      -7.0      4.354      9.925
REMARK  5 active torsions:
REMARK  status: ('A' for Active; 'I' for Inactive)
REMARK    1  A    between atoms: C_10  and  C_11 
REMARK    2  A    between atoms: C_11  and  N_12 
REMARK    3  A    between atoms: N_16  and  S_19 
REMARK    4  A    between atoms: S_19  and  C_22 
REMARK    5  A    between atoms: C_23  and  C_24 
ROOT
HETATM    1  N   UNK N   1      36.231  10.523  13.911  0.00  0.00    -0.344 N 
HETATM    2  C   UNK N   1      37.330  11.290  13.720  0.00  0.00     0.234 C 
HETATM    3  O   UNK N   1      38.314  11.179  14.445  0.00  0.00    -0.272 OA
HETATM    4  C   UNK N   1      37.295  12.319  12.634  0.00  0.00     0.210 C 
HETATM    5  N   UNK N   1      36.018  13.075  12.672  0.00  0.00    -0.197 NA
HETATM    6  C   UNK N   1      34.822  12.242  12.984  0.00  0.00     0.128 C 
HETATM    7  C   UNK N   1      35.106  10.740  13.028  0.00  0.00     0.141 C 
ENDROOT
BRANCH   1   8
HETATM    8  C   UNK N   1      36.128   9.597  15.015  0.00  0.00     0.182 C 
BRANCH   8   9
HETATM    9  C   UNK N   1      35.759  10.334  16.263  0.00  0.00     0.028 A 
HETATM   10  N   UNK N   1      35.633  11.681  16.323  0.00  0.00    -0.357 N 
HETATM   11  C   UNK N   1      35.398  11.952  17.616  0.00  0.00     0.045 A 
HETATM   12  H   UNK N   1      35.699  12.322  15.580  0.00  0.00     0.166 HD
HETATM   13  C   UNK N   1      35.385  10.811  18.362  0.00  0.00     0.008 A 
HETATM   14  C   UNK N   1      35.204  13.201  18.194  0.00  0.00     0.047 A 
HETATM   15  C   UNK N   1      35.187  10.855  19.735  0.00  0.00     0.101 A 
HETATM   16  C   UNK N   1      35.610   9.749  17.521  0.00  0.00     0.041 A 
HETATM   17  N   UNK N   1      34.998  12.077  20.319  0.00  0.00    -0.374 N 
HETATM   18  C   UNK N   1      34.999  13.236  19.585  0.00  0.00     0.090 A 
ATOM     19  HN  UNK N   1      34.854  12.127  21.328  1.00  0.00     0.164 HD
ENDBRANCH   8   9
ENDBRANCH   1   8
BRANCH   5  20
HETATM   20  S   UNK N   1      35.786  13.849  11.080  0.00  0.00     0.234 S 
HETATM   21  O   UNK N   1      34.481  14.117  11.853  0.00  0.00    -0.207 OA
HETATM   22  O   UNK N   1      36.460  15.129  11.602  0.00  0.00    -0.207 OA
BRANCH  20  23
HETATM   23  C   UNK N   1      34.507  14.888  10.386  0.00  0.00     0.127 C 
HETATM   24  C   UNK N   1      34.337  15.076   9.075  0.00  0.00     0.031 C 
BRANCH  24  25
HETATM   25  C   UNK N   1      33.331  16.043   8.630  0.00  0.00     0.007 A 
HETATM   26  C   UNK N   1      33.420  17.435   8.707  0.00  0.00     0.021 A 
HETATM   27  C   UNK N   1      32.244  18.091   8.231  0.00  0.00     0.033 A 
HETATM   28  C   UNK N   1      31.258  17.197   7.798  0.00  0.00     0.075 A 
HETATM   29 Cl   UNK N   1      29.682  17.599   7.156  0.00  0.00    -0.076 Cl
HETATM   30  S   UNK N   1      31.841  15.672   8.004  0.00  0.00    -0.078 SA
ENDBRANCH  24  25
ENDBRANCH  20  23
ENDBRANCH   5  20
TORSDOF 5
ENDMDL
