MODEL 1
REMARK VINA RESULT:      -8.1      0.000      0.000
REMARK  7 active torsions:
REMARK  status: ('A' for Active; 'I' for Inactive)
REMARK       I    between atoms: C_1  and  N_3 
REMARK    1  A    between atoms: C_1  and  C_5 
REMARK    2  A    between atoms: N_3  and  O_4 
REMARK    3  A    between atoms: C_5  and  C_6 
REMARK    4  A    between atoms: C_6  and  C_7 
REMARK    5  A    between atoms: C_6  and  C_21 
REMARK       I    between atoms: C_7  and  N_9 
REMARK    6  A    between atoms: C_10  and  N_9 
REMARK    7  A    between atoms: C_21  and  C_22 
ROOT
HETATM    1  C   UNK N   1      25.760  18.520   3.284  0.00  0.00     0.180 C 
HETATM    2  C   UNK N   1      25.098  19.894   2.993  0.00  0.00     0.240 C 
HETATM    3  O   UNK N   1      25.843  20.755   2.550  0.00  0.00    -0.271 OA
HETATM    4  N   UNK N   1      23.789  20.247   3.156  0.00  0.00    -0.359 N 
HETATM    5  C   UNK N   1      22.734  19.486   3.753  0.00  0.00     0.122 C 
HETATM    6  C   UNK N   1      21.572  19.235   2.793  0.00  0.00     0.020 C 
HETATM    7  C   UNK N   1      20.418  18.545   3.537  0.00  0.00     0.002 C 
HETATM    8  C   UNK N   1      20.404  17.033   3.289  0.00  0.00     0.002 C 
HETATM    9  C   UNK N   1      19.996  16.201   4.526  0.00  0.00     0.020 C 
HETATM   10  C   UNK N   1      20.849  16.416   5.800  0.00  0.00     0.128 C 
HETATM   11  N   UNK N   1      22.281  16.294   5.541  0.00  0.00    -0.356 N 
HETATM   12  C   UNK N   1      25.124  17.119   3.420  0.00  0.00     0.075 C 
HETATM   13  C   UNK N   1      24.227  16.669   4.527  0.00  0.00    -0.028 A 
HETATM   14  C   UNK N   1      22.899  16.959   4.555  0.00  0.00     0.099 A 
HETATM   15  C   UNK N   1      24.441  15.750   5.538  0.00  0.00    -0.002 A 
HETATM   16  C   UNK N   1      23.220  15.550   6.145  0.00  0.00     0.045 A 
HETATM   17  C   UNK N   1      25.579  15.058   5.932  0.00  0.00     0.014 A 
HETATM   18  C   UNK N   1      23.064  14.659   7.206  0.00  0.00     0.030 A 
HETATM   19  C   UNK N   1      25.453  14.152   7.002  0.00  0.00     0.001 A 
HETATM   20  C   UNK N   1      24.204  13.957   7.637  0.00  0.00     0.002 A 
HETATM   21  H   UNK N   1      23.540  21.137   2.820  0.00  0.00     0.162 HD
ENDROOT
BRANCH   1  22
HETATM   22  N   UNK N   1      26.901  18.671   4.161  0.00  0.00    -0.347 N 
HETATM   23  C   UNK N   1      28.037  17.934   4.133  0.00  0.00     0.223 C 
HETATM   24  O   UNK N   1      28.225  17.104   3.255  0.00  0.00    -0.273 OA
HETATM   25  H   UNK N   1      26.846  19.377   4.844  0.00  0.00     0.163 HD
BRANCH  23  26
HETATM   26  C   UNK N   1      28.988  18.054   5.307  0.00  0.00     0.087 C 
BRANCH  26  27
HETATM   27  C   UNK N   1      28.255  17.812   6.637  0.00  0.00     0.119 C 
BRANCH  27  28
HETATM   28  C   UNK N   1      27.902  19.056   7.416  0.00  0.00     0.241 C 
HETATM   29  O   UNK N   1      27.934  20.131   6.843  0.00  0.00    -0.271 OA
HETATM   30  N   UNK N   1      27.562  19.014   8.725  0.00  0.00    -0.237 N 
HETATM   31  H   UNK N   1      27.350  19.853   9.194  0.00  0.00     0.197 HD
BRANCH  30  32
HETATM   32  O   UNK N   1      27.505  17.857   9.395  0.00  0.00    -0.287 OA
HETATM   33  H   UNK N   1      27.149  17.503  10.225  0.00  0.00     0.244 HD
ENDBRANCH  30  32
ENDBRANCH  27  28
ENDBRANCH  26  27
BRANCH  26  34
HETATM   34  C   UNK N   1      30.161  17.066   5.286  0.00  0.00     0.018 C 
BRANCH  34  35
HETATM   35  C   UNK N   1      31.452  17.589   4.689  0.00  0.00    -0.022 C 
HETATM   36  C   UNK N   1      31.722  16.797   3.425  0.00  0.00     0.009 C 
HETATM   37  C   UNK N   1      32.587  17.332   5.658  0.00  0.00     0.009 C 
ENDBRANCH  34  35
ENDBRANCH  26  34
ENDBRANCH  23  26
ENDBRANCH   1  22
TORSDOF 7
ENDMDL
MODEL 2
REMARK VINA RESULT:      -7.8      4.017      7.124
REMARK  7 active torsions:
REMARK  status: ('A' for Active; 'I' for Inactive)
REMARK       I    between atoms: C_1  and  N_3 
REMARK    1  A    between atoms: C_1  and  C_5 
REMARK    2  A    between atoms: N_3  and  O_4 
REMARK    3  A    between atoms: C_5  and  C_6 
REMARK    4  A    between atoms: C_6  and  C_7 
REMARK    5  A    between atoms: C_6  and  C_21 
REMARK       I    between atoms: C_7  and  N_9 
REMARK    6  A    between atoms: C_10  and  N_9 
REMARK    7  A    between atoms: C_21  and  C_22 
ROOT
HETATM    1  C   UNK N   1      20.428  15.622   6.010  0.00  0.00     0.180 C 
HETATM    2  C   UNK N   1      19.648  15.968   7.307  0.00  0.00     0.240 C 
HETATM    3  O   UNK N   1      18.629  16.624   7.150  0.00  0.00    -0.271 OA
HETATM    4  N   UNK N   1      19.952  15.615   8.590  0.00  0.00    -0.359 N 
HETATM    5  C   UNK N   1      21.127  14.955   9.073  0.00  0.00     0.122 C 
HETATM    6  C   UNK N   1      20.813  13.636   9.779  0.00  0.00     0.020 C 
HETATM    7  C   UNK N   1      22.095  13.056  10.396  0.00  0.00     0.002 C 
HETATM    8  C   UNK N   1      22.705  11.959   9.518  0.00  0.00     0.002 C 
HETATM    9  C   UNK N   1      24.250  11.963   9.497  0.00  0.00     0.020 C 
HETATM   10  C   UNK N   1      24.920  13.288   9.053  0.00  0.00     0.128 C 
HETATM   11  N   UNK N   1      24.381  13.791   7.792  0.00  0.00    -0.356 N 
HETATM   12  C   UNK N   1      21.459  14.505   5.739  0.00  0.00     0.075 C 
HETATM   13  C   UNK N   1      22.832  14.419   6.321  0.00  0.00    -0.028 A 
HETATM   14  C   UNK N   1      23.068  13.938   7.571  0.00  0.00     0.099 A 
HETATM   15  C   UNK N   1      24.071  14.554   5.722  0.00  0.00    -0.002 A 
HETATM   16  C   UNK N   1      25.001  14.165   6.662  0.00  0.00     0.045 A 
HETATM   17  C   UNK N   1      24.440  14.938   4.439  0.00  0.00     0.014 A 
HETATM   18  C   UNK N   1      26.367  14.156   6.385  0.00  0.00     0.030 A 
HETATM   19  C   UNK N   1      25.814  14.941   4.130  0.00  0.00     0.001 A 
HETATM   20  C   UNK N   1      26.771  14.557   5.098  0.00  0.00     0.002 A 
HETATM   21  H   UNK N   1      19.278  15.844   9.269  0.00  0.00     0.162 HD
ENDROOT
BRANCH   1  22
HETATM   22  N   UNK N   1      20.734  16.819   5.256  0.00  0.00    -0.347 N 
HETATM   23  C   UNK N   1      21.026  16.880   3.934  0.00  0.00     0.223 C 
HETATM   24  O   UNK N   1      20.956  15.884   3.229  0.00  0.00    -0.273 OA
HETATM   25  H   UNK N   1      20.731  17.669   5.751  0.00  0.00     0.163 HD
BRANCH  23  26
HETATM   26  C   UNK N   1      21.595  18.178   3.395  0.00  0.00     0.087 C 
BRANCH  26  27
HETATM   27  C   UNK N   1      20.488  19.231   3.214  0.00  0.00     0.119 C 
BRANCH  27  28
HETATM   28  C   UNK N   1      20.797  20.330   2.225  0.00  0.00     0.241 C 
HETATM   29  O   UNK N   1      21.110  21.427   2.653  0.00  0.00    -0.271 OA
HETATM   30  N   UNK N   1      20.728  20.135   0.889  0.00  0.00    -0.237 N 
HETATM   31  H   UNK N   1      20.928  20.885   0.283  0.00  0.00     0.197 HD
BRANCH  30  32
HETATM   32  O   UNK N   1      20.396  18.947   0.371  0.00  0.00    -0.287 OA
HETATM   33  H   UNK N   1      19.614  18.480   0.037  0.00  0.00     0.244 HD
ENDBRANCH  30  32
ENDBRANCH  27  28
ENDBRANCH  26  27
BRANCH  26  34
HETATM   34  C   UNK N   1      22.657  18.832   4.287  0.00  0.00     0.018 C 
BRANCH  34  35
HETATM   35  C   UNK N   1      24.064  18.860   3.722  0.00  0.00    -0.022 C 
HETATM   36  C   UNK N   1      25.016  18.546   4.859  0.00  0.00     0.009 C 
HETATM   37  C   UNK N   1      24.371  20.256   3.222  0.00  0.00     0.009 C 
ENDBRANCH  34  35
ENDBRANCH  26  34
ENDBRANCH  23  26
ENDBRANCH   1  22
TORSDOF 7
ENDMDL
MODEL 3
REMARK VINA RESULT:      -7.6      3.696      7.470
REMARK  7 active torsions:
REMARK  status: ('A' for Active; 'I' for Inactive)
REMARK       I    between atoms: C_1  and  N_3 
REMARK    1  A    between atoms: C_1  and  C_5 
REMARK    2  A    between atoms: N_3  and  O_4 
REMARK    3  A    between atoms: C_5  and  C_6 
REMARK    4  A    between atoms: C_6  and  C_7 
REMARK    5  A    between atoms: C_6  and  C_21 
REMARK       I    between atoms: C_7  and  N_9 
REMARK    6  A    between atoms: C_10  and  N_9 
REMARK    7  A    between atoms: C_21  and  C_22 
ROOT
HETATM    1  C   UNK N   1      22.987  17.094   4.000  0.00  0.00     0.180 C 
HETATM    2  C   UNK N   1      22.893  18.636   3.849  0.00  0.00     0.240 C 
HETATM    3  O   UNK N   1      21.760  19.092   3.789  0.00  0.00    -0.271 OA
HETATM    4  N   UNK N   1      23.915  19.539   3.792  0.00  0.00    -0.359 N 
HETATM    5  C   UNK N   1      25.322  19.282   3.726  0.00  0.00     0.122 C 
HETATM    6  C   UNK N   1      26.089  19.900   4.894  0.00  0.00     0.020 C 
HETATM    7  C   UNK N   1      27.600  19.713   4.686  0.00  0.00     0.002 C 
HETATM    8  C   UNK N   1      28.145  18.531   5.495  0.00  0.00     0.002 C 
HETATM    9  C   UNK N   1      29.245  17.728   4.765  0.00  0.00     0.020 C 
HETATM   10  C   UNK N   1      28.860  17.155   3.379  0.00  0.00     0.128 C 
HETATM   11  N   UNK N   1      27.606  16.406   3.413  0.00  0.00    -0.356 N 
HETATM   12  C   UNK N   1      24.144  16.216   4.525  0.00  0.00     0.075 C 
HETATM   13  C   UNK N   1      25.461  16.006   3.851  0.00  0.00    -0.028 A 
HETATM   14  C   UNK N   1      26.480  16.901   3.944  0.00  0.00     0.099 A 
HETATM   15  C   UNK N   1      25.993  14.880   3.251  0.00  0.00    -0.002 A 
HETATM   16  C   UNK N   1      27.314  15.167   2.989  0.00  0.00     0.045 A 
HETATM   17  C   UNK N   1      25.439  13.638   2.964  0.00  0.00     0.014 A 
HETATM   18  C   UNK N   1      28.166  14.235   2.398  0.00  0.00     0.030 A 
HETATM   19  C   UNK N   1      26.275  12.676   2.364  0.00  0.00     0.001 A 
HETATM   20  C   UNK N   1      27.628  12.974   2.080  0.00  0.00     0.002 A 
HETATM   21  H   UNK N   1      23.651  20.487   3.796  0.00  0.00     0.162 HD
ENDROOT
BRANCH   1  22
HETATM   22  N   UNK N   1      22.251  16.426   2.948  0.00  0.00    -0.347 N 
HETATM   23  C   UNK N   1      21.197  15.591   3.115  0.00  0.00     0.223 C 
HETATM   24  O   UNK N   1      20.709  15.408   4.221  0.00  0.00    -0.273 OA
HETATM   25  H   UNK N   1      22.544  16.593   2.025  0.00  0.00     0.163 HD
BRANCH  23  26
HETATM   26  C   UNK N   1      20.747  14.773   1.920  0.00  0.00     0.087 C 
BRANCH  26  27
HETATM   27  C   UNK N   1      19.606  15.478   1.167  0.00  0.00     0.119 C 
BRANCH  27  28
HETATM   28  C   UNK N   1      19.871  16.918   0.796  0.00  0.00     0.241 C 
HETATM   29  O   UNK N   1      20.347  17.158  -0.300  0.00  0.00    -0.271 OA
HETATM   30  N   UNK N   1      19.607  17.939   1.642  0.00  0.00    -0.237 N 
HETATM   31  H   UNK N   1      19.807  18.861   1.359  0.00  0.00     0.197 HD
BRANCH  30  32
HETATM   32  O   UNK N   1      19.078  17.726   2.852  0.00  0.00    -0.287 OA
HETATM   33  H   UNK N   1      18.254  17.891   3.337  0.00  0.00     0.244 HD
ENDBRANCH  30  32
ENDBRANCH  27  28
ENDBRANCH  26  27
BRANCH  26  34
HETATM   34  C   UNK N   1      21.839  14.507   0.878  0.00  0.00     0.018 C 
BRANCH  34  35
HETATM   35  C   UNK N   1      22.068  13.051   0.521  0.00  0.00    -0.022 C 
HETATM   36  C   UNK N   1      22.084  12.262   1.815  0.00  0.00     0.009 C 
HETATM   37  C   UNK N   1      23.426  12.908  -0.134  0.00  0.00     0.009 C 
ENDBRANCH  34  35
ENDBRANCH  26  34
ENDBRANCH  23  26
ENDBRANCH   1  22
TORSDOF 7
ENDMDL
MODEL 4
REMARK VINA RESULT:      -7.6      2.663      7.553
REMARK  7 active torsions:
REMARK  status: ('A' for Active; 'I' for Inactive)
REMARK       I    between atoms: C_1  and  N_3 
REMARK    1  A    between atoms: C_1  and  C_5 
REMARK    2  A    between atoms: N_3  and  O_4 
REMARK    3  A    between atoms: C_5  and  C_6 
REMARK    4  A    between atoms: C_6  and  C_7 
REMARK    5  A    between atoms: C_6  and  C_21 
REMARK       I    between atoms: C_7  and  N_9 
REMARK    6  A    between atoms: C_10  and  N_9 
REMARK    7  A    between atoms: C_21  and  C_22 
ROOT
HETATM    1  C   UNK N   1      26.961  17.121   4.113  0.00  0.00     0.180 C 
HETATM    2  C   UNK N   1      27.252  16.086   2.993  0.00  0.00     0.240 C 
HETATM    3  O   UNK N   1      26.286  15.743   2.328  0.00  0.00    -0.271 OA
HETATM    4  N   UNK N   1      28.452  15.530   2.654  0.00  0.00    -0.359 N 
HETATM    5  C   UNK N   1      29.710  15.660   3.324  0.00  0.00     0.122 C 
HETATM    6  C   UNK N   1      30.796  16.255   2.428  0.00  0.00     0.020 C 
HETATM    7  C   UNK N   1      32.148  16.232   3.158  0.00  0.00     0.002 C 
HETATM    8  C   UNK N   1      32.490  17.595   3.769  0.00  0.00     0.002 C 
HETATM    9  C   UNK N   1      33.203  17.505   5.137  0.00  0.00     0.020 C 
HETATM   10  C   UNK N   1      32.456  16.718   6.242  0.00  0.00     0.128 C 
HETATM   11  N   UNK N   1      31.073  17.159   6.404  0.00  0.00    -0.356 N 
HETATM   12  C   UNK N   1      27.917  18.090   4.843  0.00  0.00     0.075 C 
HETATM   13  C   UNK N   1      29.001  17.700   5.795  0.00  0.00    -0.028 A 
HETATM   14  C   UNK N   1      30.221  17.269   5.376  0.00  0.00     0.099 A 
HETATM   15  C   UNK N   1      29.110  17.894   7.159  0.00  0.00    -0.002 A 
HETATM   16  C   UNK N   1      30.399  17.543   7.499  0.00  0.00     0.045 A 
HETATM   17  C   UNK N   1      28.210  18.383   8.097  0.00  0.00     0.014 A 
HETATM   18  C   UNK N   1      30.864  17.636   8.810  0.00  0.00     0.030 A 
HETATM   19  C   UNK N   1      28.652  18.487   9.431  0.00  0.00     0.001 A 
HETATM   20  C   UNK N   1      29.969  18.112   9.785  0.00  0.00     0.002 A 
HETATM   21  H   UNK N   1      28.452  14.968   1.847  0.00  0.00     0.162 HD
ENDROOT
BRANCH   1  22
HETATM   22  N   UNK N   1      25.911  16.652   4.991  0.00  0.00    -0.347 N 
HETATM   23  C   UNK N   1      25.997  15.615   5.859  0.00  0.00     0.223 C 
HETATM   24  O   UNK N   1      27.056  15.031   6.037  0.00  0.00    -0.273 OA
HETATM   25  H   UNK N   1      25.053  17.131   4.954  0.00  0.00     0.163 HD
BRANCH  23  26
HETATM   26  C   UNK N   1      24.711  15.102   6.478  0.00  0.00     0.087 C 
BRANCH  26  27
HETATM   27  C   UNK N   1      23.500  15.440   5.591  0.00  0.00     0.119 C 
BRANCH  27  28
HETATM   28  C   UNK N   1      22.479  16.360   6.215  0.00  0.00     0.241 C 
HETATM   29  O   UNK N   1      21.541  15.867   6.817  0.00  0.00    -0.271 OA
HETATM   30  N   UNK N   1      22.569  17.706   6.118  0.00  0.00    -0.237 N 
HETATM   31  H   UNK N   1      21.872  18.266   6.533  0.00  0.00     0.197 HD
BRANCH  30  32
HETATM   32  O   UNK N   1      23.583  18.295   5.474  0.00  0.00    -0.287 OA
HETATM   33  H   UNK N   1      24.435  18.716   5.668  0.00  0.00     0.244 HD
ENDBRANCH  30  32
ENDBRANCH  27  28
ENDBRANCH  26  27
BRANCH  26  34
HETATM   34  C   UNK N   1      24.665  13.585   6.694  0.00  0.00     0.018 C 
BRANCH  34  35
HETATM   35  C   UNK N   1      23.948  13.120   7.946  0.00  0.00    -0.022 C 
HETATM   36  C   UNK N   1      24.897  13.313   9.112  0.00  0.00     0.009 C 
HETATM   37  C   UNK N   1      23.645  11.641   7.825  0.00  0.00     0.009 C 
ENDBRANCH  34  35
ENDBRANCH  26  34
ENDBRANCH  23  26
ENDBRANCH   1  22
TORSDOF 7
ENDMDL
MODEL 5
REMARK VINA RESULT:      -7.6      5.210      8.222
REMARK  7 active torsions:
REMARK  status: ('A' for Active; 'I' for Inactive)
REMARK       I    between atoms: C_1  and  N_3 
REMARK    1  A    between atoms: C_1  and  C_5 
REMARK    2  A    between atoms: N_3  and  O_4 
REMARK    3  A    between atoms: C_5  and  C_6 
REMARK    4  A    between atoms: C_6  and  C_7 
REMARK    5  A    between atoms: C_6  and  C_21 
REMARK       I    between atoms: C_7  and  N_9 
REMARK    6  A    between atoms: C_10  and  N_9 
REMARK    7  A    between atoms: C_21  and  C_22 
ROOT
HETATM    1  C   UNK N   1      33.452  17.314   7.026  0.00  0.00     0.180 C 
HETATM    2  C   UNK N   1      32.888  17.793   8.390  0.00  0.00     0.240 C 
HETATM    3  O   UNK N   1      33.708  18.265   9.164  0.00  0.00    -0.271 OA
HETATM    4  N   UNK N   1      31.592  17.766   8.820  0.00  0.00    -0.359 N 
HETATM    5  C   UNK N   1      30.457  17.175   8.178  0.00  0.00     0.122 C 
HETATM    6  C   UNK N   1      29.353  18.189   7.882  0.00  0.00     0.020 C 
HETATM    7  C   UNK N   1      28.115  17.467   7.329  0.00  0.00     0.002 C 
HETATM    8  C   UNK N   1      28.035  17.559   5.802  0.00  0.00     0.002 C 
HETATM    9  C   UNK N   1      27.496  16.277   5.127  0.00  0.00     0.020 C 
HETATM   10  C   UNK N   1      28.269  14.971   5.437  0.00  0.00     0.128 C 
HETATM   11  N   UNK N   1      29.707  15.107   5.220  0.00  0.00    -0.356 N 
HETATM   12  C   UNK N   1      32.732  17.082   5.679  0.00  0.00     0.075 C 
HETATM   13  C   UNK N   1      31.737  16.005   5.392  0.00  0.00    -0.028 A 
HETATM   14  C   UNK N   1      30.428  16.107   5.746  0.00  0.00     0.099 A 
HETATM   15  C   UNK N   1      31.828  14.891   4.578  0.00  0.00    -0.002 A 
HETATM   16  C   UNK N   1      30.559  14.361   4.502  0.00  0.00     0.045 A 
HETATM   17  C   UNK N   1      32.897  14.344   3.879  0.00  0.00     0.014 A 
HETATM   18  C   UNK N   1      30.280  13.229   3.737  0.00  0.00     0.030 A 
HETATM   19  C   UNK N   1      32.647  13.199   3.099  0.00  0.00     0.001 A 
HETATM   20  C   UNK N   1      31.347  12.643   3.032  0.00  0.00     0.002 A 
HETATM   21  H   UNK N   1      31.416  18.210   9.681  0.00  0.00     0.162 HD
ENDROOT
BRANCH   1  22
HETATM   22  N   UNK N   1      34.535  16.373   7.216  0.00  0.00    -0.347 N 
HETATM   23  C   UNK N   1      34.447  15.160   7.812  0.00  0.00     0.223 C 
HETATM   24  O   UNK N   1      33.366  14.712   8.168  0.00  0.00    -0.273 OA
HETATM   25  H   UNK N   1      35.420  16.640   6.880  0.00  0.00     0.163 HD
BRANCH  23  26
HETATM   26  C   UNK N   1      35.739  14.451   8.168  0.00  0.00     0.087 C 
BRANCH  26  27
HETATM   27  C   UNK N   1      35.874  14.284   9.691  0.00  0.00     0.119 C 
BRANCH  27  28
HETATM   28  C   UNK N   1      35.669  15.543  10.499  0.00  0.00     0.241 C 
HETATM   29  O   UNK N   1      36.585  16.343  10.573  0.00  0.00    -0.271 OA
HETATM   30  N   UNK N   1      34.509  15.801  11.146  0.00  0.00    -0.237 N 
HETATM   31  H   UNK N   1      34.426  16.631  11.670  0.00  0.00     0.197 HD
BRANCH  30  32
HETATM   32  O   UNK N   1      33.473  14.957  11.089  0.00  0.00    -0.287 OA
HETATM   33  H   UNK N   1      33.292  14.024  10.892  0.00  0.00     0.244 HD
ENDBRANCH  30  32
ENDBRANCH  27  28
ENDBRANCH  26  27
BRANCH  26  34
HETATM   34  C   UNK N   1      35.882  13.044   7.575  0.00  0.00     0.018 C 
BRANCH  34  35
HETATM   35  C   UNK N   1      35.444  12.890   6.132  0.00  0.00    -0.022 C 
HETATM   36  C   UNK N   1      34.476  11.725   6.073  0.00  0.00     0.009 C 
HETATM   37  C   UNK N   1      36.649  12.545   5.282  0.00  0.00     0.009 C 
ENDBRANCH  34  35
ENDBRANCH  26  34
ENDBRANCH  23  26
ENDBRANCH   1  22
TORSDOF 7
ENDMDL
MODEL 6
REMARK VINA RESULT:      -7.6     12.768     14.798
REMARK  7 active torsions:
REMARK  status: ('A' for Active; 'I' for Inactive)
REMARK       I    between atoms: C_1  and  N_3 
REMARK    1  A    between atoms: C_1  and  C_5 
REMARK    2  A    between atoms: N_3  and  O_4 
REMARK    3  A    between atoms: C_5  and  C_6 
REMARK    4  A    between atoms: C_6  and  C_7 
REMARK    5  A    between atoms: C_6  and  C_21 
REMARK       I    between atoms: C_7  and  N_9 
REMARK    6  A    between atoms: C_10  and  N_9 
REMARK    7  A    between atoms: C_21  and  C_22 
ROOT
HETATM    1  C   UNK N   1      26.161  23.338  -7.503  0.00  0.00     0.180 C 
HETATM    2  C   UNK N   1      25.464  24.443  -8.342  0.00  0.00     0.240 C 
HETATM    3  O   UNK N   1      24.919  24.061  -9.368  0.00  0.00    -0.271 OA
HETATM    4  N   UNK N   1      25.373  25.777  -8.066  0.00  0.00    -0.359 N 
HETATM    5  C   UNK N   1      26.004  26.508  -7.010  0.00  0.00     0.122 C 
HETATM    6  C   UNK N   1      24.999  27.207  -6.095  0.00  0.00     0.020 C 
HETATM    7  C   UNK N   1      25.741  28.086  -5.077  0.00  0.00     0.002 C 
HETATM    8  C   UNK N   1      25.871  27.397  -3.715  0.00  0.00     0.002 C 
HETATM    9  C   UNK N   1      27.214  27.671  -3.001  0.00  0.00     0.020 C 
HETATM   10  C   UNK N   1      28.492  27.298  -3.792  0.00  0.00     0.128 C 
HETATM   11  N   UNK N   1      28.449  25.933  -4.311  0.00  0.00    -0.356 N 
HETATM   12  C   UNK N   1      26.557  23.326  -6.010  0.00  0.00     0.075 C 
HETATM   13  C   UNK N   1      27.621  24.164  -5.379  0.00  0.00    -0.028 A 
HETATM   14  C   UNK N   1      27.414  25.458  -5.018  0.00  0.00     0.099 A 
HETATM   15  C   UNK N   1      28.845  23.807  -4.844  0.00  0.00    -0.002 A 
HETATM   16  C   UNK N   1      29.327  24.925  -4.199  0.00  0.00     0.045 A 
HETATM   17  C   UNK N   1      29.532  22.600  -4.836  0.00  0.00     0.014 A 
HETATM   18  C   UNK N   1      30.546  24.915  -3.523  0.00  0.00     0.030 A 
HETATM   19  C   UNK N   1      30.768  22.559  -4.161  0.00  0.00     0.001 A 
HETATM   20  C   UNK N   1      31.273  23.711  -3.513  0.00  0.00     0.002 A 
HETATM   21  H   UNK N   1      24.802  26.302  -8.671  0.00  0.00     0.162 HD
ENDROOT
BRANCH   1  22
HETATM   22  N   UNK N   1      27.108  22.598  -8.308  0.00  0.00    -0.347 N 
HETATM   23  C   UNK N   1      27.000  21.299  -8.680  0.00  0.00     0.223 C 
HETATM   24  O   UNK N   1      25.994  20.654  -8.424  0.00  0.00    -0.273 OA
HETATM   25  H   UNK N   1      27.907  23.083  -8.614  0.00  0.00     0.163 HD
BRANCH  23  26
HETATM   26  C   UNK N   1      28.224  20.630  -9.276  0.00  0.00     0.087 C 
BRANCH  26  27
HETATM   27  C   UNK N   1      28.517  21.173 -10.685  0.00  0.00     0.119 C 
BRANCH  27  28
HETATM   28  C   UNK N   1      27.308  21.370 -11.566  0.00  0.00     0.241 C 
HETATM   29  O   UNK N   1      26.812  20.393 -12.100  0.00  0.00    -0.271 OA
HETATM   30  N   UNK N   1      26.768  22.590 -11.786  0.00  0.00    -0.237 N 
HETATM   31  H   UNK N   1      25.985  22.670 -12.378  0.00  0.00     0.197 HD
BRANCH  30  32
HETATM   32  O   UNK N   1      27.273  23.691 -11.217  0.00  0.00    -0.287 OA
HETATM   33  H   UNK N   1      27.392  24.076 -10.334  0.00  0.00     0.244 HD
ENDBRANCH  30  32
ENDBRANCH  27  28
ENDBRANCH  26  27
BRANCH  26  34
HETATM   34  C   UNK N   1      29.515  20.823  -8.472  0.00  0.00     0.018 C 
BRANCH  34  35
HETATM   35  C   UNK N   1      29.707  19.882  -7.299  0.00  0.00    -0.022 C 
HETATM   36  C   UNK N   1      31.172  19.926  -6.914  0.00  0.00     0.009 C 
HETATM   37  C   UNK N   1      29.377  18.469  -7.736  0.00  0.00     0.009 C 
ENDBRANCH  34  35
ENDBRANCH  26  34
ENDBRANCH  23  26
ENDBRANCH   1  22
TORSDOF 7
ENDMDL
MODEL 7
REMARK VINA RESULT:      -7.5     12.314     14.563
REMARK  7 active torsions:
REMARK  status: ('A' for Active; 'I' for Inactive)
REMARK       I    between atoms: C_1  and  N_3 
REMARK    1  A    between atoms: C_1  and  C_5 
REMARK    2  A    between atoms: N_3  and  O_4 
REMARK    3  A    between atoms: C_5  and  C_6 
REMARK    4  A    between atoms: C_6  and  C_7 
REMARK    5  A    between atoms: C_6  and  C_21 
REMARK       I    between atoms: C_7  and  N_9 
REMARK    6  A    between atoms: C_10  and  N_9 
REMARK    7  A    between atoms: C_21  and  C_22 
ROOT
HETATM    1  C   UNK N   1      29.312  24.871  -3.739  0.00  0.00     0.180 C 
HETATM    2  C   UNK N   1      30.787  25.350  -3.677  0.00  0.00     0.240 C 
HETATM    3  O   UNK N   1      31.004  26.296  -2.934  0.00  0.00    -0.271 OA
HETATM    4  N   UNK N   1      31.866  24.834  -4.336  0.00  0.00    -0.359 N 
HETATM    5  C   UNK N   1      31.887  23.815  -5.341  0.00  0.00     0.122 C 
HETATM    6  C   UNK N   1      32.739  22.611  -4.940  0.00  0.00     0.020 C 
HETATM    7  C   UNK N   1      32.836  21.625  -6.115  0.00  0.00     0.002 C 
HETATM    8  C   UNK N   1      31.857  20.457  -5.962  0.00  0.00     0.002 C 
HETATM    9  C   UNK N   1      31.229  19.989  -7.295  0.00  0.00     0.020 C 
HETATM   10  C   UNK N   1      30.478  21.073  -8.109  0.00  0.00     0.128 C 
HETATM   11  N   UNK N   1      29.502  21.801  -7.301  0.00  0.00    -0.356 N 
HETATM   12  C   UNK N   1      28.726  23.513  -4.182  0.00  0.00     0.075 C 
HETATM   13  C   UNK N   1      28.725  22.972  -5.575  0.00  0.00    -0.028 A 
HETATM   14  C   UNK N   1      29.808  22.358  -6.121  0.00  0.00     0.099 A 
HETATM   15  C   UNK N   1      27.679  22.761  -6.456  0.00  0.00    -0.002 A 
HETATM   16  C   UNK N   1      28.199  22.043  -7.510  0.00  0.00     0.045 A 
HETATM   17  C   UNK N   1      26.334  23.100  -6.389  0.00  0.00     0.014 A 
HETATM   18  C   UNK N   1      27.407  21.636  -8.583  0.00  0.00     0.030 A 
HETATM   19  C   UNK N   1      25.509  22.704  -7.460  0.00  0.00     0.001 A 
HETATM   20  C   UNK N   1      26.044  21.980  -8.551  0.00  0.00     0.002 A 
HETATM   21  H   UNK N   1      32.741  25.212  -4.089  0.00  0.00     0.162 HD
ENDROOT
BRANCH   1  22
HETATM   22  N   UNK N   1      28.427  25.965  -4.076  0.00  0.00    -0.347 N 
HETATM   23  C   UNK N   1      27.099  26.030  -3.817  0.00  0.00     0.223 C 
HETATM   24  O   UNK N   1      26.544  25.160  -3.160  0.00  0.00    -0.273 OA
HETATM   25  H   UNK N   1      28.828  26.735  -4.538  0.00  0.00     0.163 HD
BRANCH  23  26
HETATM   26  C   UNK N   1      26.297  27.122  -4.498  0.00  0.00     0.087 C 
BRANCH  26  27
HETATM   27  C   UNK N   1      25.907  28.224  -3.498  0.00  0.00     0.119 C 
BRANCH  27  28
HETATM   28  C   UNK N   1      27.015  29.180  -3.125  0.00  0.00     0.241 C 
HETATM   29  O   UNK N   1      28.036  28.726  -2.639  0.00  0.00    -0.271 OA
HETATM   30  N   UNK N   1      26.904  30.516  -3.306  0.00  0.00    -0.237 N 
HETATM   31  H   UNK N   1      27.649  31.101  -3.038  0.00  0.00     0.197 HD
BRANCH  30  32
HETATM   32  O   UNK N   1      25.806  31.059  -3.843  0.00  0.00    -0.287 OA
HETATM   33  H   UNK N   1      25.428  31.935  -4.021  0.00  0.00     0.244 HD
ENDBRANCH  30  32
ENDBRANCH  27  28
ENDBRANCH  26  27
BRANCH  26  34
HETATM   34  C   UNK N   1      27.027  27.832  -5.644  0.00  0.00     0.018 C 
BRANCH  34  35
HETATM   35  C   UNK N   1      26.726  27.314  -7.037  0.00  0.00    -0.022 C 
HETATM   36  C   UNK N   1      25.447  26.505  -6.955  0.00  0.00     0.009 C 
HETATM   37  C   UNK N   1      27.842  26.387  -7.474  0.00  0.00     0.009 C 
ENDBRANCH  34  35
ENDBRANCH  26  34
ENDBRANCH  23  26
ENDBRANCH   1  22
TORSDOF 7
ENDMDL
MODEL 8
REMARK VINA RESULT:      -7.5      1.765      2.064
REMARK  7 active torsions:
REMARK  status: ('A' for Active; 'I' for Inactive)
REMARK       I    between atoms: C_1  and  N_3 
REMARK    1  A    between atoms: C_1  and  C_5 
REMARK    2  A    between atoms: N_3  and  O_4 
REMARK    3  A    between atoms: C_5  and  C_6 
REMARK    4  A    between atoms: C_6  and  C_7 
REMARK    5  A    between atoms: C_6  and  C_21 
REMARK       I    between atoms: C_7  and  N_9 
REMARK    6  A    between atoms: C_10  and  N_9 
REMARK    7  A    between atoms: C_21  and  C_22 
ROOT
HETATM    1  C   UNK N   1      24.747  18.049   4.264  0.00  0.00     0.180 C 
HETATM    2  C   UNK N   1      23.799  19.218   3.882  0.00  0.00     0.240 C 
HETATM    3  O   UNK N   1      24.348  20.231   3.476  0.00  0.00    -0.271 OA
HETATM    4  N   UNK N   1      22.435  19.243   3.930  0.00  0.00    -0.359 N 
HETATM    5  C   UNK N   1      21.548  18.254   4.463  0.00  0.00     0.122 C 
HETATM    6  C   UNK N   1      20.566  17.720   3.420  0.00  0.00     0.020 C 
HETATM    7  C   UNK N   1      19.555  16.776   4.089  0.00  0.00     0.002 C 
HETATM    8  C   UNK N   1      19.927  15.304   3.884  0.00  0.00     0.002 C 
HETATM    9  C   UNK N   1      19.630  14.408   5.107  0.00  0.00     0.020 C 
HETATM   10  C   UNK N   1      20.294  14.835   6.439  0.00  0.00     0.128 C 
HETATM   11  N   UNK N   1      21.731  15.063   6.299  0.00  0.00    -0.356 N 
HETATM   12  C   UNK N   1      24.459  16.537   4.390  0.00  0.00     0.075 C 
HETATM   13  C   UNK N   1      23.607  15.891   5.434  0.00  0.00    -0.028 A 
HETATM   14  C   UNK N   1      22.251  15.849   5.347  0.00  0.00     0.099 A 
HETATM   15  C   UNK N   1      23.950  15.060   6.485  0.00  0.00    -0.002 A 
HETATM   16  C   UNK N   1      22.767  14.575   6.998  0.00  0.00     0.045 A 
HETATM   17  C   UNK N   1      25.184  14.669   6.987  0.00  0.00     0.014 A 
HETATM   18  C   UNK N   1      22.742  13.681   8.067  0.00  0.00     0.030 A 
HETATM   19  C   UNK N   1      25.191  13.769   8.070  0.00  0.00     0.001 A 
HETATM   20  C   UNK N   1      23.977  13.281   8.609  0.00  0.00     0.002 A 
HETATM   21  H   UNK N   1      22.007  20.043   3.550  0.00  0.00     0.162 HD
ENDROOT
BRANCH   1  22
HETATM   22  N   UNK N   1      25.739  18.480   5.226  0.00  0.00    -0.347 N 
HETATM   23  C   UNK N   1      27.033  18.782   4.961  0.00  0.00     0.223 C 
HETATM   24  O   UNK N   1      27.451  18.801   3.812  0.00  0.00    -0.273 OA
HETATM   25  H   UNK N   1      25.445  18.562   6.161  0.00  0.00     0.163 HD
BRANCH  23  26
HETATM   26  C   UNK N   1      27.978  18.936   6.136  0.00  0.00     0.087 C 
BRANCH  26  27
HETATM   27  C   UNK N   1      27.308  19.713   7.283  0.00  0.00     0.119 C 
BRANCH  27  28
HETATM   28  C   UNK N   1      26.906  21.130   6.955  0.00  0.00     0.241 C 
HETATM   29  O   UNK N   1      27.514  21.721   6.080  0.00  0.00    -0.271 OA
HETATM   30  N   UNK N   1      25.903  21.762   7.606  0.00  0.00    -0.237 N 
HETATM   31  H   UNK N   1      25.683  22.691   7.365  0.00  0.00     0.197 HD
BRANCH  30  32
HETATM   32  O   UNK N   1      25.201  21.153   8.569  0.00  0.00    -0.287 OA
HETATM   33  H   UNK N   1      24.322  21.192   8.978  0.00  0.00     0.244 HD
ENDBRANCH  30  32
ENDBRANCH  27  28
ENDBRANCH  26  27
BRANCH  26  34
HETATM   34  C   UNK N   1      28.462  17.616   6.747  0.00  0.00     0.018 C 
BRANCH  34  35
HETATM   35  C   UNK N   1      29.964  17.466   6.886  0.00  0.00    -0.022 C 
HETATM   36  C   UNK N   1      30.335  16.093   6.364  0.00  0.00     0.009 C 
HETATM   37  C   UNK N   1      30.335  17.529   8.353  0.00  0.00     0.009 C 
ENDBRANCH  34  35
ENDBRANCH  26  34
ENDBRANCH  23  26
ENDBRANCH   1  22
TORSDOF 7
ENDMDL
MODEL 9
REMARK VINA RESULT:      -7.4      3.684      8.541
REMARK  7 active torsions:
REMARK  status: ('A' for Active; 'I' for Inactive)
REMARK       I    between atoms: C_1  and  N_3 
REMARK    1  A    between atoms: C_1  and  C_5 
REMARK    2  A    between atoms: N_3  and  O_4 
REMARK    3  A    between atoms: C_5  and  C_6 
REMARK    4  A    between atoms: C_6  and  C_7 
REMARK    5  A    between atoms: C_6  and  C_21 
REMARK       I    between atoms: C_7  and  N_9 
REMARK    6  A    between atoms: C_10  and  N_9 
REMARK    7  A    between atoms: C_21  and  C_22 
ROOT
HETATM    1  C   UNK N   1      25.031  14.656   2.411  0.00  0.00     0.180 C 
HETATM    2  C   UNK N   1      25.311  13.258   3.023  0.00  0.00     0.240 C 
HETATM    3  O   UNK N   1      24.578  12.358   2.641  0.00  0.00    -0.271 OA
HETATM    4  N   UNK N   1      26.282  12.912   3.919  0.00  0.00    -0.359 N 
HETATM    5  C   UNK N   1      27.195  13.769   4.612  0.00  0.00     0.122 C 
HETATM    6  C   UNK N   1      28.657  13.430   4.321  0.00  0.00     0.020 C 
HETATM    7  C   UNK N   1      29.578  14.288   5.203  0.00  0.00     0.002 C 
HETATM    8  C   UNK N   1      30.139  15.492   4.440  0.00  0.00     0.002 C 
HETATM    9  C   UNK N   1      30.260  16.773   5.297  0.00  0.00     0.020 C 
HETATM   10  C   UNK N   1      28.956  17.264   5.972  0.00  0.00     0.128 C 
HETATM   11  N   UNK N   1      27.846  17.374   5.028  0.00  0.00    -0.356 N 
HETATM   12  C   UNK N   1      25.951  15.892   2.294  0.00  0.00     0.075 C 
HETATM   13  C   UNK N   1      26.435  16.734   3.430  0.00  0.00    -0.028 A 
HETATM   14  C   UNK N   1      27.494  16.377   4.204  0.00  0.00     0.099 A 
HETATM   15  C   UNK N   1      26.128  18.038   3.775  0.00  0.00    -0.002 A 
HETATM   16  C   UNK N   1      27.014  18.394   4.769  0.00  0.00     0.045 A 
HETATM   17  C   UNK N   1      25.190  18.930   3.273  0.00  0.00     0.014 A 
HETATM   18  C   UNK N   1      27.003  19.664   5.342  0.00  0.00     0.030 A 
HETATM   19  C   UNK N   1      25.153  20.221   3.834  0.00  0.00     0.001 A 
HETATM   20  C   UNK N   1      26.052  20.584   4.865  0.00  0.00     0.002 A 
HETATM   21  H   UNK N   1      26.364  11.950   4.113  0.00  0.00     0.162 HD
ENDROOT
BRANCH   1  22
HETATM   22  N   UNK N   1      23.650  15.041   2.609  0.00  0.00    -0.347 N 
HETATM   23  C   UNK N   1      22.659  14.971   1.688  0.00  0.00     0.223 C 
HETATM   24  O   UNK N   1      22.855  14.463   0.593  0.00  0.00    -0.273 OA
HETATM   25  H   UNK N   1      23.408  15.386   3.497  0.00  0.00     0.163 HD
BRANCH  23  26
HETATM   26  C   UNK N   1      21.356  15.682   1.995  0.00  0.00     0.087 C 
BRANCH  26  27
HETATM   27  C   UNK N   1      20.273  15.316   0.966  0.00  0.00     0.119 C 
BRANCH  27  28
HETATM   28  C   UNK N   1      19.695  16.479   0.195  0.00  0.00     0.241 C 
HETATM   29  O   UNK N   1      20.393  17.462   0.015  0.00  0.00    -0.271 OA
HETATM   30  N   UNK N   1      18.433  16.465  -0.290  0.00  0.00    -0.237 N 
HETATM   31  H   UNK N   1      18.096  17.251  -0.777  0.00  0.00     0.197 HD
BRANCH  30  32
HETATM   32  O   UNK N   1      17.632  15.406  -0.123  0.00  0.00    -0.287 OA
HETATM   33  H   UNK N   1      17.473  14.695   0.517  0.00  0.00     0.244 HD
ENDBRANCH  30  32
ENDBRANCH  27  28
ENDBRANCH  26  27
BRANCH  26  34
HETATM   34  C   UNK N   1      20.759  15.360   3.369  0.00  0.00     0.018 C 
BRANCH  34  35
HETATM   35  C   UNK N   1      19.765  16.369   3.909  0.00  0.00    -0.022 C 
HETATM   36  C   UNK N   1      20.499  17.684   4.079  0.00  0.00     0.009 C 
HETATM   37  C   UNK N   1      19.288  15.916   5.273  0.00  0.00     0.009 C 
ENDBRANCH  34  35
ENDBRANCH  26  34
ENDBRANCH  23  26
ENDBRANCH   1  22
TORSDOF 7
ENDMDL
