MODEL 1
REMARK VINA RESULT:      -8.2      0.000      0.000
REMARK  7 active torsions:
REMARK  status: ('A' for Active; 'I' for Inactive)
REMARK    1  A    between atoms: C_5  and  O_7 
REMARK    2  A    between atoms: O_7  and  C_8 
REMARK    3  A    between atoms: C_11  and  S_14 
REMARK    4  A    between atoms: S_14  and  C_17 
REMARK    5  A    between atoms: C_17  and  C_18 
REMARK    6  A    between atoms: C_18  and  C_24 
REMARK       I    between atoms: C_24  and  N_25 
REMARK    7  A    between atoms: N_25  and  O_27 
ROOT
HETATM    1  S   UNK N   1      34.077  15.202   8.250  0.00  0.00     0.176 S 
HETATM    2  O   UNK N   1      34.941  14.580   7.143  0.00  0.00    -0.223 OA
HETATM    3  O   UNK N   1      33.306  13.876   8.316  0.00  0.00    -0.223 OA
ENDROOT
BRANCH   1   4
HETATM    4  C   UNK N   1      34.617  14.820   9.906  0.00  0.00     0.059 A 
HETATM    5  C   UNK N   1      35.110  15.805  10.786  0.00  0.00     0.026 A 
HETATM    6  C   UNK N   1      35.785  15.424  11.956  0.00  0.00     0.039 A 
HETATM    7  C   UNK N   1      35.982  14.064  12.226  0.00  0.00     0.076 A 
HETATM    8  C   UNK N   1      35.407  13.105  11.374  0.00  0.00     0.039 A 
HETATM    9  C   UNK N   1      34.745  13.478  10.222  0.00  0.00     0.026 A 
BRANCH   7  10
HETATM   10  O   UNK N   1      36.744  13.663  13.279  0.00  0.00    -0.311 OA
BRANCH  10  11
HETATM   11  C   UNK N   1      36.263  13.735  14.549  0.00  0.00     0.076 A 
HETATM   12  C   UNK N   1      35.162  12.962  14.924  0.00  0.00     0.039 A 
HETATM   13  C   UNK N   1      34.777  12.907  16.269  0.00  0.00     0.026 A 
HETATM   14  C   UNK N   1      35.480  13.635  17.235  0.00  0.00     0.034 A 
HETATM   15  C   UNK N   1      36.541  14.456  16.857  0.00  0.00     0.026 A 
HETATM   16 Cl   UNK N   1      35.061  13.492  18.927  0.00  0.00    -0.084 Cl
HETATM   17  C   UNK N   1      36.929  14.508  15.523  0.00  0.00     0.039 A 
ENDBRANCH  10  11
ENDBRANCH   7  10
ENDBRANCH   1   4
BRANCH   1  18
HETATM   18  C   UNK N   1      32.432  15.827   7.758  0.00  0.00     0.165 C 
BRANCH  18  19
HETATM   19  C   UNK N   1      32.289  17.312   7.400  0.00  0.00     0.060 C 
HETATM   20  C   UNK N   1      31.647  17.363   5.997  0.00  0.00     0.046 C 
HETATM   21  C   UNK N   1      30.131  17.080   6.017  0.00  0.00     0.168 C 
HETATM   22  O   UNK N   1      29.691  16.688   7.296  0.00  0.00    -0.391 OA
HETATM   23  C   UNK N   1      29.874  17.801   8.134  0.00  0.00     0.168 C 
HETATM   24  C   UNK N   1      31.371  18.060   8.392  0.00  0.00     0.046 C 
BRANCH  19  25
HETATM   25  C   UNK N   1      33.658  17.951   7.384  0.00  0.00     0.250 C 
HETATM   26  N   UNK N   1      34.113  18.615   8.471  0.00  0.00    -0.237 N 
HETATM   27  H   UNK N   1      33.539  18.688   9.268  0.00  0.00     0.197 HD
HETATM   28  O   UNK N   1      34.369  17.868   6.386  0.00  0.00    -0.271 OA
BRANCH  26  29
HETATM   29  O   UNK N   1      35.327  19.175   8.482  0.00  0.00    -0.287 OA
HETATM   30  H   UNK N   1      35.829  19.280   7.659  0.00  0.00     0.244 HD
ENDBRANCH  26  29
ENDBRANCH  19  25
ENDBRANCH  18  19
ENDBRANCH   1  18
TORSDOF 7
ENDMDL
MODEL 2
REMARK VINA RESULT:      -8.1      5.276      9.621
REMARK  7 active torsions:
REMARK  status: ('A' for Active; 'I' for Inactive)
REMARK    1  A    between atoms: C_5  and  O_7 
REMARK    2  A    between atoms: O_7  and  C_8 
REMARK    3  A    between atoms: C_11  and  S_14 
REMARK    4  A    between atoms: S_14  and  C_17 
REMARK    5  A    between atoms: C_17  and  C_18 
REMARK    6  A    between atoms: C_18  and  C_24 
REMARK       I    between atoms: C_24  and  N_25 
REMARK    7  A    between atoms: N_25  and  O_27 
ROOT
HETATM    1  S   UNK N   1      34.250  17.404   7.801  0.00  0.00     0.176 S 
HETATM    2  O   UNK N   1      35.061  18.707   7.729  0.00  0.00    -0.223 OA
HETATM    3  O   UNK N   1      33.753  17.856   9.182  0.00  0.00    -0.223 OA
ENDROOT
BRANCH   1   4
HETATM    4  C   UNK N   1      32.552  17.566   7.282  0.00  0.00     0.059 A 
HETATM    5  C   UNK N   1      31.500  17.786   8.195  0.00  0.00     0.026 A 
HETATM    6  C   UNK N   1      30.169  17.620   7.785  0.00  0.00     0.039 A 
HETATM    7  C   UNK N   1      29.899  17.213   6.472  0.00  0.00     0.076 A 
HETATM    8  C   UNK N   1      30.963  17.083   5.561  0.00  0.00     0.039 A 
HETATM    9  C   UNK N   1      32.272  17.244   5.965  0.00  0.00     0.026 A 
BRANCH   7  10
HETATM   10  O   UNK N   1      28.632  16.915   6.078  0.00  0.00    -0.311 OA
BRANCH  10  11
HETATM   11  C   UNK N   1      27.976  17.714   5.193  0.00  0.00     0.076 A 
HETATM   12  C   UNK N   1      26.945  17.190   4.410  0.00  0.00     0.039 A 
HETATM   13  C   UNK N   1      26.161  18.047   3.630  0.00  0.00     0.026 A 
HETATM   14  C   UNK N   1      26.415  19.424   3.619  0.00  0.00     0.034 A 
HETATM   15  C   UNK N   1      27.481  19.944   4.351  0.00  0.00     0.026 A 
HETATM   16 Cl   UNK N   1      25.376  20.507   2.722  0.00  0.00    -0.084 Cl
HETATM   17  C   UNK N   1      28.258  19.095   5.131  0.00  0.00     0.039 A 
ENDBRANCH  10  11
ENDBRANCH   7  10
ENDBRANCH   1   4
BRANCH   1  18
HETATM   18  C   UNK N   1      34.960  16.045   8.796  0.00  0.00     0.165 C 
BRANCH  18  19
HETATM   19  C   UNK N   1      34.389  14.632   8.619  0.00  0.00     0.060 C 
HETATM   20  C   UNK N   1      34.425  14.333   7.105  0.00  0.00     0.046 C 
HETATM   21  C   UNK N   1      35.837  13.975   6.596  0.00  0.00     0.168 C 
HETATM   22  O   UNK N   1      36.811  14.148   7.597  0.00  0.00    -0.391 OA
HETATM   23  C   UNK N   1      36.523  13.200   8.595  0.00  0.00     0.168 C 
HETATM   24  C   UNK N   1      35.235  13.570   9.355  0.00  0.00     0.046 C 
BRANCH  19  25
HETATM   25  C   UNK N   1      32.968  14.605   9.135  0.00  0.00     0.250 C 
HETATM   26  N   UNK N   1      32.659  15.194  10.312  0.00  0.00    -0.237 N 
HETATM   27  H   UNK N   1      33.371  15.630  10.836  0.00  0.00     0.197 HD
HETATM   28  O   UNK N   1      32.084  14.052   8.486  0.00  0.00    -0.271 OA
BRANCH  26  29
HETATM   29  O   UNK N   1      31.406  15.193  10.779  0.00  0.00    -0.287 OA
HETATM   30  H   UNK N   1      30.662  15.400  10.192  0.00  0.00     0.244 HD
ENDBRANCH  26  29
ENDBRANCH  19  25
ENDBRANCH  18  19
ENDBRANCH   1  18
TORSDOF 7
ENDMDL
MODEL 3
REMARK VINA RESULT:      -7.8     11.531     13.850
REMARK  7 active torsions:
REMARK  status: ('A' for Active; 'I' for Inactive)
REMARK    1  A    between atoms: C_5  and  O_7 
REMARK    2  A    between atoms: O_7  and  C_8 
REMARK    3  A    between atoms: C_11  and  S_14 
REMARK    4  A    between atoms: S_14  and  C_17 
REMARK    5  A    between atoms: C_17  and  C_18 
REMARK    6  A    between atoms: C_18  and  C_24 
REMARK       I    between atoms: C_24  and  N_25 
REMARK    7  A    between atoms: N_25  and  O_27 
ROOT
HETATM    1  S   UNK N   1      19.380  14.977   4.829  0.00  0.00     0.176 S 
HETATM    2  O   UNK N   1      17.999  14.341   4.609  0.00  0.00    -0.223 OA
HETATM    3  O   UNK N   1      18.774  15.752   6.007  0.00  0.00    -0.223 OA
ENDROOT
BRANCH   1   4
HETATM    4  C   UNK N   1      20.381  14.156   6.055  0.00  0.00     0.059 A 
HETATM    5  C   UNK N   1      21.271  14.855   6.896  0.00  0.00     0.026 A 
HETATM    6  C   UNK N   1      22.236  14.153   7.634  0.00  0.00     0.039 A 
HETATM    7  C   UNK N   1      22.320  12.760   7.508  0.00  0.00     0.076 A 
HETATM    8  C   UNK N   1      21.367  12.083   6.727  0.00  0.00     0.039 A 
HETATM    9  C   UNK N   1      20.419  12.773   6.000  0.00  0.00     0.026 A 
BRANCH   7  10
HETATM   10  O   UNK N   1      23.325  12.063   8.103  0.00  0.00    -0.311 OA
BRANCH  10  11
HETATM   11  C   UNK N   1      23.384  11.955   9.458  0.00  0.00     0.076 A 
HETATM   12  C   UNK N   1      24.614  12.050  10.113  0.00  0.00     0.039 A 
HETATM   13  C   UNK N   1      24.654  12.112  11.511  0.00  0.00     0.026 A 
HETATM   14  C   UNK N   1      23.469  12.062  12.254  0.00  0.00     0.034 A 
HETATM   15  C   UNK N   1      22.244  11.905  11.608  0.00  0.00     0.026 A 
HETATM   16 Cl   UNK N   1      23.510  12.236  13.994  0.00  0.00    -0.084 Cl
HETATM   17  C   UNK N   1      22.202  11.849  10.220  0.00  0.00     0.039 A 
ENDBRANCH  10  11
ENDBRANCH   7  10
ENDBRANCH   1   4
BRANCH   1  18
HETATM   18  C   UNK N   1      19.620  16.670   4.184  0.00  0.00     0.165 C 
BRANCH  18  19
HETATM   19  C   UNK N   1      20.653  16.891   3.072  0.00  0.00     0.060 C 
HETATM   20  C   UNK N   1      20.939  18.408   3.037  0.00  0.00     0.046 C 
HETATM   21  C   UNK N   1      21.865  18.873   4.179  0.00  0.00     0.168 C 
HETATM   22  O   UNK N   1      22.126  17.835   5.094  0.00  0.00    -0.391 OA
HETATM   23  C   UNK N   1      22.860  16.864   4.390  0.00  0.00     0.168 C 
HETATM   24  C   UNK N   1      21.975  16.144   3.354  0.00  0.00     0.046 C 
BRANCH  19  25
HETATM   25  C   UNK N   1      20.071  16.427   1.757  0.00  0.00     0.250 C 
HETATM   26  N   UNK N   1      19.104  17.149   1.147  0.00  0.00    -0.237 N 
HETATM   27  H   UNK N   1      18.775  17.974   1.574  0.00  0.00     0.197 HD
HETATM   28  O   UNK N   1      20.475  15.394   1.230  0.00  0.00    -0.271 OA
BRANCH  26  29
HETATM   29  O   UNK N   1      18.585  16.764  -0.023  0.00  0.00    -0.287 OA
HETATM   30  H   UNK N   1      18.829  17.220  -0.844  0.00  0.00     0.244 HD
ENDBRANCH  26  29
ENDBRANCH  19  25
ENDBRANCH  18  19
ENDBRANCH   1  18
TORSDOF 7
ENDMDL
MODEL 4
REMARK VINA RESULT:      -7.7      4.250      9.222
REMARK  7 active torsions:
REMARK  status: ('A' for Active; 'I' for Inactive)
REMARK    1  A    between atoms: C_5  and  O_7 
REMARK    2  A    between atoms: O_7  and  C_8 
REMARK    3  A    between atoms: C_11  and  S_14 
REMARK    4  A    between atoms: S_14  and  C_17 
REMARK    5  A    between atoms: C_17  and  C_18 
REMARK    6  A    between atoms: C_18  and  C_24 
REMARK       I    between atoms: C_24  and  N_25 
REMARK    7  A    between atoms: N_25  and  O_27 
ROOT
HETATM    1  S   UNK N   1      35.822  15.277  10.506  0.00  0.00     0.176 S 
HETATM    2  O   UNK N   1      37.064  16.093  10.893  0.00  0.00    -0.223 OA
HETATM    3  O   UNK N   1      34.980  16.290  11.293  0.00  0.00    -0.223 OA
ENDROOT
BRANCH   1   4
HETATM    4  C   UNK N   1      34.965  15.883   9.064  0.00  0.00     0.059 A 
HETATM    5  C   UNK N   1      34.918  15.161   7.854  0.00  0.00     0.026 A 
HETATM    6  C   UNK N   1      34.489  15.794   6.677  0.00  0.00     0.039 A 
HETATM    7  C   UNK N   1      34.134  17.148   6.713  0.00  0.00     0.076 A 
HETATM    8  C   UNK N   1      34.111  17.819   7.949  0.00  0.00     0.039 A 
HETATM    9  C   UNK N   1      34.534  17.198   9.106  0.00  0.00     0.026 A 
BRANCH   7  10
HETATM   10  O   UNK N   1      33.841  17.826   5.570  0.00  0.00    -0.311 OA
BRANCH  10  11
HETATM   11  C   UNK N   1      32.750  17.494   4.829  0.00  0.00     0.076 A 
HETATM   12  C   UNK N   1      32.895  17.179   3.476  0.00  0.00     0.039 A 
HETATM   13  C   UNK N   1      31.804  16.674   2.760  0.00  0.00     0.026 A 
HETATM   14  C   UNK N   1      30.566  16.499   3.389  0.00  0.00     0.034 A 
HETATM   15  C   UNK N   1      30.400  16.869   4.722  0.00  0.00     0.026 A 
HETATM   16 Cl   UNK N   1      29.229  15.777   2.523  0.00  0.00    -0.084 Cl
HETATM   17  C   UNK N   1      31.484  17.366   5.437  0.00  0.00     0.039 A 
ENDBRANCH  10  11
ENDBRANCH   7  10
ENDBRANCH   1   4
BRANCH   1  18
HETATM   18  C   UNK N   1      35.155  14.140  11.771  0.00  0.00     0.165 C 
BRANCH  18  19
HETATM   19  C   UNK N   1      36.019  12.954  12.219  0.00  0.00     0.060 C 
HETATM   20  C   UNK N   1      36.719  13.392  13.524  0.00  0.00     0.046 C 
HETATM   21  C   UNK N   1      35.784  13.352  14.750  0.00  0.00     0.168 C 
HETATM   22  O   UNK N   1      34.455  13.068  14.384  0.00  0.00    -0.391 OA
HETATM   23  C   UNK N   1      34.457  11.759  13.874  0.00  0.00     0.168 C 
HETATM   24  C   UNK N   1      35.171  11.697  12.509  0.00  0.00     0.046 C 
BRANCH  19  25
HETATM   25  C   UNK N   1      37.038  12.650  11.144  0.00  0.00     0.250 C 
HETATM   26  N   UNK N   1      38.263  13.221  11.185  0.00  0.00    -0.237 N 
HETATM   27  H   UNK N   1      38.481  13.844  11.916  0.00  0.00     0.197 HD
HETATM   28  O   UNK N   1      36.761  11.881  10.228  0.00  0.00    -0.271 OA
BRANCH  26  29
HETATM   29  O   UNK N   1      39.182  12.955  10.252  0.00  0.00    -0.287 OA
HETATM   30  H   UNK N   1      40.122  12.909  10.486  0.00  0.00     0.244 HD
ENDBRANCH  26  29
ENDBRANCH  19  25
ENDBRANCH  18  19
ENDBRANCH   1  18
TORSDOF 7
ENDMDL
MODEL 5
REMARK VINA RESULT:      -7.6      5.825     10.684
REMARK  7 active torsions:
REMARK  status: ('A' for Active; 'I' for Inactive)
REMARK    1  A    between atoms: C_5  and  O_7 
REMARK    2  A    between atoms: O_7  and  C_8 
REMARK    3  A    between atoms: C_11  and  S_14 
REMARK    4  A    between atoms: S_14  and  C_17 
REMARK    5  A    between atoms: C_17  and  C_18 
REMARK    6  A    between atoms: C_18  and  C_24 
REMARK       I    between atoms: C_24  and  N_25 
REMARK    7  A    between atoms: N_25  and  O_27 
ROOT
HETATM    1  S   UNK N   1      30.959  17.731   8.155  0.00  0.00     0.176 S 
HETATM    2  O   UNK N   1      30.687  18.879   9.139  0.00  0.00    -0.223 OA
HETATM    3  O   UNK N   1      29.993  16.870   8.980  0.00  0.00    -0.223 OA
ENDROOT
BRANCH   1   4
HETATM    4  C   UNK N   1      29.759  17.588   6.843  0.00  0.00     0.059 A 
HETATM    5  C   UNK N   1      30.039  16.923   5.632  0.00  0.00     0.026 A 
HETATM    6  C   UNK N   1      29.184  17.082   4.531  0.00  0.00     0.039 A 
HETATM    7  C   UNK N   1      28.070  17.923   4.641  0.00  0.00     0.076 A 
HETATM    8  C   UNK N   1      27.770  18.507   5.885  0.00  0.00     0.039 A 
HETATM    9  C   UNK N   1      28.611  18.352   6.967  0.00  0.00     0.026 A 
BRANCH   7  10
HETATM   10  O   UNK N   1      27.295  18.204   3.558  0.00  0.00    -0.311 OA
BRANCH  10  11
HETATM   11  C   UNK N   1      25.993  18.564   3.714  0.00  0.00     0.076 A 
HETATM   12  C   UNK N   1      25.581  19.856   3.378  0.00  0.00     0.039 A 
HETATM   13  C   UNK N   1      24.217  20.171   3.375  0.00  0.00     0.026 A 
HETATM   14  C   UNK N   1      23.267  19.203   3.722  0.00  0.00     0.034 A 
HETATM   15  C   UNK N   1      23.677  17.931   4.117  0.00  0.00     0.026 A 
HETATM   16 Cl   UNK N   1      21.559  19.567   3.625  0.00  0.00    -0.084 Cl
HETATM   17  C   UNK N   1      25.031  17.614   4.115  0.00  0.00     0.039 A 
ENDBRANCH  10  11
ENDBRANCH   7  10
ENDBRANCH   1   4
BRANCH   1  18
HETATM   18  C   UNK N   1      32.142  16.447   8.693  0.00  0.00     0.165 C 
BRANCH  18  19
HETATM   19  C   UNK N   1      33.386  16.189   7.832  0.00  0.00     0.060 C 
HETATM   20  C   UNK N   1      34.251  15.172   8.609  0.00  0.00     0.046 C 
HETATM   21  C   UNK N   1      33.715  13.729   8.512  0.00  0.00     0.168 C 
HETATM   22  O   UNK N   1      32.468  13.678   7.861  0.00  0.00    -0.391 OA
HETATM   23  C   UNK N   1      32.700  14.079   6.534  0.00  0.00     0.168 C 
HETATM   24  C   UNK N   1      33.023  15.584   6.458  0.00  0.00     0.046 C 
BRANCH  19  25
HETATM   25  C   UNK N   1      34.133  17.489   7.641  0.00  0.00     0.250 C 
HETATM   26  N   UNK N   1      34.660  18.135   8.706  0.00  0.00    -0.237 N 
HETATM   27  H   UNK N   1      34.542  17.756   9.607  0.00  0.00     0.197 HD
HETATM   28  O   UNK N   1      34.269  17.965   6.517  0.00  0.00    -0.271 OA
BRANCH  26  29
HETATM   29  O   UNK N   1      35.336  19.278   8.556  0.00  0.00    -0.287 OA
HETATM   30  H   UNK N   1      35.124  19.885   7.830  0.00  0.00     0.244 HD
ENDBRANCH  26  29
ENDBRANCH  19  25
ENDBRANCH  18  19
ENDBRANCH   1  18
TORSDOF 7
ENDMDL
MODEL 6
REMARK VINA RESULT:      -7.5     16.103     18.801
REMARK  7 active torsions:
REMARK  status: ('A' for Active; 'I' for Inactive)
REMARK    1  A    between atoms: C_5  and  O_7 
REMARK    2  A    between atoms: O_7  and  C_8 
REMARK    3  A    between atoms: C_11  and  S_14 
REMARK    4  A    between atoms: S_14  and  C_17 
REMARK    5  A    between atoms: C_17  and  C_18 
REMARK    6  A    between atoms: C_18  and  C_24 
REMARK       I    between atoms: C_24  and  N_25 
REMARK    7  A    between atoms: N_25  and  O_27 
ROOT
HETATM    1  S   UNK N   1      27.227  24.871  -4.095  0.00  0.00     0.176 S 
HETATM    2  O   UNK N   1      26.343  23.792  -4.740  0.00  0.00    -0.223 OA
HETATM    3  O   UNK N   1      26.603  24.494  -2.744  0.00  0.00    -0.223 OA
ENDROOT
BRANCH   1   4
HETATM    4  C   UNK N   1      28.755  24.257  -3.413  0.00  0.00     0.059 A 
HETATM    5  C   UNK N   1      30.004  24.494  -4.022  0.00  0.00     0.026 A 
HETATM    6  C   UNK N   1      31.131  23.762  -3.620  0.00  0.00     0.039 A 
HETATM    7  C   UNK N   1      30.997  22.781  -2.630  0.00  0.00     0.076 A 
HETATM    8  C   UNK N   1      29.759  22.624  -1.982  0.00  0.00     0.039 A 
HETATM    9  C   UNK N   1      28.650  23.343  -2.378  0.00  0.00     0.026 A 
BRANCH   7  10
HETATM   10  O   UNK N   1      32.035  21.962  -2.309  0.00  0.00    -0.311 OA
BRANCH  10  11
HETATM   11  C   UNK N   1      32.558  21.112  -3.234  0.00  0.00     0.076 A 
HETATM   12  C   UNK N   1      31.736  20.562  -4.220  0.00  0.00     0.039 A 
HETATM   13  C   UNK N   1      32.303  19.828  -5.268  0.00  0.00     0.026 A 
HETATM   14  C   UNK N   1      33.688  19.631  -5.323  0.00  0.00     0.034 A 
HETATM   15  C   UNK N   1      34.506  20.125  -4.309  0.00  0.00     0.026 A 
HETATM   16 Cl   UNK N   1      34.408  18.798  -6.682  0.00  0.00    -0.084 Cl
HETATM   17  C   UNK N   1      33.945  20.859  -3.270  0.00  0.00     0.039 A 
ENDBRANCH  10  11
ENDBRANCH   7  10
ENDBRANCH   1   4
BRANCH   1  18
HETATM   18  C   UNK N   1      26.430  26.471  -3.717  0.00  0.00     0.165 C 
BRANCH  18  19
HETATM   19  C   UNK N   1      26.496  27.589  -4.765  0.00  0.00     0.060 C 
HETATM   20  C   UNK N   1      25.899  28.848  -4.099  0.00  0.00     0.046 C 
HETATM   21  C   UNK N   1      26.873  29.526  -3.114  0.00  0.00     0.168 C 
HETATM   22  O   UNK N   1      28.040  28.761  -2.924  0.00  0.00    -0.391 OA
HETATM   23  C   UNK N   1      28.708  28.749  -4.161  0.00  0.00     0.168 C 
HETATM   24  C   UNK N   1      27.947  27.896  -5.194  0.00  0.00     0.046 C 
BRANCH  19  25
HETATM   25  C   UNK N   1      25.678  27.185  -5.970  0.00  0.00     0.250 C 
HETATM   26  N   UNK N   1      26.292  26.796  -7.111  0.00  0.00    -0.237 N 
HETATM   27  H   UNK N   1      27.276  26.788  -7.151  0.00  0.00     0.197 HD
HETATM   28  O   UNK N   1      24.451  27.204  -5.921  0.00  0.00    -0.271 OA
BRANCH  26  29
HETATM   29  O   UNK N   1      25.587  26.421  -8.183  0.00  0.00    -0.287 OA
HETATM   30  H   UNK N   1      25.608  26.950  -8.996  0.00  0.00     0.244 HD
ENDBRANCH  26  29
ENDBRANCH  19  25
ENDBRANCH  18  19
ENDBRANCH   1  18
TORSDOF 7
ENDMDL
MODEL 7
REMARK VINA RESULT:      -7.5      1.835      2.994
REMARK  7 active torsions:
REMARK  status: ('A' for Active; 'I' for Inactive)
REMARK    1  A    between atoms: C_5  and  O_7 
REMARK    2  A    between atoms: O_7  and  C_8 
REMARK    3  A    between atoms: C_11  and  S_14 
REMARK    4  A    between atoms: S_14  and  C_17 
REMARK    5  A    between atoms: C_17  and  C_18 
REMARK    6  A    between atoms: C_18  and  C_24 
REMARK       I    between atoms: C_24  and  N_25 
REMARK    7  A    between atoms: N_25  and  O_27 
ROOT
HETATM    1  S   UNK N   1      33.973  17.797   8.225  0.00  0.00     0.176 S 
HETATM    2  O   UNK N   1      34.646  19.176   8.296  0.00  0.00    -0.223 OA
HETATM    3  O   UNK N   1      34.841  17.500   6.994  0.00  0.00    -0.223 OA
ENDROOT
BRANCH   1   4
HETATM    4  C   UNK N   1      34.890  16.491   9.022  0.00  0.00     0.059 A 
HETATM    5  C   UNK N   1      35.160  15.261   8.387  0.00  0.00     0.026 A 
HETATM    6  C   UNK N   1      35.623  14.171   9.139  0.00  0.00     0.039 A 
HETATM    7  C   UNK N   1      35.789  14.310  10.523  0.00  0.00     0.076 A 
HETATM    8  C   UNK N   1      35.591  15.570  11.115  0.00  0.00     0.039 A 
HETATM    9  C   UNK N   1      35.135  16.642  10.376  0.00  0.00     0.026 A 
BRANCH   7  10
HETATM   10  O   UNK N   1      36.108  13.240  11.301  0.00  0.00    -0.311 OA
BRANCH  10  11
HETATM   11  C   UNK N   1      35.785  13.225  12.622  0.00  0.00     0.076 A 
HETATM   12  C   UNK N   1      34.775  12.378  13.084  0.00  0.00     0.039 A 
HETATM   13  C   UNK N   1      34.563  12.237  14.461  0.00  0.00     0.026 A 
HETATM   14  C   UNK N   1      35.347  12.952  15.374  0.00  0.00     0.034 A 
HETATM   15  C   UNK N   1      36.315  13.845  14.916  0.00  0.00     0.026 A 
HETATM   16 Cl   UNK N   1      35.148  12.704  17.093  0.00  0.00    -0.084 Cl
HETATM   17  C   UNK N   1      36.531  13.982  13.549  0.00  0.00     0.039 A 
ENDBRANCH  10  11
ENDBRANCH   7  10
ENDBRANCH   1   4
BRANCH   1  18
HETATM   18  C   UNK N   1      32.633  17.596   7.000  0.00  0.00     0.165 C 
BRANCH  18  19
HETATM   19  C   UNK N   1      31.502  16.606   7.307  0.00  0.00     0.060 C 
HETATM   20  C   UNK N   1      30.363  16.923   6.314  0.00  0.00     0.046 C 
HETATM   21  C   UNK N   1      30.636  16.383   4.894  0.00  0.00     0.168 C 
HETATM   22  O   UNK N   1      31.934  15.851   4.779  0.00  0.00    -0.391 OA
HETATM   23  C   UNK N   1      31.974  14.725   5.620  0.00  0.00     0.168 C 
HETATM   24  C   UNK N   1      31.944  15.140   7.103  0.00  0.00     0.046 C 
BRANCH  19  25
HETATM   25  C   UNK N   1      31.039  16.810   8.731  0.00  0.00     0.250 C 
HETATM   26  N   UNK N   1      30.392  17.945   9.081  0.00  0.00    -0.237 N 
HETATM   27  H   UNK N   1      30.235  18.641   8.402  0.00  0.00     0.197 HD
HETATM   28  O   UNK N   1      31.244  15.946   9.580  0.00  0.00    -0.271 OA
BRANCH  26  29
HETATM   29  O   UNK N   1      29.962  18.139  10.332  0.00  0.00    -0.287 OA
HETATM   30  H   UNK N   1      29.213  17.632  10.680  0.00  0.00     0.244 HD
ENDBRANCH  26  29
ENDBRANCH  19  25
ENDBRANCH  18  19
ENDBRANCH   1  18
TORSDOF 7
ENDMDL
MODEL 8
REMARK VINA RESULT:      -7.5      2.808      3.832
REMARK  7 active torsions:
REMARK  status: ('A' for Active; 'I' for Inactive)
REMARK    1  A    between atoms: C_5  and  O_7 
REMARK    2  A    between atoms: O_7  and  C_8 
REMARK    3  A    between atoms: C_11  and  S_14 
REMARK    4  A    between atoms: S_14  and  C_17 
REMARK    5  A    between atoms: C_17  and  C_18 
REMARK    6  A    between atoms: C_18  and  C_24 
REMARK       I    between atoms: C_24  and  N_25 
REMARK    7  A    between atoms: N_25  and  O_27 
ROOT
HETATM    1  S   UNK N   1      35.217  15.615  10.781  0.00  0.00     0.176 S 
HETATM    2  O   UNK N   1      35.285  17.073  11.261  0.00  0.00    -0.223 OA
HETATM    3  O   UNK N   1      36.738  15.667  10.587  0.00  0.00    -0.223 OA
ENDROOT
BRANCH   1   4
HETATM    4  C   UNK N   1      35.552  14.408  12.050  0.00  0.00     0.059 A 
HETATM    5  C   UNK N   1      34.928  13.144  12.074  0.00  0.00     0.026 A 
HETATM    6  C   UNK N   1      34.997  12.350  13.229  0.00  0.00     0.039 A 
HETATM    7  C   UNK N   1      35.669  12.835  14.358  0.00  0.00     0.076 A 
HETATM    8  C   UNK N   1      36.351  14.061  14.278  0.00  0.00     0.039 A 
HETATM    9  C   UNK N   1      36.282  14.843  13.143  0.00  0.00     0.026 A 
BRANCH   7  10
HETATM   10  O   UNK N   1      35.643  12.152  15.535  0.00  0.00    -0.311 OA
BRANCH  10  11
HETATM   11  C   UNK N   1      36.021  10.846  15.585  0.00  0.00     0.076 A 
HETATM   12  C   UNK N   1      37.331  10.485  15.265  0.00  0.00     0.039 A 
HETATM   13  C   UNK N   1      37.763   9.171  15.483  0.00  0.00     0.026 A 
HETATM   14  C   UNK N   1      36.883   8.216  16.005  0.00  0.00     0.034 A 
HETATM   15  C   UNK N   1      35.558   8.556  16.269  0.00  0.00     0.026 A 
HETATM   16 Cl   UNK N   1      37.448   6.601  16.368  0.00  0.00    -0.084 Cl
HETATM   17  C   UNK N   1      35.128   9.861  16.058  0.00  0.00     0.039 A 
ENDBRANCH  10  11
ENDBRANCH   7  10
ENDBRANCH   1   4
BRANCH   1  18
HETATM   18  C   UNK N   1      35.262  15.338   8.976  0.00  0.00     0.165 C 
BRANCH  18  19
HETATM   19  C   UNK N   1      34.142  15.936   8.114  0.00  0.00     0.060 C 
HETATM   20  C   UNK N   1      34.060  15.067   6.841  0.00  0.00     0.046 C 
HETATM   21  C   UNK N   1      33.348  13.719   7.076  0.00  0.00     0.168 C 
HETATM   22  O   UNK N   1      33.061  13.512   8.439  0.00  0.00    -0.391 OA
HETATM   23  C   UNK N   1      32.125  14.497   8.798  0.00  0.00     0.168 C 
HETATM   24  C   UNK N   1      32.775  15.894   8.831  0.00  0.00     0.046 C 
BRANCH  19  25
HETATM   25  C   UNK N   1      34.495  17.363   7.765  0.00  0.00     0.250 C 
HETATM   26  N   UNK N   1      34.824  18.242   8.739  0.00  0.00    -0.237 N 
HETATM   27  H   UNK N   1      34.820  17.946   9.678  0.00  0.00     0.197 HD
HETATM   28  O   UNK N   1      34.490  17.734   6.594  0.00  0.00    -0.271 OA
BRANCH  26  29
HETATM   29  O   UNK N   1      35.153  19.505   8.449  0.00  0.00    -0.287 OA
HETATM   30  H   UNK N   1      34.729  20.243   8.913  0.00  0.00     0.244 HD
ENDBRANCH  26  29
ENDBRANCH  19  25
ENDBRANCH  18  19
ENDBRANCH   1  18
TORSDOF 7
ENDMDL
MODEL 9
REMARK VINA RESULT:      -7.4      2.493      3.923
REMARK  7 active torsions:
REMARK  status: ('A' for Active; 'I' for Inactive)
REMARK    1  A    between atoms: C_5  and  O_7 
REMARK    2  A    between atoms: O_7  and  C_8 
REMARK    3  A    between atoms: C_11  and  S_14 
REMARK    4  A    between atoms: S_14  and  C_17 
REMARK    5  A    between atoms: C_17  and  C_18 
REMARK    6  A    between atoms: C_18  and  C_24 
REMARK       I    between atoms: C_24  and  N_25 
REMARK    7  A    between atoms: N_25  and  O_27 
ROOT
HETATM    1  S   UNK N   1      35.363  15.592  10.326  0.00  0.00     0.176 S 
HETATM    2  O   UNK N   1      35.497  17.097  10.609  0.00  0.00    -0.223 OA
HETATM    3  O   UNK N   1      36.891  15.539  10.192  0.00  0.00    -0.223 OA
ENDROOT
BRANCH   1   4
HETATM    4  C   UNK N   1      35.584  14.553  11.758  0.00  0.00     0.059 A 
HETATM    5  C   UNK N   1      36.095  15.045  12.977  0.00  0.00     0.026 A 
HETATM    6  C   UNK N   1      36.519  14.150  13.971  0.00  0.00     0.039 A 
HETATM    7  C   UNK N   1      36.451  12.772  13.731  0.00  0.00     0.076 A 
HETATM    8  C   UNK N   1      35.861  12.310  12.541  0.00  0.00     0.039 A 
HETATM    9  C   UNK N   1      35.445  13.190  11.563  0.00  0.00     0.026 A 
BRANCH   7  10
HETATM   10  O   UNK N   1      36.974  11.880  14.616  0.00  0.00    -0.311 OA
BRANCH  10  11
HETATM   11  C   UNK N   1      36.180  11.274  15.538  0.00  0.00     0.076 A 
HETATM   12  C   UNK N   1      35.850   9.924  15.396  0.00  0.00     0.039 A 
HETATM   13  C   UNK N   1      35.180   9.260  16.430  0.00  0.00     0.026 A 
HETATM   14  C   UNK N   1      34.825   9.947  17.598  0.00  0.00     0.034 A 
HETATM   15  C   UNK N   1      35.098  11.308  17.719  0.00  0.00     0.026 A 
HETATM   16 Cl   UNK N   1      34.075   9.096  18.929  0.00  0.00    -0.084 Cl
HETATM   17  C   UNK N   1      35.769  11.968  16.695  0.00  0.00     0.039 A 
ENDBRANCH  10  11
ENDBRANCH   7  10
ENDBRANCH   1   4
BRANCH   1  18
HETATM   18  C   UNK N   1      35.457  15.071   8.578  0.00  0.00     0.165 C 
BRANCH  18  19
HETATM   19  C   UNK N   1      34.157  14.694   7.855  0.00  0.00     0.060 C 
HETATM   20  C   UNK N   1      33.112  15.760   8.250  0.00  0.00     0.046 C 
HETATM   21  C   UNK N   1      33.302  17.095   7.501  0.00  0.00     0.168 C 
HETATM   22  O   UNK N   1      34.481  17.098   6.732  0.00  0.00    -0.391 OA
HETATM   23  C   UNK N   1      34.299  16.131   5.729  0.00  0.00     0.168 C 
HETATM   24  C   UNK N   1      34.324  14.708   6.320  0.00  0.00     0.046 C 
BRANCH  19  25
HETATM   25  C   UNK N   1      33.718  13.322   8.312  0.00  0.00     0.250 C 
HETATM   26  N   UNK N   1      32.603  13.178   9.064  0.00  0.00    -0.237 N 
HETATM   27  H   UNK N   1      32.087  13.977   9.319  0.00  0.00     0.197 HD
HETATM   28  O   UNK N   1      34.369  12.327   8.001  0.00  0.00    -0.271 OA
BRANCH  26  29
HETATM   29  O   UNK N   1      32.190  11.972   9.466  0.00  0.00    -0.287 OA
HETATM   30  H   UNK N   1      31.989  11.279   8.819  0.00  0.00     0.244 HD
ENDBRANCH  26  29
ENDBRANCH  19  25
ENDBRANCH  18  19
ENDBRANCH   1  18
TORSDOF 7
ENDMDL
