REMARK  7 active torsions:
REMARK  status: ('A' for Active; 'I' for Inactive)
REMARK    1  A    between atoms: C_5  and  O_7 
REMARK    2  A    between atoms: O_7  and  C_8 
REMARK    3  A    between atoms: C_11  and  S_14 
REMARK    4  A    between atoms: S_14  and  C_15 
REMARK    5  A    between atoms: C_15  and  C_18 
REMARK    6  A    between atoms: C_18  and  C_19 
REMARK       I    between atoms: C_19  and  N_21 
REMARK    7  A    between atoms: N_21  and  O_22 
ROOT
HETATM    1  S   UNK N   1      -2.167  -0.341   0.454  0.00  0.00     0.184 S 
HETATM    2  O   UNK N   1      -2.204   0.160   1.906  0.00  0.00    -0.222 OA
HETATM    3  O   UNK N   1      -2.956  -1.640   0.680  0.00  0.00    -0.222 OA
ENDROOT
BRANCH   1   4
HETATM    4  C   UNK N   1      -0.477  -0.885   0.202  0.00  0.00     0.060 A 
HETATM    5  C   UNK N   1      -0.215  -2.151  -0.340  0.00  0.00     0.026 A 
HETATM    6  C   UNK N   1       1.102  -2.616  -0.437  0.00  0.00     0.039 A 
HETATM    7  C   UNK N   1       2.164  -1.816  -0.002  0.00  0.00     0.076 A 
HETATM    8  C   UNK N   1       1.891  -0.546   0.537  0.00  0.00     0.039 A 
HETATM    9  C   UNK N   1       0.579  -0.088   0.643  0.00  0.00     0.026 A 
BRANCH   7  10
HETATM   10  O   UNK N   1       3.433  -2.300  -0.061  0.00  0.00    -0.311 OA
BRANCH  10  11
HETATM   11  C   UNK N   1       4.564  -1.546  -0.060  0.00  0.00     0.076 A 
HETATM   12  C   UNK N   1       5.753  -2.093   0.433  0.00  0.00     0.037 A 
HETATM   13  C   UNK N   1       6.929  -1.334   0.437  0.00  0.00     0.003 A 
HETATM   14  C   UNK N   1       6.924  -0.031  -0.071  0.00  0.00     0.000 A 
HETATM   15  C   UNK N   1       5.745   0.515  -0.582  0.00  0.00     0.003 A 
HETATM   16  C   UNK N   1       4.570  -0.237  -0.574  0.00  0.00     0.037 A 
ENDBRANCH  10  11
ENDBRANCH   7  10
ENDBRANCH   1   4
BRANCH   1  17
HETATM   17  C   UNK N   1      -3.218   0.809  -0.542  0.00  0.00     0.081 C 
HETATM   18  C   UNK N   1      -3.988   0.016  -1.609  0.00  0.00     0.052 C 
HETATM   19  C   UNK N   1      -5.282  -0.627  -1.071  0.00  0.00     0.169 C 
HETATM   20  O   UNK N   1      -5.345  -0.579   0.334  0.00  0.00    -0.391 OA
HETATM   21  C   UNK N   1      -5.489   0.774   0.678  0.00  0.00     0.169 C 
HETATM   22  C   UNK N   1      -4.218   1.575   0.353  0.00  0.00     0.052 C 
BRANCH  17  23
HETATM   23  C   UNK N   1      -2.328   1.815  -1.289  0.00  0.00     0.131 C 
BRANCH  23  24
HETATM   24  C   UNK N   1      -1.593   2.811  -0.436  0.00  0.00     0.242 C 
HETATM   25  O   UNK N   1      -2.214   3.609   0.254  0.00  0.00    -0.271 OA
HETATM   26  N   UNK N   1      -0.244   2.863  -0.478  0.00  0.00    -0.237 N 
HETATM   27  H   UNK N   1       0.249   2.227  -1.045  0.00  0.00     0.197 HD
BRANCH  26  28
HETATM   28  O   UNK N   1       0.432   3.768   0.241  0.00  0.00    -0.287 OA
HETATM   29  H   UNK N   1       1.244   3.672   0.762  0.00  0.00     0.244 HD
ENDBRANCH  26  28
ENDBRANCH  23  24
ENDBRANCH  17  23
ENDBRANCH   1  17
TORSDOF 7
