MODEL 1
REMARK VINA RESULT:      -8.2      0.000      0.000
REMARK  7 active torsions:
REMARK  status: ('A' for Active; 'I' for Inactive)
REMARK    1  A    between atoms: C_5  and  O_7 
REMARK    2  A    between atoms: O_7  and  C_8 
REMARK    3  A    between atoms: C_11  and  S_14 
REMARK    4  A    between atoms: S_14  and  C_15 
REMARK    5  A    between atoms: C_15  and  C_18 
REMARK    6  A    between atoms: C_18  and  C_19 
REMARK       I    between atoms: C_19  and  N_21 
REMARK    7  A    between atoms: N_21  and  O_22 
ROOT
HETATM    1  S   UNK N   1      21.470  17.708   5.701  0.00  0.00     0.184 S 
HETATM    2  O   UNK N   1      22.992  17.914   5.740  0.00  0.00    -0.222 OA
HETATM    3  O   UNK N   1      21.092  18.910   6.580  0.00  0.00    -0.222 OA
ENDROOT
BRANCH   1   4
HETATM    4  C   UNK N   1      21.176  16.282   6.747  0.00  0.00     0.060 A 
HETATM    5  C   UNK N   1      20.581  16.439   8.006  0.00  0.00     0.026 A 
HETATM    6  C   UNK N   1      20.449  15.341   8.864  0.00  0.00     0.039 A 
HETATM    7  C   UNK N   1      20.902  14.079   8.466  0.00  0.00     0.076 A 
HETATM    8  C   UNK N   1      21.494  13.930   7.199  0.00  0.00     0.039 A 
HETATM    9  C   UNK N   1      21.635  15.026   6.349  0.00  0.00     0.026 A 
BRANCH   7  10
HETATM   10  O   UNK N   1      20.808  13.032   9.328  0.00  0.00    -0.311 OA
BRANCH  10  11
HETATM   11  C   UNK N   1      21.779  12.633  10.191  0.00  0.00     0.076 A 
HETATM   12  C   UNK N   1      23.117  12.677   9.786  0.00  0.00     0.037 A 
HETATM   13  C   UNK N   1      24.132  12.275  10.663  0.00  0.00     0.003 A 
HETATM   14  C   UNK N   1      23.813  11.848  11.956  0.00  0.00     0.000 A 
HETATM   15  C   UNK N   1      22.481  11.820  12.373  0.00  0.00     0.003 A 
HETATM   16  C   UNK N   1      21.469  12.208  11.495  0.00  0.00     0.037 A 
ENDBRANCH  10  11
ENDBRANCH   7  10
ENDBRANCH   1   4
BRANCH   1  17
HETATM   17  C   UNK N   1      20.921  18.060   3.970  0.00  0.00     0.081 C 
HETATM   18  C   UNK N   1      21.979  17.555   2.977  0.00  0.00     0.052 C 
HETATM   19  C   UNK N   1      21.847  16.051   2.664  0.00  0.00     0.169 C 
HETATM   20  O   UNK N   1      20.965  15.407   3.551  0.00  0.00    -0.391 OA
HETATM   21  C   UNK N   1      19.685  15.909   3.271  0.00  0.00     0.169 C 
HETATM   22  C   UNK N   1      19.563  17.390   3.663  0.00  0.00     0.052 C 
BRANCH  17  23
HETATM   23  C   UNK N   1      20.800  19.578   3.760  0.00  0.00     0.131 C 
BRANCH  23  24
HETATM   24  C   UNK N   1      21.165  20.089   2.394  0.00  0.00     0.242 C 
HETATM   25  O   UNK N   1      22.222  20.682   2.220  0.00  0.00    -0.271 OA
HETATM   26  N   UNK N   1      20.296  19.945   1.370  0.00  0.00    -0.237 N 
HETATM   27  H   UNK N   1      19.442  19.479   1.520  0.00  0.00     0.197 HD
BRANCH  26  28
HETATM   28  O   UNK N   1      20.581  20.428   0.154  0.00  0.00    -0.287 OA
HETATM   29  H   UNK N   1      19.992  20.654  -0.582  0.00  0.00     0.244 HD
ENDBRANCH  26  28
ENDBRANCH  23  24
ENDBRANCH  17  23
ENDBRANCH   1  17
TORSDOF 7
ENDMDL
MODEL 2
REMARK VINA RESULT:      -8.1      1.887      2.982
REMARK  7 active torsions:
REMARK  status: ('A' for Active; 'I' for Inactive)
REMARK    1  A    between atoms: C_5  and  O_7 
REMARK    2  A    between atoms: O_7  and  C_8 
REMARK    3  A    between atoms: C_11  and  S_14 
REMARK    4  A    between atoms: S_14  and  C_15 
REMARK    5  A    between atoms: C_15  and  C_18 
REMARK    6  A    between atoms: C_18  and  C_19 
REMARK       I    between atoms: C_19  and  N_21 
REMARK    7  A    between atoms: N_21  and  O_22 
ROOT
HETATM    1  S   UNK N   1      20.066  15.835   4.236  0.00  0.00     0.184 S 
HETATM    2  O   UNK N   1      18.820  16.706   4.460  0.00  0.00    -0.222 OA
HETATM    3  O   UNK N   1      19.364  14.682   3.502  0.00  0.00    -0.222 OA
ENDROOT
BRANCH   1   4
HETATM    4  C   UNK N   1      20.451  15.164   5.854  0.00  0.00     0.060 A 
HETATM    5  C   UNK N   1      20.718  13.797   6.007  0.00  0.00     0.026 A 
HETATM    6  C   UNK N   1      20.912  13.256   7.284  0.00  0.00     0.039 A 
HETATM    7  C   UNK N   1      20.850  14.080   8.413  0.00  0.00     0.076 A 
HETATM    8  C   UNK N   1      20.585  15.452   8.249  0.00  0.00     0.039 A 
HETATM    9  C   UNK N   1      20.381  15.987   6.978  0.00  0.00     0.026 A 
BRANCH   7  10
HETATM   10  O   UNK N   1      20.996  13.533   9.649  0.00  0.00    -0.311 OA
BRANCH  10  11
HETATM   11  C   UNK N   1      22.153  13.030  10.156  0.00  0.00     0.076 A 
HETATM   12  C   UNK N   1      23.366  13.335   9.530  0.00  0.00     0.037 A 
HETATM   13  C   UNK N   1      24.568  12.831  10.040  0.00  0.00     0.003 A 
HETATM   14  C   UNK N   1      24.562  12.036  11.191  0.00  0.00     0.000 A 
HETATM   15  C   UNK N   1      23.357  11.742  11.831  0.00  0.00     0.003 A 
HETATM   16  C   UNK N   1      22.158  12.234  11.315  0.00  0.00     0.037 A 
ENDBRANCH  10  11
ENDBRANCH   7  10
ENDBRANCH   1   4
BRANCH   1  17
HETATM   17  C   UNK N   1      21.139  16.726   3.022  0.00  0.00     0.081 C 
HETATM   18  C   UNK N   1      20.580  18.136   2.773  0.00  0.00     0.052 C 
HETATM   19  C   UNK N   1      21.018  19.159   3.841  0.00  0.00     0.169 C 
HETATM   20  O   UNK N   1      21.608  18.533   4.954  0.00  0.00    -0.391 OA
HETATM   21  C   UNK N   1      22.823  17.992   4.507  0.00  0.00     0.169 C 
HETATM   22  C   UNK N   1      22.595  16.830   3.527  0.00  0.00     0.052 C 
BRANCH  17  23
HETATM   23  C   UNK N   1      21.119  15.994   1.671  0.00  0.00     0.131 C 
BRANCH  23  24
HETATM   24  C   UNK N   1      20.128  16.497   0.658  0.00  0.00     0.242 C 
HETATM   25  O   UNK N   1      20.434  17.402  -0.107  0.00  0.00    -0.271 OA
HETATM   26  N   UNK N   1      18.877  15.988   0.635  0.00  0.00    -0.237 N 
HETATM   27  H   UNK N   1      18.633  15.269   1.262  0.00  0.00     0.197 HD
BRANCH  26  28
HETATM   28  O   UNK N   1      17.964  16.447  -0.230  0.00  0.00    -0.287 OA
HETATM   29  H   UNK N   1      17.120  16.062  -0.512  0.00  0.00     0.244 HD
ENDBRANCH  26  28
ENDBRANCH  23  24
ENDBRANCH  17  23
ENDBRANCH   1  17
TORSDOF 7
ENDMDL
MODEL 3
REMARK VINA RESULT:      -7.9     10.672     13.543
REMARK  7 active torsions:
REMARK  status: ('A' for Active; 'I' for Inactive)
REMARK    1  A    between atoms: C_5  and  O_7 
REMARK    2  A    between atoms: O_7  and  C_8 
REMARK    3  A    between atoms: C_11  and  S_14 
REMARK    4  A    between atoms: S_14  and  C_15 
REMARK    5  A    between atoms: C_15  and  C_18 
REMARK    6  A    between atoms: C_18  and  C_19 
REMARK       I    between atoms: C_19  and  N_21 
REMARK    7  A    between atoms: N_21  and  O_22 
ROOT
HETATM    1  S   UNK N   1      33.933  17.017   8.105  0.00  0.00     0.184 S 
HETATM    2  O   UNK N   1      34.467  18.333   8.693  0.00  0.00    -0.222 OA
HETATM    3  O   UNK N   1      34.675  17.093   6.762  0.00  0.00    -0.222 OA
ENDROOT
BRANCH   1   4
HETATM    4  C   UNK N   1      32.223  17.364   7.691  0.00  0.00     0.060 A 
HETATM    5  C   UNK N   1      31.353  17.884   8.658  0.00  0.00     0.026 A 
HETATM    6  C   UNK N   1      29.994  18.054   8.363  0.00  0.00     0.039 A 
HETATM    7  C   UNK N   1      29.501  17.713   7.100  0.00  0.00     0.076 A 
HETATM    8  C   UNK N   1      30.383  17.195   6.135  0.00  0.00     0.039 A 
HETATM    9  C   UNK N   1      31.733  17.016   6.432  0.00  0.00     0.026 A 
BRANCH   7  10
HETATM   10  O   UNK N   1      28.172  17.841   6.844  0.00  0.00    -0.311 OA
BRANCH  10  11
HETATM   11  C   UNK N   1      27.620  18.716   5.962  0.00  0.00     0.076 A 
HETATM   12  C   UNK N   1      27.616  20.082   6.262  0.00  0.00     0.037 A 
HETATM   13  C   UNK N   1      27.058  20.999   5.364  0.00  0.00     0.003 A 
HETATM   14  C   UNK N   1      26.519  20.553   4.152  0.00  0.00     0.000 A 
HETATM   15  C   UNK N   1      26.537  19.193   3.838  0.00  0.00     0.003 A 
HETATM   16  C   UNK N   1      27.081  18.278   4.739  0.00  0.00     0.037 A 
ENDBRANCH  10  11
ENDBRANCH   7  10
ENDBRANCH   1   4
BRANCH   1  17
HETATM   17  C   UNK N   1      34.672  15.643   9.097  0.00  0.00     0.081 C 
HETATM   18  C   UNK N   1      33.556  14.839   9.782  0.00  0.00     0.052 C 
HETATM   19  C   UNK N   1      32.923  13.774   8.864  0.00  0.00     0.169 C 
HETATM   20  O   UNK N   1      33.311  13.944   7.522  0.00  0.00    -0.391 OA
HETATM   21  C   UNK N   1      34.681  13.647   7.465  0.00  0.00     0.169 C 
HETATM   22  C   UNK N   1      35.517  14.700   8.211  0.00  0.00     0.052 C 
BRANCH  17  23
HETATM   23  C   UNK N   1      35.556  16.221  10.214  0.00  0.00     0.131 C 
BRANCH  23  24
HETATM   24  C   UNK N   1      36.102  15.232  11.206  0.00  0.00     0.242 C 
HETATM   25  O   UNK N   1      35.646  15.183  12.341  0.00  0.00    -0.271 OA
HETATM   26  N   UNK N   1      37.138  14.438  10.860  0.00  0.00    -0.237 N 
HETATM   27  H   UNK N   1      37.508  14.492   9.950  0.00  0.00     0.197 HD
BRANCH  26  28
HETATM   28  O   UNK N   1      37.669  13.578  11.739  0.00  0.00    -0.287 OA
HETATM   29  H   UNK N   1      38.466  13.030  11.674  0.00  0.00     0.244 HD
ENDBRANCH  26  28
ENDBRANCH  23  24
ENDBRANCH  17  23
ENDBRANCH   1  17
TORSDOF 7
ENDMDL
MODEL 4
REMARK VINA RESULT:      -7.6     14.550     16.396
REMARK  7 active torsions:
REMARK  status: ('A' for Active; 'I' for Inactive)
REMARK    1  A    between atoms: C_5  and  O_7 
REMARK    2  A    between atoms: O_7  and  C_8 
REMARK    3  A    between atoms: C_11  and  S_14 
REMARK    4  A    between atoms: S_14  and  C_15 
REMARK    5  A    between atoms: C_15  and  C_18 
REMARK    6  A    between atoms: C_18  and  C_19 
REMARK       I    between atoms: C_19  and  N_21 
REMARK    7  A    between atoms: N_21  and  O_22 
ROOT
HETATM    1  S   UNK N   1      27.541  26.439  -4.575  0.00  0.00     0.184 S 
HETATM    2  O   UNK N   1      27.790  27.770  -3.848  0.00  0.00    -0.222 OA
HETATM    3  O   UNK N   1      26.162  26.143  -3.966  0.00  0.00    -0.222 OA
ENDROOT
BRANCH   1   4
HETATM    4  C   UNK N   1      28.641  25.270  -3.776  0.00  0.00     0.060 A 
HETATM    5  C   UNK N   1      30.031  25.414  -3.891  0.00  0.00     0.026 A 
HETATM    6  C   UNK N   1      30.885  24.442  -3.357  0.00  0.00     0.039 A 
HETATM    7  C   UNK N   1      30.357  23.328  -2.697  0.00  0.00     0.076 A 
HETATM    8  C   UNK N   1      28.962  23.194  -2.583  0.00  0.00     0.039 A 
HETATM    9  C   UNK N   1      28.111  24.157  -3.125  0.00  0.00     0.026 A 
BRANCH   7  10
HETATM   10  O   UNK N   1      31.199  22.371  -2.223  0.00  0.00    -0.311 OA
BRANCH  10  11
HETATM   11  C   UNK N   1      31.861  21.458  -2.983  0.00  0.00     0.076 A 
HETATM   12  C   UNK N   1      31.174  20.781  -3.996  0.00  0.00     0.037 A 
HETATM   13  C   UNK N   1      31.840  19.842  -4.792  0.00  0.00     0.003 A 
HETATM   14  C   UNK N   1      33.201  19.592  -4.591  0.00  0.00     0.000 A 
HETATM   15  C   UNK N   1      33.897  20.278  -3.595  0.00  0.00     0.003 A 
HETATM   16  C   UNK N   1      33.231  21.205  -2.792  0.00  0.00     0.037 A 
ENDBRANCH  10  11
ENDBRANCH   7  10
ENDBRANCH   1   4
BRANCH   1  17
HETATM   17  C   UNK N   1      27.310  26.837  -6.366  0.00  0.00     0.081 C 
HETATM   18  C   UNK N   1      27.462  28.349  -6.587  0.00  0.00     0.052 C 
HETATM   19  C   UNK N   1      28.931  28.798  -6.724  0.00  0.00     0.169 C 
HETATM   20  O   UNK N   1      29.827  27.778  -6.352  0.00  0.00    -0.391 OA
HETATM   21  C   UNK N   1      29.704  26.771  -7.322  0.00  0.00     0.169 C 
HETATM   22  C   UNK N   1      28.332  26.082  -7.247  0.00  0.00     0.052 C 
BRANCH  17  23
HETATM   23  C   UNK N   1      25.885  26.463  -6.805  0.00  0.00     0.131 C 
BRANCH  23  24
HETATM   24  C   UNK N   1      25.659  25.020  -7.162  0.00  0.00     0.242 C 
HETATM   25  O   UNK N   1      25.596  24.679  -8.336  0.00  0.00    -0.271 OA
HETATM   26  N   UNK N   1      25.465  24.110  -6.184  0.00  0.00    -0.237 N 
HETATM   27  H   UNK N   1      25.503  24.393  -5.242  0.00  0.00     0.197 HD
BRANCH  26  28
HETATM   28  O   UNK N   1      25.220  22.826  -6.477  0.00  0.00    -0.287 OA
HETATM   29  H   UNK N   1      24.451  22.274  -6.271  0.00  0.00     0.244 HD
ENDBRANCH  26  28
ENDBRANCH  23  24
ENDBRANCH  17  23
ENDBRANCH   1  17
TORSDOF 7
ENDMDL
MODEL 5
REMARK VINA RESULT:      -7.6     12.883     16.039
REMARK  7 active torsions:
REMARK  status: ('A' for Active; 'I' for Inactive)
REMARK    1  A    between atoms: C_5  and  O_7 
REMARK    2  A    between atoms: O_7  and  C_8 
REMARK    3  A    between atoms: C_11  and  S_14 
REMARK    4  A    between atoms: S_14  and  C_15 
REMARK    5  A    between atoms: C_15  and  C_18 
REMARK    6  A    between atoms: C_18  and  C_19 
REMARK       I    between atoms: C_19  and  N_21 
REMARK    7  A    between atoms: N_21  and  O_22 
ROOT
HETATM    1  S   UNK N   1      35.361  14.518  11.107  0.00  0.00     0.184 S 
HETATM    2  O   UNK N   1      34.493  14.231  12.342  0.00  0.00    -0.222 OA
HETATM    3  O   UNK N   1      36.286  15.556  11.761  0.00  0.00    -0.222 OA
ENDROOT
BRANCH   1   4
HETATM    4  C   UNK N   1      34.307  15.480  10.022  0.00  0.00     0.060 A 
HETATM    5  C   UNK N   1      33.139  14.918   9.489  0.00  0.00     0.026 A 
HETATM    6  C   UNK N   1      32.375  15.633   8.559  0.00  0.00     0.039 A 
HETATM    7  C   UNK N   1      32.768  16.916   8.164  0.00  0.00     0.076 A 
HETATM    8  C   UNK N   1      33.940  17.473   8.707  0.00  0.00     0.039 A 
HETATM    9  C   UNK N   1      34.706  16.756   9.625  0.00  0.00     0.026 A 
BRANCH   7  10
HETATM   10  O   UNK N   1      32.040  17.579   7.227  0.00  0.00    -0.311 OA
BRANCH  10  11
HETATM   11  C   UNK N   1      32.001  17.277   5.902  0.00  0.00     0.076 A 
HETATM   12  C   UNK N   1      30.782  16.924   5.314  0.00  0.00     0.037 A 
HETATM   13  C   UNK N   1      30.721  16.616   3.950  0.00  0.00     0.003 A 
HETATM   14  C   UNK N   1      31.877  16.679   3.165  0.00  0.00     0.000 A 
HETATM   15  C   UNK N   1      33.093  17.048   3.741  0.00  0.00     0.003 A 
HETATM   16  C   UNK N   1      33.157  17.343   5.103  0.00  0.00     0.037 A 
ENDBRANCH  10  11
ENDBRANCH   7  10
ENDBRANCH   1   4
BRANCH   1  17
HETATM   17  C   UNK N   1      36.350  12.991  10.775  0.00  0.00     0.081 C 
HETATM   18  C   UNK N   1      35.822  12.296   9.510  0.00  0.00     0.052 C 
HETATM   19  C   UNK N   1      36.391  12.892   8.207  0.00  0.00     0.169 C 
HETATM   20  O   UNK N   1      37.057  14.110   8.437  0.00  0.00    -0.391 OA
HETATM   21  C   UNK N   1      38.207  13.799   9.179  0.00  0.00     0.169 C 
HETATM   22  C   UNK N   1      37.849  13.319  10.595  0.00  0.00     0.052 C 
BRANCH  17  23
HETATM   23  C   UNK N   1      36.181  11.996  11.934  0.00  0.00     0.131 C 
BRANCH  23  24
HETATM   24  C   UNK N   1      37.083  12.200  13.119  0.00  0.00     0.242 C 
HETATM   25  O   UNK N   1      37.931  11.364  13.400  0.00  0.00    -0.271 OA
HETATM   26  N   UNK N   1      36.915  13.283  13.910  0.00  0.00    -0.237 N 
HETATM   27  H   UNK N   1      36.223  13.945  13.686  0.00  0.00     0.197 HD
BRANCH  26  28
HETATM   28  O   UNK N   1      37.679  13.466  14.995  0.00  0.00    -0.287 OA
HETATM   29  H   UNK N   1      38.643  13.428  15.094  0.00  0.00     0.244 HD
ENDBRANCH  26  28
ENDBRANCH  23  24
ENDBRANCH  17  23
ENDBRANCH   1  17
TORSDOF 7
ENDMDL
MODEL 6
REMARK VINA RESULT:      -7.5     11.359     13.401
REMARK  7 active torsions:
REMARK  status: ('A' for Active; 'I' for Inactive)
REMARK    1  A    between atoms: C_5  and  O_7 
REMARK    2  A    between atoms: O_7  and  C_8 
REMARK    3  A    between atoms: C_11  and  S_14 
REMARK    4  A    between atoms: S_14  and  C_15 
REMARK    5  A    between atoms: C_15  and  C_18 
REMARK    6  A    between atoms: C_18  and  C_19 
REMARK       I    between atoms: C_19  and  N_21 
REMARK    7  A    between atoms: N_21  and  O_22 
ROOT
HETATM    1  S   UNK N   1      33.291  14.888   7.951  0.00  0.00     0.184 S 
HETATM    2  O   UNK N   1      32.299  13.717   7.882  0.00  0.00    -0.222 OA
HETATM    3  O   UNK N   1      34.113  14.515   6.708  0.00  0.00    -0.222 OA
ENDROOT
BRANCH   1   4
HETATM    4  C   UNK N   1      34.366  14.494   9.331  0.00  0.00     0.060 A 
HETATM    5  C   UNK N   1      35.151  13.333   9.306  0.00  0.00     0.026 A 
HETATM    6  C   UNK N   1      35.908  12.973  10.427  0.00  0.00     0.039 A 
HETATM    7  C   UNK N   1      35.892  13.774  11.574  0.00  0.00     0.076 A 
HETATM    8  C   UNK N   1      35.104  14.938  11.587  0.00  0.00     0.039 A 
HETATM    9  C   UNK N   1      34.342  15.291  10.475  0.00  0.00     0.026 A 
BRANCH   7  10
HETATM   10  O   UNK N   1      36.597  13.386  12.670  0.00  0.00    -0.311 OA
BRANCH  10  11
HETATM   11  C   UNK N   1      36.080  13.203  13.914  0.00  0.00     0.076 A 
HETATM   12  C   UNK N   1      36.618  13.915  14.992  0.00  0.00     0.037 A 
HETATM   13  C   UNK N   1      36.096  13.745  16.279  0.00  0.00     0.003 A 
HETATM   14  C   UNK N   1      35.020  12.876  16.490  0.00  0.00     0.000 A 
HETATM   15  C   UNK N   1      34.466  12.177  15.416  0.00  0.00     0.003 A 
HETATM   16  C   UNK N   1      34.995  12.337  14.135  0.00  0.00     0.037 A 
ENDBRANCH  10  11
ENDBRANCH   7  10
ENDBRANCH   1   4
BRANCH   1  17
HETATM   17  C   UNK N   1      32.337  16.427   7.574  0.00  0.00     0.081 C 
HETATM   18  C   UNK N   1      32.891  17.597   8.402  0.00  0.00     0.052 C 
HETATM   19  C   UNK N   1      34.127  18.261   7.762  0.00  0.00     0.169 C 
HETATM   20  O   UNK N   1      34.645  17.492   6.704  0.00  0.00    -0.391 OA
HETATM   21  C   UNK N   1      33.688  17.535   5.678  0.00  0.00     0.169 C 
HETATM   22  C   UNK N   1      32.409  16.779   6.071  0.00  0.00     0.052 C 
BRANCH  17  23
HETATM   23  C   UNK N   1      30.868  16.245   7.986  0.00  0.00     0.131 C 
BRANCH  23  24
HETATM   24  C   UNK N   1      30.184  17.457   8.554  0.00  0.00     0.242 C 
HETATM   25  O   UNK N   1      29.656  18.273   7.809  0.00  0.00    -0.271 OA
HETATM   26  N   UNK N   1      30.204  17.676   9.886  0.00  0.00    -0.237 N 
HETATM   27  H   UNK N   1      30.642  17.023  10.479  0.00  0.00     0.197 HD
BRANCH  26  28
HETATM   28  O   UNK N   1      29.637  18.769  10.413  0.00  0.00    -0.287 OA
HETATM   29  H   UNK N   1      28.971  19.367  10.042  0.00  0.00     0.244 HD
ENDBRANCH  26  28
ENDBRANCH  23  24
ENDBRANCH  17  23
ENDBRANCH   1  17
TORSDOF 7
ENDMDL
MODEL 7
REMARK VINA RESULT:      -7.4     15.657     17.546
REMARK  7 active torsions:
REMARK  status: ('A' for Active; 'I' for Inactive)
REMARK    1  A    between atoms: C_5  and  O_7 
REMARK    2  A    between atoms: O_7  and  C_8 
REMARK    3  A    between atoms: C_11  and  S_14 
REMARK    4  A    between atoms: S_14  and  C_15 
REMARK    5  A    between atoms: C_15  and  C_18 
REMARK    6  A    between atoms: C_18  and  C_19 
REMARK       I    between atoms: C_19  and  N_21 
REMARK    7  A    between atoms: N_21  and  O_22 
ROOT
HETATM    1  S   UNK N   1      36.001  12.681  14.147  0.00  0.00     0.184 S 
HETATM    2  O   UNK N   1      36.890  13.930  14.253  0.00  0.00    -0.222 OA
HETATM    3  O   UNK N   1      34.660  13.414  13.992  0.00  0.00    -0.222 OA
ENDROOT
BRANCH   1   4
HETATM    4  C   UNK N   1      35.953  12.013  15.811  0.00  0.00     0.060 A 
HETATM    5  C   UNK N   1      36.488  10.746  16.080  0.00  0.00     0.026 A 
HETATM    6  C   UNK N   1      36.355  10.182  17.355  0.00  0.00     0.039 A 
HETATM    7  C   UNK N   1      35.695  10.884  18.369  0.00  0.00     0.076 A 
HETATM    8  C   UNK N   1      35.164  12.156  18.089  0.00  0.00     0.039 A 
HETATM    9  C   UNK N   1      35.288  12.713  16.818  0.00  0.00     0.026 A 
BRANCH   7  10
HETATM   10  O   UNK N   1      35.534  10.304  19.587  0.00  0.00    -0.311 OA
BRANCH  10  11
HETATM   11  C   UNK N   1      34.350   9.890  20.112  0.00  0.00     0.076 A 
HETATM   12  C   UNK N   1      33.587   8.943  19.421  0.00  0.00     0.037 A 
HETATM   13  C   UNK N   1      32.368   8.500  19.948  0.00  0.00     0.003 A 
HETATM   14  C   UNK N   1      31.918   8.989  21.179  0.00  0.00     0.000 A 
HETATM   15  C   UNK N   1      32.684   9.920  21.883  0.00  0.00     0.003 A 
HETATM   16  C   UNK N   1      33.892  10.371  21.352  0.00  0.00     0.037 A 
ENDBRANCH  10  11
ENDBRANCH   7  10
ENDBRANCH   1   4
BRANCH   1  17
HETATM   17  C   UNK N   1      36.405  11.864  12.538  0.00  0.00     0.081 C 
HETATM   18  C   UNK N   1      36.855  10.417  12.789  0.00  0.00     0.052 C 
HETATM   19  C   UNK N   1      35.678   9.433  12.941  0.00  0.00     0.169 C 
HETATM   20  O   UNK N   1      34.450  10.104  13.086  0.00  0.00    -0.391 OA
HETATM   21  C   UNK N   1      34.193  10.729  11.856  0.00  0.00     0.169 C 
HETATM   22  C   UNK N   1      35.189  11.868  11.585  0.00  0.00     0.052 C 
BRANCH  17  23
HETATM   23  C   UNK N   1      37.583  12.588  11.866  0.00  0.00     0.131 C 
BRANCH  23  24
HETATM   24  C   UNK N   1      37.227  13.735  10.962  0.00  0.00     0.242 C 
HETATM   25  O   UNK N   1      37.245  13.590   9.746  0.00  0.00    -0.271 OA
HETATM   26  N   UNK N   1      36.944  14.944  11.493  0.00  0.00    -0.237 N 
HETATM   27  H   UNK N   1      36.943  15.057  12.470  0.00  0.00     0.197 HD
BRANCH  26  28
HETATM   28  O   UNK N   1      36.664  15.991  10.707  0.00  0.00    -0.287 OA
HETATM   29  H   UNK N   1      35.913  16.605  10.727  0.00  0.00     0.244 HD
ENDBRANCH  26  28
ENDBRANCH  23  24
ENDBRANCH  17  23
ENDBRANCH   1  17
TORSDOF 7
ENDMDL
MODEL 8
REMARK VINA RESULT:      -7.3     10.010     12.595
REMARK  7 active torsions:
REMARK  status: ('A' for Active; 'I' for Inactive)
REMARK    1  A    between atoms: C_5  and  O_7 
REMARK    2  A    between atoms: O_7  and  C_8 
REMARK    3  A    between atoms: C_11  and  S_14 
REMARK    4  A    between atoms: S_14  and  C_15 
REMARK    5  A    between atoms: C_15  and  C_18 
REMARK    6  A    between atoms: C_18  and  C_19 
REMARK       I    between atoms: C_19  and  N_21 
REMARK    7  A    between atoms: N_21  and  O_22 
ROOT
HETATM    1  S   UNK N   1      33.829  16.905   7.709  0.00  0.00     0.184 S 
HETATM    2  O   UNK N   1      34.283  17.698   8.944  0.00  0.00    -0.222 OA
HETATM    3  O   UNK N   1      34.574  17.744   6.659  0.00  0.00    -0.222 OA
ENDROOT
BRANCH   1   4
HETATM    4  C   UNK N   1      32.105  17.347   7.490  0.00  0.00     0.060 A 
HETATM    5  C   UNK N   1      31.376  17.895   8.555  0.00  0.00     0.026 A 
HETATM    6  C   UNK N   1      30.004  18.141   8.415  0.00  0.00     0.039 A 
HETATM    7  C   UNK N   1      29.357  17.849   7.209  0.00  0.00     0.076 A 
HETATM    8  C   UNK N   1      30.099  17.302   6.147  0.00  0.00     0.039 A 
HETATM    9  C   UNK N   1      31.461  17.049   6.290  0.00  0.00     0.026 A 
BRANCH   7  10
HETATM   10  O   UNK N   1      28.017  18.050   7.105  0.00  0.00    -0.311 OA
BRANCH  10  11
HETATM   11  C   UNK N   1      27.410  18.845   6.184  0.00  0.00     0.076 A 
HETATM   12  C   UNK N   1      26.643  18.260   5.171  0.00  0.00     0.037 A 
HETATM   13  C   UNK N   1      26.006  19.062   4.218  0.00  0.00     0.003 A 
HETATM   14  C   UNK N   1      26.117  20.455   4.286  0.00  0.00     0.000 A 
HETATM   15  C   UNK N   1      26.866  21.047   5.305  0.00  0.00     0.003 A 
HETATM   16  C   UNK N   1      27.511  20.246   6.248  0.00  0.00     0.037 A 
ENDBRANCH  10  11
ENDBRANCH   7  10
ENDBRANCH   1   4
BRANCH   1  17
HETATM   17  C   UNK N   1      34.639  15.245   7.804  0.00  0.00     0.081 C 
HETATM   18  C   UNK N   1      35.428  15.127   9.117  0.00  0.00     0.052 C 
HETATM   19  C   UNK N   1      34.551  14.717  10.317  0.00  0.00     0.169 C 
HETATM   20  O   UNK N   1      33.179  14.800  10.015  0.00  0.00    -0.391 OA
HETATM   21  C   UNK N   1      32.920  13.797   9.068  0.00  0.00     0.169 C 
HETATM   22  C   UNK N   1      33.598  14.106   7.723  0.00  0.00     0.052 C 
BRANCH  17  23
HETATM   23  C   UNK N   1      35.652  15.092   6.659  0.00  0.00     0.131 C 
BRANCH  23  24
HETATM   24  C   UNK N   1      35.105  14.590   5.352  0.00  0.00     0.242 C 
HETATM   25  O   UNK N   1      35.418  13.482   4.936  0.00  0.00    -0.271 OA
HETATM   26  N   UNK N   1      34.312  15.390   4.606  0.00  0.00    -0.237 N 
HETATM   27  H   UNK N   1      34.074  16.286   4.939  0.00  0.00     0.197 HD
BRANCH  26  28
HETATM   28  O   UNK N   1      33.845  14.983   3.419  0.00  0.00    -0.287 OA
HETATM   29  H   UNK N   1      34.187  15.140   2.526  0.00  0.00     0.244 HD
ENDBRANCH  26  28
ENDBRANCH  23  24
ENDBRANCH  17  23
ENDBRANCH   1  17
TORSDOF 7
ENDMDL
MODEL 9
REMARK VINA RESULT:      -7.1     14.392     17.259
REMARK  7 active torsions:
REMARK  status: ('A' for Active; 'I' for Inactive)
REMARK    1  A    between atoms: C_5  and  O_7 
REMARK    2  A    between atoms: O_7  and  C_8 
REMARK    3  A    between atoms: C_11  and  S_14 
REMARK    4  A    between atoms: S_14  and  C_15 
REMARK    5  A    between atoms: C_15  and  C_18 
REMARK    6  A    between atoms: C_18  and  C_19 
REMARK       I    between atoms: C_19  and  N_21 
REMARK    7  A    between atoms: N_21  and  O_22 
ROOT
HETATM    1  S   UNK N   1      31.876  21.630  -3.817  0.00  0.00     0.184 S 
HETATM    2  O   UNK N   1      31.428  20.196  -4.142  0.00  0.00    -0.222 OA
HETATM    3  O   UNK N   1      32.334  21.364  -2.375  0.00  0.00    -0.222 OA
ENDROOT
BRANCH   1   4
HETATM    4  C   UNK N   1      30.350  22.554  -3.637  0.00  0.00     0.060 A 
HETATM    5  C   UNK N   1      29.855  22.861  -2.362  0.00  0.00     0.026 A 
HETATM    6  C   UNK N   1      28.612  23.489  -2.222  0.00  0.00     0.039 A 
HETATM    7  C   UNK N   1      27.861  23.821  -3.354  0.00  0.00     0.076 A 
HETATM    8  C   UNK N   1      28.367  23.513  -4.629  0.00  0.00     0.039 A 
HETATM    9  C   UNK N   1      29.600  22.879  -4.768  0.00  0.00     0.026 A 
BRANCH   7  10
HETATM   10  O   UNK N   1      26.635  24.389  -3.200  0.00  0.00    -0.311 OA
BRANCH  10  11
HETATM   11  C   UNK N   1      26.187  25.488  -3.863  0.00  0.00     0.076 A 
HETATM   12  C   UNK N   1      26.352  26.752  -3.288  0.00  0.00     0.037 A 
HETATM   13  C   UNK N   1      25.903  27.895  -3.959  0.00  0.00     0.003 A 
HETATM   14  C   UNK N   1      25.304  27.780  -5.217  0.00  0.00     0.000 A 
HETATM   15  C   UNK N   1      25.153  26.523  -5.806  0.00  0.00     0.003 A 
HETATM   16  C   UNK N   1      25.590  25.382  -5.132  0.00  0.00     0.037 A 
ENDBRANCH  10  11
ENDBRANCH   7  10
ENDBRANCH   1   4
BRANCH   1  17
HETATM   17  C   UNK N   1      33.373  21.975  -4.846  0.00  0.00     0.081 C 
HETATM   18  C   UNK N   1      33.318  21.147  -6.139  0.00  0.00     0.052 C 
HETATM   19  C   UNK N   1      32.465  21.803  -7.243  0.00  0.00     0.169 C 
HETATM   20  O   UNK N   1      31.704  22.878  -6.747  0.00  0.00    -0.391 OA
HETATM   21  C   UNK N   1      32.618  23.886  -6.404  0.00  0.00     0.169 C 
HETATM   22  C   UNK N   1      33.480  23.476  -5.198  0.00  0.00     0.052 C 
BRANCH  17  23
HETATM   23  C   UNK N   1      34.638  21.538  -4.090  0.00  0.00     0.131 C 
BRANCH  23  24
HETATM   24  C   UNK N   1      35.010  20.086  -4.204  0.00  0.00     0.242 C 
HETATM   25  O   UNK N   1      36.042  19.756  -4.773  0.00  0.00    -0.271 OA
HETATM   26  N   UNK N   1      34.171  19.140  -3.728  0.00  0.00    -0.237 N 
HETATM   27  H   UNK N   1      33.336  19.411  -3.282  0.00  0.00     0.197 HD
BRANCH  26  28
HETATM   28  O   UNK N   1      34.460  17.838  -3.854  0.00  0.00    -0.287 OA
HETATM   29  H   UNK N   1      33.943  17.118  -4.246  0.00  0.00     0.244 HD
ENDBRANCH  26  28
ENDBRANCH  23  24
ENDBRANCH  17  23
ENDBRANCH   1  17
TORSDOF 7
ENDMDL
