MODEL 1
REMARK VINA RESULT:      -5.9      0.000      0.000
REMARK  9 active torsions:
REMARK  status: ('A' for Active; 'I' for Inactive)
REMARK    1  A    between atoms: C_1  and  C_4 
REMARK    2  A    between atoms: O_3  and  C_1 
REMARK    3  A    between atoms: C_5  and  C_6 
REMARK    4  A    between atoms: C_11  and  C_12 
REMARK    5  A    between atoms: C_13  and  C_14 
REMARK    6  A    between atoms: C_14  and  C_15 
REMARK    7  A    between atoms: C_16  and  C_15 
REMARK    8  A    between atoms: C_17  and  C_16 
REMARK    9  A    between atoms: C_18  and  C_17 
ROOT
HETATM    1  C   UNK N   1      31.043  17.308   6.600  0.00  0.00    -0.017 A 
HETATM    2  C   UNK N   1      32.381  17.351   7.031  0.00  0.00     0.013 A 
HETATM    3  C   UNK N   1      33.420  17.434   6.083  0.00  0.00     0.001 A 
HETATM    4  C   UNK N   1      33.133  17.483   4.715  0.00  0.00     0.002 A 
HETATM    5  C   UNK N   1      31.813  17.440   4.291  0.00  0.00     0.021 A 
HETATM    6  C   UNK N   1      30.782  17.349   5.216  0.00  0.00     0.028 A 
ENDROOT
BRANCH   6   7
HETATM    7  C   UNK N   1      29.456  17.360   4.714  0.00  0.00    -0.066 C 
HETATM    8  C   UNK N   1      28.356  17.318   4.269  0.00  0.00    -0.101 C 
BRANCH   8   9
HETATM    9  C   UNK N   1      27.085  17.120   3.652  0.00  0.00     0.094 C 
BRANCH   9  10
HETATM   10  C   UNK N   1      26.240  18.130   4.344  0.00  0.00     0.012 C 
BRANCH  10  11
HETATM   11  C   UNK N   1      26.301  19.406   3.570  0.00  0.00     0.001 C 
BRANCH  11  12
HETATM   12  C   UNK N   1      26.166  20.475   4.593  0.00  0.00    -0.000 C 
BRANCH  12  13
HETATM   13  C   UNK N   1      27.482  20.676   5.278  0.00  0.00    -0.005 C 
HETATM   14  C   UNK N   1      27.114  20.866   6.720  0.00  0.00     0.005 C 
ENDBRANCH  12  13
ENDBRANCH  11  12
ENDBRANCH  10  11
ENDBRANCH   9  10
ENDBRANCH   8   9
ENDBRANCH   6   7
BRANCH   1  15
HETATM   15  C   UNK N   1      29.878  17.262   7.527  0.00  0.00     0.019 C 
HETATM   16  C   UNK N   1      29.738  17.835   8.724  0.00  0.00     0.082 C 
BRANCH  16  17
HETATM   17  C   UNK N   1      28.469  17.627   9.468  0.00  0.00     0.165 C 
HETATM   18  O   UNK N   1      28.369  16.705  10.261  0.00  0.00    -0.647 OA
BRANCH  17  19
HETATM   19  O   UNK N   1      27.404  18.431   9.251  0.00  0.00    -0.773 OA
HETATM   20  H   UNK N   1      27.280  19.195   9.778  0.00  0.00     0.167 HD
ENDBRANCH  17  19
ENDBRANCH  16  17
ENDBRANCH   1  15
TORSDOF 9
ENDMDL
MODEL 2
REMARK VINA RESULT:      -5.8      1.440      5.132
REMARK  9 active torsions:
REMARK  status: ('A' for Active; 'I' for Inactive)
REMARK    1  A    between atoms: C_1  and  C_4 
REMARK    2  A    between atoms: O_3  and  C_1 
REMARK    3  A    between atoms: C_5  and  C_6 
REMARK    4  A    between atoms: C_11  and  C_12 
REMARK    5  A    between atoms: C_13  and  C_14 
REMARK    6  A    between atoms: C_14  and  C_15 
REMARK    7  A    between atoms: C_16  and  C_15 
REMARK    8  A    between atoms: C_17  and  C_16 
REMARK    9  A    between atoms: C_18  and  C_17 
ROOT
HETATM    1  C   UNK N   1      27.853  19.562   6.588  0.00  0.00    -0.017 A 
HETATM    2  C   UNK N   1      26.934  20.626   6.636  0.00  0.00     0.013 A 
HETATM    3  C   UNK N   1      26.334  21.087   5.447  0.00  0.00     0.001 A 
HETATM    4  C   UNK N   1      26.638  20.492   4.219  0.00  0.00     0.002 A 
HETATM    5  C   UNK N   1      27.544  19.443   4.173  0.00  0.00     0.021 A 
HETATM    6  C   UNK N   1      28.148  18.986   5.336  0.00  0.00     0.028 A 
ENDROOT
BRANCH   6   7
HETATM    7  C   UNK N   1      29.026  17.880   5.220  0.00  0.00    -0.066 C 
HETATM    8  C   UNK N   1      29.789  16.970   5.171  0.00  0.00    -0.101 C 
BRANCH   8   9
HETATM    9  C   UNK N   1      30.786  15.953   5.250  0.00  0.00     0.094 C 
BRANCH   9  10
HETATM   10  C   UNK N   1      31.885  16.647   5.974  0.00  0.00     0.012 C 
BRANCH  10  11
HETATM   11  C   UNK N   1      31.579  16.622   7.435  0.00  0.00     0.001 C 
BRANCH  11  12
HETATM   12  C   UNK N   1      32.398  17.720   8.012  0.00  0.00    -0.000 C 
BRANCH  12  13
HETATM   13  C   UNK N   1      33.698  17.808   7.273  0.00  0.00    -0.005 C 
HETATM   14  C   UNK N   1      34.615  18.503   8.236  0.00  0.00     0.005 C 
ENDBRANCH  12  13
ENDBRANCH  11  12
ENDBRANCH  10  11
ENDBRANCH   9  10
ENDBRANCH   8   9
ENDBRANCH   6   7
BRANCH   1  15
HETATM   15  C   UNK N   1      28.505  18.979   7.793  0.00  0.00     0.019 C 
HETATM   16  C   UNK N   1      27.985  18.168   8.716  0.00  0.00     0.082 C 
BRANCH  16  17
HETATM   17  C   UNK N   1      28.847  17.730   9.845  0.00  0.00     0.165 C 
HETATM   18  O   UNK N   1      28.610  16.683  10.425  0.00  0.00    -0.647 OA
BRANCH  17  19
HETATM   19  O   UNK N   1      29.877  18.499  10.261  0.00  0.00    -0.773 OA
HETATM   20  H   UNK N   1      30.274  18.338  11.094  0.00  0.00     0.167 HD
ENDBRANCH  17  19
ENDBRANCH  16  17
ENDBRANCH   1  15
TORSDOF 9
ENDMDL
MODEL 3
REMARK VINA RESULT:      -5.8     11.022     14.035
REMARK  9 active torsions:
REMARK  status: ('A' for Active; 'I' for Inactive)
REMARK    1  A    between atoms: C_1  and  C_4 
REMARK    2  A    between atoms: O_3  and  C_1 
REMARK    3  A    between atoms: C_5  and  C_6 
REMARK    4  A    between atoms: C_11  and  C_12 
REMARK    5  A    between atoms: C_13  and  C_14 
REMARK    6  A    between atoms: C_14  and  C_15 
REMARK    7  A    between atoms: C_16  and  C_15 
REMARK    8  A    between atoms: C_17  and  C_16 
REMARK    9  A    between atoms: C_18  and  C_17 
ROOT
HETATM    1  C   UNK N   1      25.723  25.305  -5.145  0.00  0.00    -0.017 A 
HETATM    2  C   UNK N   1      25.051  26.370  -5.772  0.00  0.00     0.013 A 
HETATM    3  C   UNK N   1      25.062  27.650  -5.182  0.00  0.00     0.001 A 
HETATM    4  C   UNK N   1      25.743  27.874  -3.981  0.00  0.00     0.002 A 
HETATM    5  C   UNK N   1      26.405  26.824  -3.364  0.00  0.00     0.021 A 
HETATM    6  C   UNK N   1      26.394  25.557  -3.931  0.00  0.00     0.028 A 
ENDROOT
BRANCH   6   7
HETATM    7  C   UNK N   1      27.133  24.543  -3.271  0.00  0.00    -0.066 C 
HETATM    8  C   UNK N   1      27.786  23.734  -2.696  0.00  0.00    -0.101 C 
BRANCH   8   9
HETATM    9  C   UNK N   1      28.673  22.897  -1.957  0.00  0.00     0.094 C 
BRANCH   9  10
HETATM   10  C   UNK N   1      29.982  23.178  -2.606  0.00  0.00     0.012 C 
BRANCH  10  11
HETATM   11  C   UNK N   1      30.423  21.949  -3.331  0.00  0.00     0.001 C 
BRANCH  11  12
HETATM   12  C   UNK N   1      30.757  22.418  -4.701  0.00  0.00    -0.000 C 
BRANCH  12  13
HETATM   13  C   UNK N   1      29.541  22.319  -5.569  0.00  0.00    -0.005 C 
HETATM   14  C   UNK N   1      29.469  23.656  -6.246  0.00  0.00     0.005 C 
ENDBRANCH  12  13
ENDBRANCH  11  12
ENDBRANCH  10  11
ENDBRANCH   9  10
ENDBRANCH   8   9
ENDBRANCH   6   7
BRANCH   1  15
HETATM   15  C   UNK N   1      25.803  23.931  -5.712  0.00  0.00     0.019 C 
HETATM   16  C   UNK N   1      25.801  23.552  -6.992  0.00  0.00     0.082 C 
BRANCH  16  17
HETATM   17  C   UNK N   1      25.877  22.101  -7.304  0.00  0.00     0.165 C 
HETATM   18  O   UNK N   1      26.909  21.624  -7.746  0.00  0.00    -0.647 OA
BRANCH  17  19
HETATM   19  O   UNK N   1      24.799  21.304  -7.135  0.00  0.00    -0.773 OA
HETATM   20  H   UNK N   1      23.965  21.567  -7.471  0.00  0.00     0.167 HD
ENDBRANCH  17  19
ENDBRANCH  16  17
ENDBRANCH   1  15
TORSDOF 9
ENDMDL
MODEL 4
REMARK VINA RESULT:      -5.8      3.516      5.887
REMARK  9 active torsions:
REMARK  status: ('A' for Active; 'I' for Inactive)
REMARK    1  A    between atoms: C_1  and  C_4 
REMARK    2  A    between atoms: O_3  and  C_1 
REMARK    3  A    between atoms: C_5  and  C_6 
REMARK    4  A    between atoms: C_11  and  C_12 
REMARK    5  A    between atoms: C_13  and  C_14 
REMARK    6  A    between atoms: C_14  and  C_15 
REMARK    7  A    between atoms: C_16  and  C_15 
REMARK    8  A    between atoms: C_17  and  C_16 
REMARK    9  A    between atoms: C_18  and  C_17 
ROOT
HETATM    1  C   UNK N   1      30.605  17.619   7.996  0.00  0.00    -0.017 A 
HETATM    2  C   UNK N   1      30.042  17.762   9.277  0.00  0.00     0.013 A 
HETATM    3  C   UNK N   1      28.658  17.567   9.460  0.00  0.00     0.001 A 
HETATM    4  C   UNK N   1      27.839  17.225   8.380  0.00  0.00     0.002 A 
HETATM    5  C   UNK N   1      28.395  17.084   7.117  0.00  0.00     0.021 A 
HETATM    6  C   UNK N   1      29.755  17.282   6.923  0.00  0.00     0.028 A 
ENDROOT
BRANCH   6   7
HETATM    7  C   UNK N   1      30.262  17.073   5.616  0.00  0.00    -0.066 C 
HETATM    8  C   UNK N   1      30.725  16.940   4.530  0.00  0.00    -0.101 C 
BRANCH   8   9
HETATM    9  C   UNK N   1      31.382  16.920   3.265  0.00  0.00     0.094 C 
BRANCH   9  10
HETATM   10  C   UNK N   1      32.815  17.006   3.655  0.00  0.00     0.012 C 
BRANCH  10  11
HETATM   11  C   UNK N   1      33.465  15.694   3.358  0.00  0.00     0.001 C 
BRANCH  11  12
HETATM   12  C   UNK N   1      33.979  15.222   4.670  0.00  0.00    -0.000 C 
BRANCH  12  13
HETATM   13  C   UNK N   1      33.238  13.986   5.076  0.00  0.00    -0.005 C 
HETATM   14  C   UNK N   1      32.638  14.344   6.404  0.00  0.00     0.005 C 
ENDBRANCH  12  13
ENDBRANCH  11  12
ENDBRANCH  10  11
ENDBRANCH   9  10
ENDBRANCH   8   9
ENDBRANCH   6   7
BRANCH   1  15
HETATM   15  C   UNK N   1      32.060  17.763   7.712  0.00  0.00     0.019 C 
HETATM   16  C   UNK N   1      32.990  18.411   8.417  0.00  0.00     0.082 C 
BRANCH  16  17
HETATM   17  C   UNK N   1      34.387  18.420   7.912  0.00  0.00     0.165 C 
HETATM   18  O   UNK N   1      34.688  17.752   6.936  0.00  0.00    -0.647 OA
BRANCH  17  19
HETATM   19  O   UNK N   1      35.342  19.137   8.544  0.00  0.00    -0.773 OA
HETATM   20  H   UNK N   1      35.560  19.996   8.241  0.00  0.00     0.167 HD
ENDBRANCH  17  19
ENDBRANCH  16  17
ENDBRANCH   1  15
TORSDOF 9
ENDMDL
MODEL 5
REMARK VINA RESULT:      -5.8     11.338     14.087
REMARK  9 active torsions:
REMARK  status: ('A' for Active; 'I' for Inactive)
REMARK    1  A    between atoms: C_1  and  C_4 
REMARK    2  A    between atoms: O_3  and  C_1 
REMARK    3  A    between atoms: C_5  and  C_6 
REMARK    4  A    between atoms: C_11  and  C_12 
REMARK    5  A    between atoms: C_13  and  C_14 
REMARK    6  A    between atoms: C_14  and  C_15 
REMARK    7  A    between atoms: C_16  and  C_15 
REMARK    8  A    between atoms: C_17  and  C_16 
REMARK    9  A    between atoms: C_18  and  C_17 
ROOT
HETATM    1  C   UNK N   1      35.416  12.496  17.119  0.00  0.00    -0.017 A 
HETATM    2  C   UNK N   1      35.058  13.407  18.129  0.00  0.00     0.013 A 
HETATM    3  C   UNK N   1      35.113  13.012  19.481  0.00  0.00     0.001 A 
HETATM    4  C   UNK N   1      35.527  11.723  19.829  0.00  0.00     0.002 A 
HETATM    5  C   UNK N   1      35.880  10.825  18.833  0.00  0.00     0.021 A 
HETATM    6  C   UNK N   1      35.823  11.200  17.498  0.00  0.00     0.028 A 
ENDROOT
BRANCH   6   7
HETATM    7  C   UNK N   1      36.244  10.248  16.537  0.00  0.00    -0.066 C 
HETATM    8  C   UNK N   1      36.640   9.485  15.716  0.00  0.00    -0.101 C 
BRANCH   8   9
HETATM    9  C   UNK N   1      37.233   8.694  14.688  0.00  0.00     0.094 C 
BRANCH   9  10
HETATM   10  C   UNK N   1      37.456   9.697  13.612  0.00  0.00     0.012 C 
BRANCH  10  11
HETATM   11  C   UNK N   1      36.620   9.318  12.434  0.00  0.00     0.001 C 
BRANCH  11  12
HETATM   12  C   UNK N   1      35.644  10.430  12.290  0.00  0.00    -0.000 C 
BRANCH  12  13
HETATM   13  C   UNK N   1      34.255   9.894  12.450  0.00  0.00    -0.005 C 
HETATM   14  C   UNK N   1      33.761  10.539  13.712  0.00  0.00     0.005 C 
ENDBRANCH  12  13
ENDBRANCH  11  12
ENDBRANCH  10  11
ENDBRANCH   9  10
ENDBRANCH   8   9
ENDBRANCH   6   7
BRANCH   1  15
HETATM   15  C   UNK N   1      35.431  12.834  15.669  0.00  0.00     0.019 C 
HETATM   16  C   UNK N   1      36.257  13.647  15.007  0.00  0.00     0.082 C 
BRANCH  16  17
HETATM   17  C   UNK N   1      36.055  13.831  13.547  0.00  0.00     0.165 C 
HETATM   18  O   UNK N   1      34.926  13.905  13.090  0.00  0.00    -0.647 OA
BRANCH  17  19
HETATM   19  O   UNK N   1      37.113  13.884  12.708  0.00  0.00    -0.773 OA
HETATM   20  H   UNK N   1      37.369  13.121  12.229  0.00  0.00     0.167 HD
ENDBRANCH  17  19
ENDBRANCH  16  17
ENDBRANCH   1  15
TORSDOF 9
ENDMDL
MODEL 6
REMARK VINA RESULT:      -5.8     11.173     14.224
REMARK  9 active torsions:
REMARK  status: ('A' for Active; 'I' for Inactive)
REMARK    1  A    between atoms: C_1  and  C_4 
REMARK    2  A    between atoms: O_3  and  C_1 
REMARK    3  A    between atoms: C_5  and  C_6 
REMARK    4  A    between atoms: C_11  and  C_12 
REMARK    5  A    between atoms: C_13  and  C_14 
REMARK    6  A    between atoms: C_14  and  C_15 
REMARK    7  A    between atoms: C_16  and  C_15 
REMARK    8  A    between atoms: C_17  and  C_16 
REMARK    9  A    between atoms: C_18  and  C_17 
ROOT
HETATM    1  C   UNK N   1      35.101  12.566  17.033  0.00  0.00    -0.017 A 
HETATM    2  C   UNK N   1      35.110  13.491  18.093  0.00  0.00     0.013 A 
HETATM    3  C   UNK N   1      35.238  13.036  19.420  0.00  0.00     0.001 A 
HETATM    4  C   UNK N   1      35.364  11.670  19.694  0.00  0.00     0.002 A 
HETATM    5  C   UNK N   1      35.356  10.759  18.649  0.00  0.00     0.021 A 
HETATM    6  C   UNK N   1      35.222  11.195  17.338  0.00  0.00     0.028 A 
ENDROOT
BRANCH   6   7
HETATM    7  C   UNK N   1      35.271  10.212  16.318  0.00  0.00    -0.066 C 
HETATM    8  C   UNK N   1      35.298   9.429  15.425  0.00  0.00    -0.101 C 
BRANCH   8   9
HETATM    9  C   UNK N   1      35.274   8.621  14.250  0.00  0.00     0.094 C 
BRANCH   9  10
HETATM   10  C   UNK N   1      35.676   9.592  13.196  0.00  0.00     0.012 C 
BRANCH  10  11
HETATM   11  C   UNK N   1      37.136   9.426  12.933  0.00  0.00     0.001 C 
BRANCH  11  12
HETATM   12  C   UNK N   1      37.697  10.798  13.033  0.00  0.00    -0.000 C 
BRANCH  12  13
HETATM   13  C   UNK N   1      38.341  10.973  14.373  0.00  0.00    -0.005 C 
HETATM   14  C   UNK N   1      38.981   9.643  14.643  0.00  0.00     0.005 C 
ENDBRANCH  12  13
ENDBRANCH  11  12
ENDBRANCH  10  11
ENDBRANCH   9  10
ENDBRANCH   8   9
ENDBRANCH   6   7
BRANCH   1  15
HETATM   15  C   UNK N   1      35.013  12.954  15.598  0.00  0.00     0.019 C 
HETATM   16  C   UNK N   1      35.917  13.585  14.844  0.00  0.00     0.082 C 
BRANCH  16  17
HETATM   17  C   UNK N   1      35.582  13.873  13.426  0.00  0.00     0.165 C 
HETATM   18  O   UNK N   1      36.264  14.655  12.784  0.00  0.00    -0.647 OA
BRANCH  17  19
HETATM   19  O   UNK N   1      34.505  13.301  12.844  0.00  0.00    -0.773 OA
HETATM   20  H   UNK N   1      34.422  12.369  12.826  0.00  0.00     0.167 HD
ENDBRANCH  17  19
ENDBRANCH  16  17
ENDBRANCH   1  15
TORSDOF 9
ENDMDL
MODEL 7
REMARK VINA RESULT:      -5.8     10.882     12.779
REMARK  9 active torsions:
REMARK  status: ('A' for Active; 'I' for Inactive)
REMARK    1  A    between atoms: C_1  and  C_4 
REMARK    2  A    between atoms: O_3  and  C_1 
REMARK    3  A    between atoms: C_5  and  C_6 
REMARK    4  A    between atoms: C_11  and  C_12 
REMARK    5  A    between atoms: C_13  and  C_14 
REMARK    6  A    between atoms: C_14  and  C_15 
REMARK    7  A    between atoms: C_16  and  C_15 
REMARK    8  A    between atoms: C_17  and  C_16 
REMARK    9  A    between atoms: C_18  and  C_17 
ROOT
HETATM    1  C   UNK N   1      30.007  20.993  -6.063  0.00  0.00    -0.017 A 
HETATM    2  C   UNK N   1      30.303  19.782  -6.716  0.00  0.00     0.013 A 
HETATM    3  C   UNK N   1      29.586  19.416  -7.872  0.00  0.00     0.001 A 
HETATM    4  C   UNK N   1      28.586  20.249  -8.382  0.00  0.00     0.002 A 
HETATM    5  C   UNK N   1      28.294  21.442  -7.738  0.00  0.00     0.021 A 
HETATM    6  C   UNK N   1      28.988  21.809  -6.594  0.00  0.00     0.028 A 
ENDROOT
BRANCH   6   7
HETATM    7  C   UNK N   1      28.671  23.064  -6.016  0.00  0.00    -0.066 C 
HETATM    8  C   UNK N   1      28.461  24.130  -5.534  0.00  0.00    -0.101 C 
BRANCH   8   9
HETATM    9  C   UNK N   1      28.384  25.431  -4.956  0.00  0.00     0.094 C 
BRANCH   9  10
HETATM   10  C   UNK N   1      27.503  25.199  -3.779  0.00  0.00     0.012 C 
BRANCH  10  11
HETATM   11  C   UNK N   1      26.127  25.668  -4.120  0.00  0.00     0.001 C 
BRANCH  11  12
HETATM   12  C   UNK N   1      26.045  27.040  -3.554  0.00  0.00    -0.000 C 
BRANCH  12  13
HETATM   13  C   UNK N   1      25.535  27.978  -4.603  0.00  0.00    -0.005 C 
HETATM   14  C   UNK N   1      24.813  27.085  -5.569  0.00  0.00     0.005 C 
ENDBRANCH  12  13
ENDBRANCH  11  12
ENDBRANCH  10  11
ENDBRANCH   9  10
ENDBRANCH   8   9
ENDBRANCH   6   7
BRANCH   1  15
HETATM   15  C   UNK N   1      30.737  21.484  -4.862  0.00  0.00     0.019 C 
HETATM   16  C   UNK N   1      30.500  21.226  -3.574  0.00  0.00     0.082 C 
BRANCH  16  17
HETATM   17  C   UNK N   1      31.373  21.855  -2.550  0.00  0.00     0.165 C 
HETATM   18  O   UNK N   1      31.031  22.892  -2.008  0.00  0.00    -0.647 OA
BRANCH  17  19
HETATM   19  O   UNK N   1      32.567  21.306  -2.234  0.00  0.00    -0.773 OA
HETATM   20  H   UNK N   1      33.349  21.621  -2.640  0.00  0.00     0.167 HD
ENDBRANCH  17  19
ENDBRANCH  16  17
ENDBRANCH   1  15
TORSDOF 9
ENDMDL
MODEL 8
REMARK VINA RESULT:      -5.7      5.129      8.659
REMARK  9 active torsions:
REMARK  status: ('A' for Active; 'I' for Inactive)
REMARK    1  A    between atoms: C_1  and  C_4 
REMARK    2  A    between atoms: O_3  and  C_1 
REMARK    3  A    between atoms: C_5  and  C_6 
REMARK    4  A    between atoms: C_11  and  C_12 
REMARK    5  A    between atoms: C_13  and  C_14 
REMARK    6  A    between atoms: C_14  and  C_15 
REMARK    7  A    between atoms: C_16  and  C_15 
REMARK    8  A    between atoms: C_17  and  C_16 
REMARK    9  A    between atoms: C_18  and  C_17 
ROOT
HETATM    1  C   UNK N   1      21.816  18.724   3.798  0.00  0.00    -0.017 A 
HETATM    2  C   UNK N   1      20.721  18.066   4.388  0.00  0.00     0.013 A 
HETATM    3  C   UNK N   1      20.925  17.219   5.495  0.00  0.00     0.001 A 
HETATM    4  C   UNK N   1      22.207  17.031   6.020  0.00  0.00     0.002 A 
HETATM    5  C   UNK N   1      23.287  17.680   5.438  0.00  0.00     0.021 A 
HETATM    6  C   UNK N   1      23.099  18.510   4.342  0.00  0.00     0.028 A 
ENDROOT
BRANCH   6   7
HETATM    7  C   UNK N   1      24.239  19.178   3.830  0.00  0.00    -0.066 C 
HETATM    8  C   UNK N   1      25.201  19.764   3.451  0.00  0.00    -0.101 C 
BRANCH   8   9
HETATM    9  C   UNK N   1      26.354  20.548   3.155  0.00  0.00     0.094 C 
BRANCH   9  10
HETATM   10  C   UNK N   1      27.280  20.172   4.257  0.00  0.00     0.012 C 
BRANCH  10  11
HETATM   11  C   UNK N   1      26.946  20.995   5.457  0.00  0.00     0.001 C 
BRANCH  11  12
HETATM   12  C   UNK N   1      27.600  20.294   6.592  0.00  0.00    -0.000 C 
BRANCH  12  13
HETATM   13  C   UNK N   1      27.554  18.816   6.353  0.00  0.00    -0.005 C 
HETATM   14  C   UNK N   1      28.629  18.271   7.247  0.00  0.00     0.005 C 
ENDBRANCH  12  13
ENDBRANCH  11  12
ENDBRANCH  10  11
ENDBRANCH   9  10
ENDBRANCH   8   9
ENDBRANCH   6   7
BRANCH   1  15
HETATM   15  C   UNK N   1      21.694  19.669   2.654  0.00  0.00     0.019 C 
HETATM   16  C   UNK N   1      20.590  20.186   2.109  0.00  0.00     0.082 C 
BRANCH  16  17
HETATM   17  C   UNK N   1      20.733  21.107   0.952  0.00  0.00     0.165 C 
HETATM   18  O   UNK N   1      21.160  20.691  -0.111  0.00  0.00    -0.647 OA
BRANCH  17  19
HETATM   19  O   UNK N   1      20.424  22.417   1.075  0.00  0.00    -0.773 OA
HETATM   20  H   UNK N   1      19.595  22.732   0.774  0.00  0.00     0.167 HD
ENDBRANCH  17  19
ENDBRANCH  16  17
ENDBRANCH   1  15
TORSDOF 9
ENDMDL
MODEL 9
REMARK VINA RESULT:      -5.6     11.315     13.212
REMARK  9 active torsions:
REMARK  status: ('A' for Active; 'I' for Inactive)
REMARK    1  A    between atoms: C_1  and  C_4 
REMARK    2  A    between atoms: O_3  and  C_1 
REMARK    3  A    between atoms: C_5  and  C_6 
REMARK    4  A    between atoms: C_11  and  C_12 
REMARK    5  A    between atoms: C_13  and  C_14 
REMARK    6  A    between atoms: C_14  and  C_15 
REMARK    7  A    between atoms: C_16  and  C_15 
REMARK    8  A    between atoms: C_17  and  C_16 
REMARK    9  A    between atoms: C_18  and  C_17 
ROOT
HETATM    1  C   UNK N   1      29.593  21.716  -5.969  0.00  0.00    -0.017 A 
HETATM    2  C   UNK N   1      30.464  20.719  -6.445  0.00  0.00     0.013 A 
HETATM    3  C   UNK N   1      30.128  19.991  -7.604  0.00  0.00     0.001 A 
HETATM    4  C   UNK N   1      28.938  20.254  -8.290  0.00  0.00     0.002 A 
HETATM    5  C   UNK N   1      28.080  21.237  -7.819  0.00  0.00     0.021 A 
HETATM    6  C   UNK N   1      28.396  21.955  -6.675  0.00  0.00     0.028 A 
ENDROOT
BRANCH   6   7
HETATM    7  C   UNK N   1      27.498  22.977  -6.280  0.00  0.00    -0.066 C 
HETATM    8  C   UNK N   1      26.701  23.802  -5.967  0.00  0.00    -0.101 C 
BRANCH   8   9
HETATM    9  C   UNK N   1      25.623  24.685  -5.665  0.00  0.00     0.094 C 
BRANCH   9  10
HETATM   10  C   UNK N   1      25.741  25.703  -6.745  0.00  0.00     0.012 C 
BRANCH  10  11
HETATM   11  C   UNK N   1      25.409  27.041  -6.171  0.00  0.00     0.001 C 
BRANCH  11  12
HETATM   12  C   UNK N   1      26.689  27.794  -6.206  0.00  0.00    -0.000 C 
BRANCH  12  13
HETATM   13  C   UNK N   1      26.898  28.477  -4.890  0.00  0.00    -0.005 C 
HETATM   14  C   UNK N   1      25.616  28.234  -4.149  0.00  0.00     0.005 C 
ENDBRANCH  12  13
ENDBRANCH  11  12
ENDBRANCH  10  11
ENDBRANCH   9  10
ENDBRANCH   8   9
ENDBRANCH   6   7
BRANCH   1  15
HETATM   15  C   UNK N   1      29.881  22.565  -4.780  0.00  0.00     0.019 C 
HETATM   16  C   UNK N   1      30.256  22.191  -3.554  0.00  0.00     0.082 C 
BRANCH  16  17
HETATM   17  C   UNK N   1      30.471  23.241  -2.525  0.00  0.00     0.165 C 
HETATM   18  O   UNK N   1      30.455  22.948  -1.341  0.00  0.00    -0.647 OA
BRANCH  17  19
HETATM   19  O   UNK N   1      30.652  24.530  -2.886  0.00  0.00    -0.773 OA
HETATM   20  H   UNK N   1      30.269  24.853  -3.677  0.00  0.00     0.167 HD
ENDBRANCH  17  19
ENDBRANCH  16  17
ENDBRANCH   1  15
TORSDOF 9
ENDMDL
