MODEL 1
REMARK VINA RESULT:     -15.2      0.000      0.000
REMARK  3 active torsions:
REMARK  status: ('A' for Active; 'I' for Inactive)
REMARK    1  A    between atoms: C_25  and  C_26 
REMARK    2  A    between atoms: C_27  and  C_28 
REMARK    3  A    between atoms: C_31  and  C_32 
ROOT
HETATM    1  C   UNK N   1      20.685  12.419  11.203  0.00  0.00     0.140 A 
HETATM    2  O   UNK N   1      19.956  12.719  10.960  0.00  0.00    -0.650 OA
HETATM    3  O   UNK N   1      20.721  11.869  11.817  0.00  0.00    -0.776 OA
HETATM    4  C   UNK N   1      21.480  12.706  10.779  0.00  0.00     0.124 A 
HETATM    5  C   UNK N   1      22.150  12.308  11.141  0.00  0.00     0.088 A 
HETATM    6  C   UNK N   1      22.689  12.686  10.647  0.00  0.00     0.223 A 
HETATM    7  O   UNK N   1      23.366  12.765  10.472  0.00  0.00    -0.273 OA
HETATM    8  N   UNK N   1      23.372  12.963  10.248  0.00  0.00    -0.347 N 
HETATM    9  C   UNK N   1      23.972  13.255   9.844  0.00  0.00     0.180 A 
HETATM   10  C   UNK N   1      24.793  13.176   9.828  0.00  0.00     0.240 A 
HETATM   11  O   UNK N   1      25.449  13.477   9.405  0.00  0.00    -0.271 OA
HETATM   12  N   UNK N   1      25.009  12.633  10.410  0.00  0.00    -0.359 N 
HETATM   13  C   UNK N   1      24.322  12.376  10.786  0.00  0.00     0.122 A 
HETATM   14  C   UNK N   1      24.172  11.658  11.613  0.00  0.00     0.020 A 
HETATM   15  C   UNK N   1      23.377  11.720  11.645  0.00  0.00     0.002 A 
HETATM   16  C   UNK N   1      22.678  12.150  11.251  0.00  0.00     0.002 A 
HETATM   17  C   UNK N   1      21.884  12.057  11.457  0.00  0.00     0.020 A 
HETATM   18  C   UNK N   1      21.301  12.480  11.056  0.00  0.00     0.128 A 
HETATM   19  N   UNK N   1      21.511  12.997  10.448  0.00  0.00    -0.356 N 
HETATM   20  C   UNK N   1      22.455  11.683  11.804  0.00  0.00     0.018 A 
HETATM   21  C   UNK N   1      23.136  11.997  11.364  0.00  0.00    -0.022 A 
HETATM   22  C   UNK N   1      23.767  12.293  10.951  0.00  0.00     0.009 A 
HETATM   23  C   UNK N   1      23.950  12.087  11.159  0.00  0.00     0.009 A 
HETATM   24  C   UNK N   1      23.308  13.701   9.428  0.00  0.00     0.075 A 
HETATM   25  C   UNK N   1      22.514  13.608   9.634  0.00  0.00    -0.028 A 
HETATM   26  C   UNK N   1      22.305  13.091  10.242  0.00  0.00     0.099 A 
HETATM   27  C   UNK N   1      21.714  13.861   9.451  0.00  0.00    -0.002 A 
HETATM   28  C   UNK N   1      21.135  13.509   9.922  0.00  0.00     0.045 A 
HETATM   29  C   UNK N   1      21.499  14.404   8.869  0.00  0.00     0.014 A 
HETATM   30  C   UNK N   1      20.340  13.700   9.809  0.00  0.00     0.030 A 
HETATM   31  C   UNK N   1      20.704  14.595   8.756  0.00  0.00     0.001 A 
HETATM   32  C   UNK N   1      20.125  14.242   9.227  0.00  0.00     0.002 A 
HETATM   33  H   UNK N   1      19.933  11.585  12.237  0.00  0.00     0.167 HD
HETATM   34  H   UNK N   1      23.966  12.405  10.800  0.00  0.00     0.163 HD
HETATM   35  H   UNK N   1      25.927  12.342  10.619  0.00  0.00     0.162 HD
ENDROOT
TORSDOF 3
ENDMDL
MODEL 2
REMARK VINA RESULT:     -14.4      0.855      2.861
REMARK  3 active torsions:
REMARK  status: ('A' for Active; 'I' for Inactive)
REMARK    1  A    between atoms: C_25  and  C_26 
REMARK    2  A    between atoms: C_27  and  C_28 
REMARK    3  A    between atoms: C_31  and  C_32 
ROOT
HETATM    1  C   UNK N   1      24.886  12.762   9.950  0.00  0.00     0.140 A 
HETATM    2  O   UNK N   1      25.255  13.068   9.278  0.00  0.00    -0.650 OA
HETATM    3  O   UNK N   1      25.340  12.453  10.566  0.00  0.00    -0.776 OA
HETATM    4  C   UNK N   1      23.943  12.764  10.014  0.00  0.00     0.124 A 
HETATM    5  C   UNK N   1      23.712  12.416  10.765  0.00  0.00     0.088 A 
HETATM    6  C   UNK N   1      22.910  12.518  10.609  0.00  0.00     0.223 A 
HETATM    7  O   UNK N   1      22.253  12.430  10.844  0.00  0.00    -0.273 OA
HETATM    8  N   UNK N   1      22.073  12.537  10.631  0.00  0.00    -0.347 N 
HETATM    9  C   UNK N   1      21.294  12.580  10.598  0.00  0.00     0.180 A 
HETATM   10  C   UNK N   1      20.651  12.377  11.073  0.00  0.00     0.240 A 
HETATM   11  O   UNK N   1      19.816  12.414  11.056  0.00  0.00    -0.271 OA
HETATM   12  N   UNK N   1      20.942  12.038  11.766  0.00  0.00    -0.359 N 
HETATM   13  C   UNK N   1      21.766  12.031  11.720  0.00  0.00     0.122 A 
HETATM   14  C   UNK N   1      22.530  11.666  12.431  0.00  0.00     0.020 A 
HETATM   15  C   UNK N   1      23.165  11.855  11.987  0.00  0.00     0.002 A 
HETATM   16  C   UNK N   1      23.393  12.226  11.187  0.00  0.00     0.002 A 
HETATM   17  C   UNK N   1      24.164  12.330  10.913  0.00  0.00     0.020 A 
HETATM   18  C   UNK N   1      24.297  12.675  10.176  0.00  0.00     0.128 A 
HETATM   19  N   UNK N   1      23.659  12.918   9.712  0.00  0.00    -0.356 N 
HETATM   20  C   UNK N   1      23.998  12.014  11.590  0.00  0.00     0.018 A 
HETATM   21  C   UNK N   1      23.130  12.054  11.570  0.00  0.00    -0.022 A 
HETATM   22  C   UNK N   1      22.322  12.093  11.548  0.00  0.00     0.009 A 
HETATM   23  C   UNK N   1      22.344  11.944  11.858  0.00  0.00     0.009 A 
HETATM   24  C   UNK N   1      21.478  12.954   9.798  0.00  0.00     0.075 A 
HETATM   25  C   UNK N   1      22.249  13.057   9.523  0.00  0.00    -0.028 A 
HETATM   26  C   UNK N   1      22.887  12.814   9.987  0.00  0.00     0.099 A 
HETATM   27  C   UNK N   1      22.720  13.352   8.868  0.00  0.00    -0.002 A 
HETATM   28  C   UNK N   1      23.534  13.271   8.978  0.00  0.00     0.045 A 
HETATM   29  C   UNK N   1      22.429  13.691   8.176  0.00  0.00     0.014 A 
HETATM   30  C   UNK N   1      24.056  13.530   8.393  0.00  0.00     0.030 A 
HETATM   31  C   UNK N   1      22.950  13.950   7.591  0.00  0.00     0.001 A 
HETATM   32  C   UNK N   1      23.764  13.869   7.701  0.00  0.00     0.002 A 
HETATM   33  H   UNK N   1      26.275  12.451  10.502  0.00  0.00     0.167 HD
HETATM   34  H   UNK N   1      22.050  12.115  11.520  0.00  0.00     0.163 HD
HETATM   35  H   UNK N   1      20.402  11.700  12.517  0.00  0.00     0.162 HD
ENDROOT
TORSDOF 3
ENDMDL
MODEL 3
REMARK VINA RESULT:     -14.0     13.461     14.713
REMARK  3 active torsions:
REMARK  status: ('A' for Active; 'I' for Inactive)
REMARK    1  A    between atoms: C_25  and  C_26 
REMARK    2  A    between atoms: C_27  and  C_28 
REMARK    3  A    between atoms: C_31  and  C_32 
ROOT
HETATM    1  C   UNK N   1      34.816  12.607  15.506  0.00  0.00     0.140 A 
HETATM    2  O   UNK N   1      34.750  12.121  14.843  0.00  0.00    -0.650 OA
HETATM    3  O   UNK N   1      34.755  13.426  15.426  0.00  0.00    -0.776 OA
HETATM    4  C   UNK N   1      34.963  12.226  16.359  0.00  0.00     0.124 A 
HETATM    5  C   UNK N   1      35.010  12.855  16.943  0.00  0.00     0.088 A 
HETATM    6  C   UNK N   1      35.132  12.324  17.560  0.00  0.00     0.223 A 
HETATM    7  O   UNK N   1      35.237  12.245  18.251  0.00  0.00    -0.273 OA
HETATM    8  N   UNK N   1      35.262  11.951  18.299  0.00  0.00    -0.347 N 
HETATM    9  C   UNK N   1      35.382  11.553  18.959  0.00  0.00     0.180 A 
HETATM   10  C   UNK N   1      35.488  11.716  19.760  0.00  0.00     0.240 A 
HETATM   11  O   UNK N   1      35.617  11.306  20.478  0.00  0.00    -0.271 OA
HETATM   12  N   UNK N   1      35.453  12.534  19.861  0.00  0.00    -0.359 N 
HETATM   13  C   UNK N   1      35.325  12.877  19.122  0.00  0.00     0.122 A 
HETATM   14  C   UNK N   1      35.217  13.934  18.820  0.00  0.00     0.020 A 
HETATM   15  C   UNK N   1      35.112  13.798  18.041  0.00  0.00     0.002 A 
HETATM   16  C   UNK N   1      35.065  13.119  17.436  0.00  0.00     0.002 A 
HETATM   17  C   UNK N   1      34.942  13.213  16.625  0.00  0.00     0.020 A 
HETATM   18  C   UNK N   1      34.911  12.552  16.133  0.00  0.00     0.128 A 
HETATM   19  N   UNK N   1      35.003  11.796  16.451  0.00  0.00    -0.356 N 
HETATM   20  C   UNK N   1      34.978  13.800  17.115  0.00  0.00     0.018 A 
HETATM   21  C   UNK N   1      35.112  13.372  17.859  0.00  0.00    -0.022 A 
HETATM   22  C   UNK N   1      35.237  12.969  18.551  0.00  0.00     0.009 A 
HETATM   23  C   UNK N   1      35.238  13.285  18.690  0.00  0.00     0.009 A 
HETATM   24  C   UNK N   1      35.342  10.853  18.391  0.00  0.00     0.075 A 
HETATM   25  C   UNK N   1      35.218  10.947  17.580  0.00  0.00    -0.028 A 
HETATM   26  C   UNK N   1      35.126  11.702  17.262  0.00  0.00     0.099 A 
HETATM   27  C   UNK N   1      35.136  10.525  16.837  0.00  0.00    -0.002 A 
HETATM   28  C   UNK N   1      35.012  11.016  16.185  0.00  0.00     0.045 A 
HETATM   29  C   UNK N   1      35.171   9.707  16.736  0.00  0.00     0.014 A 
HETATM   30  C   UNK N   1      34.922  10.687  15.433  0.00  0.00     0.030 A 
HETATM   31  C   UNK N   1      35.082   9.379  15.985  0.00  0.00     0.001 A 
HETATM   32  C   UNK N   1      34.957   9.870  15.333  0.00  0.00     0.002 A 
HETATM   33  H   UNK N   1      34.609  13.804  14.581  0.00  0.00     0.167 HD
HETATM   34  H   UNK N   1      35.278  12.814  18.773  0.00  0.00     0.163 HD
HETATM   35  H   UNK N   1      35.548  13.017  20.714  0.00  0.00     0.162 HD
ENDROOT
TORSDOF 3
ENDMDL
MODEL 4
REMARK VINA RESULT:     -13.8      1.267      2.237
REMARK  3 active torsions:
REMARK  status: ('A' for Active; 'I' for Inactive)
REMARK    1  A    between atoms: C_25  and  C_26 
REMARK    2  A    between atoms: C_27  and  C_28 
REMARK    3  A    between atoms: C_31  and  C_32 
ROOT
HETATM    1  C   UNK N   1      21.231  13.505   8.716  0.00  0.00     0.140 A 
HETATM    2  O   UNK N   1      21.312  13.846   7.969  0.00  0.00    -0.650 OA
HETATM    3  O   UNK N   1      20.480  13.398   9.042  0.00  0.00    -0.776 OA
HETATM    4  C   UNK N   1      21.998  13.237   9.199  0.00  0.00     0.124 A 
HETATM    5  C   UNK N   1      21.753  12.903   9.952  0.00  0.00     0.088 A 
HETATM    6  C   UNK N   1      22.529  12.752  10.181  0.00  0.00     0.223 A 
HETATM    7  O   UNK N   1      22.951  12.495  10.681  0.00  0.00    -0.273 OA
HETATM    8  N   UNK N   1      23.230  12.526  10.579  0.00  0.00    -0.347 N 
HETATM    9  C   UNK N   1      23.914  12.336  10.904  0.00  0.00     0.180 A 
HETATM   10  C   UNK N   1      24.183  11.995  11.606  0.00  0.00     0.240 A 
HETATM   11  O   UNK N   1      24.906  11.785  11.969  0.00  0.00    -0.271 OA
HETATM   12  N   UNK N   1      23.526  11.819  12.071  0.00  0.00    -0.359 N 
HETATM   13  C   UNK N   1      22.851  12.049  11.659  0.00  0.00     0.122 A 
HETATM   14  C   UNK N   1      21.780  11.988  11.926  0.00  0.00     0.020 A 
HETATM   15  C   UNK N   1      21.499  12.315  11.255  0.00  0.00     0.002 A 
HETATM   16  C   UNK N   1      21.776  12.666  10.461  0.00  0.00     0.002 A 
HETATM   17  C   UNK N   1      21.279  12.967   9.874  0.00  0.00     0.020 A 
HETATM   18  C   UNK N   1      21.601  13.270   9.178  0.00  0.00     0.128 A 
HETATM   19  N   UNK N   1      22.418  13.273   9.067  0.00  0.00    -0.356 N 
HETATM   20  C   UNK N   1      21.022  12.677  10.534  0.00  0.00     0.018 A 
HETATM   21  C   UNK N   1      21.774  12.458  10.911  0.00  0.00    -0.022 A 
HETATM   22  C   UNK N   1      22.478  12.256  11.258  0.00  0.00     0.009 A 
HETATM   23  C   UNK N   1      22.275  12.149  11.516  0.00  0.00     0.009 A 
HETATM   24  C   UNK N   1      24.229  12.675  10.130  0.00  0.00     0.075 A 
HETATM   25  C   UNK N   1      23.732  12.976   9.543  0.00  0.00    -0.028 A 
HETATM   26  C   UNK N   1      22.915  12.973   9.654  0.00  0.00     0.099 A 
HETATM   27  C   UNK N   1      23.717  13.337   8.764  0.00  0.00    -0.002 A 
HETATM   28  C   UNK N   1      22.957  13.509   8.489  0.00  0.00     0.045 A 
HETATM   29  C   UNK N   1      24.373  13.514   8.298  0.00  0.00     0.014 A 
HETATM   30  C   UNK N   1      22.856  13.857   7.748  0.00  0.00     0.030 A 
HETATM   31  C   UNK N   1      24.273  13.863   7.557  0.00  0.00     0.001 A 
HETATM   32  C   UNK N   1      23.513  14.034   7.282  0.00  0.00     0.002 A 
HETATM   33  H   UNK N   1      19.720  13.665   8.563  0.00  0.00     0.167 HD
HETATM   34  H   UNK N   1      22.726  12.196  11.358  0.00  0.00     0.163 HD
HETATM   35  H   UNK N   1      23.545  11.404  12.965  0.00  0.00     0.162 HD
ENDROOT
TORSDOF 3
ENDMDL
MODEL 5
REMARK VINA RESULT:     -13.7      1.242      2.279
REMARK  3 active torsions:
REMARK  status: ('A' for Active; 'I' for Inactive)
REMARK    1  A    between atoms: C_25  and  C_26 
REMARK    2  A    between atoms: C_27  and  C_28 
REMARK    3  A    between atoms: C_31  and  C_32 
ROOT
HETATM    1  C   UNK N   1      23.313  11.782  12.227  0.00  0.00     0.140 A 
HETATM    2  O   UNK N   1      22.721  11.563  12.758  0.00  0.00    -0.650 OA
HETATM    3  O   UNK N   1      24.107  11.664  12.421  0.00  0.00    -0.776 OA
HETATM    4  C   UNK N   1      23.084  12.169  11.395  0.00  0.00     0.124 A 
HETATM    5  C   UNK N   1      23.803  12.341  10.958  0.00  0.00     0.088 A 
HETATM    6  C   UNK N   1      23.386  12.647  10.318  0.00  0.00     0.223 A 
HETATM    7  O   UNK N   1      23.426  12.937   9.678  0.00  0.00    -0.273 OA
HETATM    8  N   UNK N   1      23.144  12.987   9.590  0.00  0.00    -0.347 N 
HETATM    9  C   UNK N   1      22.864  13.297   8.932  0.00  0.00     0.180 A 
HETATM   10  C   UNK N   1      23.163  13.606   8.227  0.00  0.00     0.240 A 
HETATM   11  O   UNK N   1      22.881  13.940   7.514  0.00  0.00    -0.271 OA
HETATM   12  N   UNK N   1      23.985  13.562   8.257  0.00  0.00    -0.359 N 
HETATM   13  C   UNK N   1      24.197  13.225   8.980  0.00  0.00     0.122 A 
HETATM   14  C   UNK N   1      25.187  12.993   9.411  0.00  0.00     0.020 A 
HETATM   15  C   UNK N   1      24.920  12.690  10.099  0.00  0.00     0.002 A 
HETATM   16  C   UNK N   1      24.148  12.514  10.549  0.00  0.00     0.002 A 
HETATM   17  C   UNK N   1      24.102  12.174  11.300  0.00  0.00     0.020 A 
HETATM   18  C   UNK N   1      23.366  12.043  11.648  0.00  0.00     0.128 A 
HETATM   19  N   UNK N   1      22.676  12.251  11.247  0.00  0.00    -0.356 N 
HETATM   20  C   UNK N   1      24.763  12.312  10.941  0.00  0.00     0.018 A 
HETATM   21  C   UNK N   1      24.469  12.660  10.201  0.00  0.00    -0.022 A 
HETATM   22  C   UNK N   1      24.190  12.983   9.513  0.00  0.00     0.009 A 
HETATM   23  C   UNK N   1      24.525  13.007   9.433  0.00  0.00     0.009 A 
HETATM   24  C   UNK N   1      22.078  13.138   9.344  0.00  0.00     0.075 A 
HETATM   25  C   UNK N   1      22.032  12.799  10.095  0.00  0.00    -0.028 A 
HETATM   26  C   UNK N   1      22.722  12.591  10.496  0.00  0.00     0.099 A 
HETATM   27  C   UNK N   1      21.489  12.540  10.708  0.00  0.00    -0.002 A 
HETATM   28  C   UNK N   1      21.861  12.224  11.374  0.00  0.00     0.045 A 
HETATM   29  C   UNK N   1      20.666  12.584  10.678  0.00  0.00     0.014 A 
HETATM   30  C   UNK N   1      21.409  11.952  12.008  0.00  0.00     0.030 A 
HETATM   31  C   UNK N   1      20.214  12.313  11.312  0.00  0.00     0.001 A 
HETATM   32  C   UNK N   1      20.587  11.996  11.978  0.00  0.00     0.002 A 
HETATM   33  H   UNK N   1      24.334  11.281  13.245  0.00  0.00     0.167 HD
HETATM   34  H   UNK N   1      24.076  13.090   9.288  0.00  0.00     0.163 HD
HETATM   35  H   UNK N   1      24.608  13.859   7.554  0.00  0.00     0.162 HD
ENDROOT
TORSDOF 3
ENDMDL
MODEL 6
REMARK VINA RESULT:     -13.6     13.690     15.081
REMARK  3 active torsions:
REMARK  status: ('A' for Active; 'I' for Inactive)
REMARK    1  A    between atoms: C_25  and  C_26 
REMARK    2  A    between atoms: C_27  and  C_28 
REMARK    3  A    between atoms: C_31  and  C_32 
ROOT
HETATM    1  C   UNK N   1      35.398  11.108  19.912  0.00  0.00     0.140 A 
HETATM    2  O   UNK N   1      35.430  10.326  20.172  0.00  0.00    -0.650 OA
HETATM    3  O   UNK N   1      35.455  11.727  20.455  0.00  0.00    -0.776 OA
HETATM    4  C   UNK N   1      35.297  11.297  18.991  0.00  0.00     0.124 A 
HETATM    5  C   UNK N   1      35.281  12.149  18.879  0.00  0.00     0.088 A 
HETATM    6  C   UNK N   1      35.192  12.079  18.064  0.00  0.00     0.223 A 
HETATM    7  O   UNK N   1      35.124  12.418  17.452  0.00  0.00    -0.273 OA
HETATM    8  N   UNK N   1      35.102  12.207  17.241  0.00  0.00    -0.347 N 
HETATM    9  C   UNK N   1      35.017  12.269  16.468  0.00  0.00     0.180 A 
HETATM   10  C   UNK N   1      34.953  12.870  15.907  0.00  0.00     0.240 A 
HETATM   11  O   UNK N   1      34.862  12.956  15.080  0.00  0.00    -0.271 OA
HETATM   12  N   UNK N   1      34.994  13.593  16.301  0.00  0.00    -0.359 N 
HETATM   13  C   UNK N   1      35.082  13.440  17.107  0.00  0.00     0.122 A 
HETATM   14  C   UNK N   1      35.174  14.123  17.971  0.00  0.00     0.020 A 
HETATM   15  C   UNK N   1      35.237  13.557  18.529  0.00  0.00     0.002 A 
HETATM   16  C   UNK N   1      35.252  12.652  18.630  0.00  0.00     0.002 A 
HETATM   17  C   UNK N   1      35.332  12.254  19.349  0.00  0.00     0.020 A 
HETATM   18  C   UNK N   1      35.337  11.430  19.366  0.00  0.00     0.128 A 
HETATM   19  N   UNK N   1      35.262  11.002  18.664  0.00  0.00    -0.356 N 
HETATM   20  C   UNK N   1      35.323  13.017  19.290  0.00  0.00     0.018 A 
HETATM   21  C   UNK N   1      35.228  13.105  18.430  0.00  0.00    -0.022 A 
HETATM   22  C   UNK N   1      35.140  13.181  17.629  0.00  0.00     0.009 A 
HETATM   23  C   UNK N   1      35.147  13.519  17.699  0.00  0.00     0.009 A 
HETATM   24  C   UNK N   1      35.027  11.369  16.525  0.00  0.00     0.075 A 
HETATM   25  C   UNK N   1      35.107  10.971  17.244  0.00  0.00    -0.028 A 
HETATM   26  C   UNK N   1      35.182  11.399  17.946  0.00  0.00     0.099 A 
HETATM   27  C   UNK N   1      35.150  10.194  17.607  0.00  0.00    -0.002 A 
HETATM   28  C   UNK N   1      35.239  10.212  18.428  0.00  0.00     0.045 A 
HETATM   29  C   UNK N   1      35.109   9.471  17.213  0.00  0.00     0.014 A 
HETATM   30  C   UNK N   1      35.288   9.506  18.852  0.00  0.00     0.030 A 
HETATM   31  C   UNK N   1      35.158   8.766  17.637  0.00  0.00     0.001 A 
HETATM   32  C   UNK N   1      35.248   8.784  18.458  0.00  0.00     0.002 A 
HETATM   33  H   UNK N   1      35.556  11.539  21.368  0.00  0.00     0.167 HD
HETATM   34  H   UNK N   1      35.110  13.185  17.356  0.00  0.00     0.163 HD
HETATM   35  H   UNK N   1      34.945  14.484  15.884  0.00  0.00     0.162 HD
ENDROOT
TORSDOF 3
ENDMDL
MODEL 7
REMARK VINA RESULT:     -13.3     13.266     14.640
REMARK  3 active torsions:
REMARK  status: ('A' for Active; 'I' for Inactive)
REMARK    1  A    between atoms: C_25  and  C_26 
REMARK    2  A    between atoms: C_27  and  C_28 
REMARK    3  A    between atoms: C_31  and  C_32 
ROOT
HETATM    1  C   UNK N   1      35.096   9.929  16.950  0.00  0.00     0.140 A 
HETATM    2  O   UNK N   1      34.990   9.621  16.192  0.00  0.00    -0.650 OA
HETATM    3  O   UNK N   1      35.205   9.420  17.590  0.00  0.00    -0.776 OA
HETATM    4  C   UNK N   1      35.092  10.865  17.085  0.00  0.00     0.124 A 
HETATM    5  C   UNK N   1      35.213  11.028  17.920  0.00  0.00     0.088 A 
HETATM    6  C   UNK N   1      35.175  11.842  17.806  0.00  0.00     0.223 A 
HETATM    7  O   UNK N   1      35.204  12.476  18.107  0.00  0.00    -0.273 OA
HETATM    8  N   UNK N   1      35.165  12.676  17.888  0.00  0.00    -0.347 N 
HETATM    9  C   UNK N   1      35.148  13.455  17.906  0.00  0.00     0.180 A 
HETATM   10  C   UNK N   1      35.217  14.055  18.469  0.00  0.00     0.240 A 
HETATM   11  O   UNK N   1      35.201  14.890  18.508  0.00  0.00    -0.271 OA
HETATM   12  N   UNK N   1      35.337  13.701  19.204  0.00  0.00    -0.359 N 
HETATM   13  C   UNK N   1      35.342  12.884  19.097  0.00  0.00     0.122 A 
HETATM   14  C   UNK N   1      35.472  12.057  19.819  0.00  0.00     0.020 A 
HETATM   15  C   UNK N   1      35.408  11.463  19.291  0.00  0.00     0.002 A 
HETATM   16  C   UNK N   1      35.279  11.308  18.403  0.00  0.00     0.002 A 
HETATM   17  C   UNK N   1      35.245  10.563  18.050  0.00  0.00     0.020 A 
HETATM   18  C   UNK N   1      35.124  10.496  17.237  0.00  0.00     0.128 A 
HETATM   19  N   UNK N   1      35.037  11.175  16.776  0.00  0.00    -0.356 N 
HETATM   20  C   UNK N   1      35.355  10.667  18.800  0.00  0.00     0.018 A 
HETATM   21  C   UNK N   1      35.338  11.535  18.839  0.00  0.00    -0.022 A 
HETATM   22  C   UNK N   1      35.322  12.344  18.871  0.00  0.00     0.009 A 
HETATM   23  C   UNK N   1      35.374  12.294  19.208  0.00  0.00     0.009 A 
HETATM   24  C   UNK N   1      35.017  13.344  17.020  0.00  0.00     0.075 A 
HETATM   25  C   UNK N   1      34.984  12.599  16.668  0.00  0.00    -0.028 A 
HETATM   26  C   UNK N   1      35.071  11.920  17.129  0.00  0.00     0.099 A 
HETATM   27  C   UNK N   1      34.882  12.188  15.920  0.00  0.00    -0.002 A 
HETATM   28  C   UNK N   1      34.913  11.365  15.983  0.00  0.00     0.045 A 
HETATM   29  C   UNK N   1      34.762  12.541  15.185  0.00  0.00     0.014 A 
HETATM   30  C   UNK N   1      34.824  10.897  15.309  0.00  0.00     0.030 A 
HETATM   31  C   UNK N   1      34.673  12.073  14.511  0.00  0.00     0.001 A 
HETATM   32  C   UNK N   1      34.704  11.251  14.574  0.00  0.00     0.002 A 
HETATM   33  H   UNK N   1      35.209   8.493  17.455  0.00  0.00     0.167 HD
HETATM   34  H   UNK N   1      35.313  12.618  18.860  0.00  0.00     0.163 HD
HETATM   35  H   UNK N   1      35.453  14.173  20.061  0.00  0.00     0.162 HD
ENDROOT
TORSDOF 3
ENDMDL
MODEL 8
REMARK VINA RESULT:     -13.1      0.909      2.695
REMARK  3 active torsions:
REMARK  status: ('A' for Active; 'I' for Inactive)
REMARK    1  A    between atoms: C_25  and  C_26 
REMARK    2  A    between atoms: C_27  and  C_28 
REMARK    3  A    between atoms: C_31  and  C_32 
ROOT
HETATM    1  C   UNK N   1      20.752  12.607  10.920  0.00  0.00     0.140 A 
HETATM    2  O   UNK N   1      20.648  12.285  11.673  0.00  0.00    -0.650 OA
HETATM    3  O   UNK N   1      20.097  12.848  10.480  0.00  0.00    -0.776 OA
HETATM    4  C   UNK N   1      21.622  12.699  10.561  0.00  0.00     0.124 A 
HETATM    5  C   UNK N   1      21.566  13.046   9.777  0.00  0.00     0.088 A 
HETATM    6  C   UNK N   1      22.382  13.032   9.671  0.00  0.00     0.223 A 
HETATM    7  O   UNK N   1      22.918  13.180   9.241  0.00  0.00    -0.273 OA
HETATM    8  N   UNK N   1      23.167  13.098   9.385  0.00  0.00    -0.347 N 
HETATM    9  C   UNK N   1      23.916  13.137   9.170  0.00  0.00     0.180 A 
HETATM   10  C   UNK N   1      24.351  13.390   8.517  0.00  0.00     0.240 A 
HETATM   11  O   UNK N   1      25.149  13.439   8.269  0.00  0.00    -0.271 OA
HETATM   12  N   UNK N   1      23.822  13.677   7.953  0.00  0.00    -0.359 N 
HETATM   13  C   UNK N   1      23.059  13.601   8.257  0.00  0.00     0.122 A 
HETATM   14  C   UNK N   1      22.076  13.863   7.826  0.00  0.00     0.020 A 
HETATM   15  C   UNK N   1      21.636  13.624   8.447  0.00  0.00     0.002 A 
HETATM   16  C   UNK N   1      21.714  13.255   9.276  0.00  0.00     0.002 A 
HETATM   17  C   UNK N   1      21.083  13.081   9.780  0.00  0.00     0.020 A 
HETATM   18  C   UNK N   1      21.227  12.746  10.520  0.00  0.00     0.128 A 
HETATM   19  N   UNK N   1      22.001  12.585  10.757  0.00  0.00    -0.356 N 
HETATM   20  C   UNK N   1      20.993  13.392   9.087  0.00  0.00     0.018 A 
HETATM   21  C   UNK N   1      21.822  13.442   8.830  0.00  0.00    -0.022 A 
HETATM   22  C   UNK N   1      22.596  13.487   8.596  0.00  0.00     0.009 A 
HETATM   23  C   UNK N   1      22.461  13.623   8.309  0.00  0.00     0.009 A 
HETATM   24  C   UNK N   1      24.035  12.770   9.986  0.00  0.00     0.075 A 
HETATM   25  C   UNK N   1      23.404  12.597  10.490  0.00  0.00    -0.028 A 
HETATM   26  C   UNK N   1      22.631  12.758  10.253  0.00  0.00     0.099 A 
HETATM   27  C   UNK N   1      23.198  12.275  11.259  0.00  0.00    -0.002 A 
HETATM   28  C   UNK N   1      22.387  12.268  11.413  0.00  0.00     0.045 A 
HETATM   29  C   UNK N   1      23.727  11.989  11.823  0.00  0.00     0.014 A 
HETATM   30  C   UNK N   1      22.107  11.975  12.131  0.00  0.00     0.030 A 
HETATM   31  C   UNK N   1      23.447  11.695  12.541  0.00  0.00     0.001 A 
HETATM   32  C   UNK N   1      22.636  11.688  12.695  0.00  0.00     0.002 A 
HETATM   33  H   UNK N   1      19.235  12.757  10.837  0.00  0.00     0.167 HD
HETATM   34  H   UNK N   1      22.864  13.493   8.536  0.00  0.00     0.163 HD
HETATM   35  H   UNK N   1      24.059  14.045   7.071  0.00  0.00     0.162 HD
ENDROOT
TORSDOF 3
ENDMDL
MODEL 9
REMARK VINA RESULT:     -13.1     10.107     12.029
REMARK  3 active torsions:
REMARK  status: ('A' for Active; 'I' for Inactive)
REMARK    1  A    between atoms: C_25  and  C_26 
REMARK    2  A    between atoms: C_27  and  C_28 
REMARK    3  A    between atoms: C_31  and  C_32 
ROOT
HETATM    1  C   UNK N   1      33.728  17.539   6.703  0.00  0.00     0.140 A 
HETATM    2  O   UNK N   1      33.825  17.555   7.522  0.00  0.00    -0.650 OA
HETATM    3  O   UNK N   1      34.382  17.633   6.208  0.00  0.00    -0.776 OA
HETATM    4  C   UNK N   1      32.868  17.413   6.331  0.00  0.00     0.124 A 
HETATM    5  C   UNK N   1      32.930  17.420   5.474  0.00  0.00     0.088 A 
HETATM    6  C   UNK N   1      32.121  17.302   5.376  0.00  0.00     0.223 A 
HETATM    7  O   UNK N   1      31.593  17.224   4.919  0.00  0.00    -0.273 OA
HETATM    8  N   UNK N   1      31.345  17.188   5.083  0.00  0.00    -0.347 N 
HETATM    9  C   UNK N   1      30.604  17.079   4.865  0.00  0.00     0.180 A 
HETATM   10  C   UNK N   1      30.177  17.016   4.162  0.00  0.00     0.240 A 
HETATM   11  O   UNK N   1      29.388  16.900   3.909  0.00  0.00    -0.271 OA
HETATM   12  N   UNK N   1      30.706  17.091   3.534  0.00  0.00    -0.359 N 
HETATM   13  C   UNK N   1      31.461  17.202   3.849  0.00  0.00     0.122 A 
HETATM   14  C   UNK N   1      32.440  17.344   3.355  0.00  0.00     0.020 A 
HETATM   15  C   UNK N   1      32.871  17.408   4.023  0.00  0.00     0.002 A 
HETATM   16  C   UNK N   1      32.788  17.398   4.930  0.00  0.00     0.002 A 
HETATM   17  C   UNK N   1      33.409  17.490   5.466  0.00  0.00     0.020 A 
HETATM   18  C   UNK N   1      33.260  17.470   6.277  0.00  0.00     0.128 A 
HETATM   19  N   UNK N   1      32.491  17.358   6.553  0.00  0.00    -0.356 N 
HETATM   20  C   UNK N   1      33.504  17.502   4.707  0.00  0.00     0.018 A 
HETATM   21  C   UNK N   1      32.684  17.382   4.446  0.00  0.00    -0.022 A 
HETATM   22  C   UNK N   1      31.918  17.270   4.208  0.00  0.00     0.009 A 
HETATM   23  C   UNK N   1      32.054  17.289   3.891  0.00  0.00     0.009 A 
HETATM   24  C   UNK N   1      30.479  17.063   5.758  0.00  0.00     0.075 A 
HETATM   25  C   UNK N   1      31.100  17.155   6.294  0.00  0.00    -0.028 A 
HETATM   26  C   UNK N   1      31.870  17.267   6.018  0.00  0.00     0.099 A 
HETATM   27  C   UNK N   1      31.299  17.186   7.129  0.00  0.00    -0.002 A 
HETATM   28  C   UNK N   1      32.102  17.303   7.278  0.00  0.00     0.045 A 
HETATM   29  C   UNK N   1      30.769  17.110   7.756  0.00  0.00     0.014 A 
HETATM   30  C   UNK N   1      32.374  17.345   8.056  0.00  0.00     0.030 A 
HETATM   31  C   UNK N   1      31.042  17.151   8.534  0.00  0.00     0.001 A 
HETATM   32  C   UNK N   1      31.845  17.269   8.684  0.00  0.00     0.002 A 
HETATM   33  H   UNK N   1      35.234  17.759   6.577  0.00  0.00     0.167 HD
HETATM   34  H   UNK N   1      31.653  17.231   4.148  0.00  0.00     0.163 HD
HETATM   35  H   UNK N   1      30.478  17.056   2.576  0.00  0.00     0.162 HD
ENDROOT
TORSDOF 3
ENDMDL
