REMARK  6 active torsions:
REMARK  status: ('A' for Active; 'I' for Inactive)
REMARK    1  A    between atoms: S_2  and  C_5 
REMARK    2  A    between atoms: N_4  and  S_2 
REMARK    3  A    between atoms: C_11  and  N_12 
REMARK       I    between atoms: C_13  and  N_12 
REMARK    4  A    between atoms: C_13  and  C_15 
REMARK    5  A    between atoms: C_15  and  S_16 
REMARK    6  A    between atoms: S_16  and  C_17 
REMARK       I    between atoms: C_17  and  N_19 
ROOT
HETATM    1  N   UNK N   1      -2.934  -1.040  -0.532  0.00  0.00    -0.325 N 
HETATM    2  C   UNK N   1      -1.737  -0.604  -0.995  0.00  0.00     0.232 C 
HETATM    3  O   UNK N   1      -1.583   0.538  -1.393  0.00  0.00    -0.272 OA
HETATM    4  H   UNK N   1      -2.974  -1.999  -0.311  0.00  0.00     0.169 HD
ENDROOT
BRANCH   2   5
HETATM    5  C   UNK N   1      -0.601  -1.575  -1.084  0.00  0.00     0.187 C 
BRANCH   5   6
HETATM    6  S   UNK N   1      -0.302  -2.393   0.524  0.00  0.00    -0.060 SA
BRANCH   6   7
HETATM    7  C   UNK N   1       0.187  -0.840   1.291  0.00  0.00     0.286 C 
HETATM    8  N   UNK N   1       1.415  -0.258   1.092  0.00  0.00    -0.308 N 
HETATM    9  C   UNK N   1       2.520  -0.872   0.401  0.00  0.00     0.044 A 
HETATM   10  C   UNK N   1       1.622   1.082   1.611  0.00  0.00     0.133 C 
HETATM   11  C   UNK N   1       3.587  -0.062  -0.060  0.00  0.00    -0.031 A 
HETATM   12  C   UNK N   1       2.610  -2.264   0.219  0.00  0.00     0.031 A 
HETATM   13  C   UNK N   1       4.703  -0.646  -0.665  0.00  0.00     0.016 A 
HETATM   14  C   UNK N   1       3.546   1.437   0.082  0.00  0.00     0.042 C 
HETATM   15  C   UNK N   1       4.776  -2.030  -0.826  0.00  0.00    -0.061 A 
HETATM   16  C   UNK N   1       5.975  -2.642  -1.454  0.00  0.00     0.048 C 
HETATM   17  C   UNK N   1       3.726  -2.838  -0.391  0.00  0.00     0.009 A 
HETATM   18  C   UNK N   1       2.175   1.962   0.507  0.00  0.00     0.025 C 
HETATM   19  O   UNK N   1      -0.661  -0.256   1.949  0.00  0.00    -0.260 OA
ENDBRANCH   6   7
ENDBRANCH   5   6
ENDBRANCH   2   5
BRANCH   1  20
HETATM   20  C   UNK N   1      -4.142  -0.317  -0.317  0.00  0.00     0.056 A 
HETATM   21  C   UNK N   1      -5.322  -1.029  -0.533  0.00  0.00     0.033 A 
HETATM   22  C   UNK N   1      -6.565  -0.449  -0.326  0.00  0.00     0.027 A 
HETATM   23  C   UNK N   1      -6.660   0.868   0.111  0.00  0.00     0.081 A 
HETATM   24  C   UNK N   1      -5.493   1.601   0.370  0.00  0.00     0.051 A 
HETATM   25  C   UNK N   1      -4.227   1.027   0.162  0.00  0.00     0.062 A 
HETATM   26 Cl   UNK N   1      -2.834   2.005   0.603  0.00  0.00    -0.082 Cl
BRANCH  23  27
HETATM   27  S   UNK N   1      -8.291   1.561   0.378  0.00  0.00     0.256 S 
HETATM   28  O   UNK N   1      -8.603   3.058   0.508  0.00  0.00    -0.201 OA
HETATM   29  O   UNK N   1      -9.524   0.871  -0.225  0.00  0.00    -0.201 OA
BRANCH  27  30
HETATM   30  N   UNK N   1      -7.969   2.008  -1.300  0.00  0.00    -0.324 N 
HETATM   31  H   UNK N   1      -7.652   1.976  -2.269  0.00  0.00     0.169 HD
HETATM   32  H   UNK N   1      -8.388   2.938  -1.300  0.00  0.00     0.169 HD
ENDBRANCH  27  30
ENDBRANCH  23  27
ENDBRANCH   1  20
TORSDOF 6
