MODEL 1
REMARK VINA RESULT:      -7.9      0.000      0.000
REMARK  6 active torsions:
REMARK  status: ('A' for Active; 'I' for Inactive)
REMARK    1  A    between atoms: S_2  and  C_5 
REMARK    2  A    between atoms: N_4  and  S_2 
REMARK    3  A    between atoms: C_11  and  N_12 
REMARK       I    between atoms: C_13  and  N_12 
REMARK    4  A    between atoms: C_13  and  C_15 
REMARK    5  A    between atoms: C_15  and  S_16 
REMARK    6  A    between atoms: S_16  and  C_17 
REMARK       I    between atoms: C_17  and  N_19 
ROOT
HETATM    1  N   UNK N   1      30.116  16.588   4.260  0.00  0.00    -0.325 N 
HETATM    2  C   UNK N   1      29.720  15.399   3.743  0.00  0.00     0.232 C 
HETATM    3  O   UNK N   1      30.402  14.395   3.855  0.00  0.00    -0.272 OA
HETATM    4  H   UNK N   1      29.534  17.353   4.046  0.00  0.00     0.169 HD
ENDROOT
BRANCH   2   5
HETATM    5  C   UNK N   1      28.448  15.343   2.956  0.00  0.00     0.187 C 
BRANCH   5   6
HETATM    6  S   UNK N   1      27.004  15.094   4.050  0.00  0.00    -0.060 SA
BRANCH   6   7
HETATM    7  C   UNK N   1      26.296  16.680   3.576  0.00  0.00     0.286 C 
HETATM    8  N   UNK N   1      26.488  17.833   4.297  0.00  0.00    -0.308 N 
HETATM    9  C   UNK N   1      27.119  17.906   5.591  0.00  0.00     0.044 A 
HETATM   10  C   UNK N   1      26.027  19.081   3.716  0.00  0.00     0.133 C 
HETATM   11  C   UNK N   1      27.587  19.156   6.066  0.00  0.00    -0.031 A 
HETATM   12  C   UNK N   1      27.233  16.785   6.433  0.00  0.00     0.031 A 
HETATM   13  C   UNK N   1      28.133  19.262   7.348  0.00  0.00     0.016 A 
HETATM   14  C   UNK N   1      27.516  20.392   5.208  0.00  0.00     0.042 C 
HETATM   15  C   UNK N   1      28.227  18.138   8.170  0.00  0.00    -0.061 A 
HETATM   16  C   UNK N   1      28.792  18.266   9.538  0.00  0.00     0.048 C 
HETATM   17  C   UNK N   1      27.784  16.899   7.710  0.00  0.00     0.009 A 
HETATM   18  C   UNK N   1      27.155  20.093   3.754  0.00  0.00     0.025 C 
HETATM   19  O   UNK N   1      25.690  16.722   2.516  0.00  0.00    -0.260 OA
ENDBRANCH   6   7
ENDBRANCH   5   6
ENDBRANCH   2   5
BRANCH   1  20
HETATM   20  C   UNK N   1      31.249  16.895   5.067  0.00  0.00     0.056 A 
HETATM   21  C   UNK N   1      31.006  17.011   6.435  0.00  0.00     0.033 A 
HETATM   22  C   UNK N   1      32.030  17.274   7.333  0.00  0.00     0.027 A 
HETATM   23  C   UNK N   1      33.337  17.424   6.880  0.00  0.00     0.081 A 
HETATM   24  C   UNK N   1      33.621  17.279   5.515  0.00  0.00     0.051 A 
HETATM   25  C   UNK N   1      32.593  17.015   4.594  0.00  0.00     0.062 A 
HETATM   26 Cl   UNK N   1      33.074  16.765   2.922  0.00  0.00    -0.082 Cl
BRANCH  23  27
HETATM   27  S   UNK N   1      34.624  17.746   8.085  0.00  0.00     0.256 S 
HETATM   28  O   UNK N   1      35.148  19.137   8.466  0.00  0.00    -0.201 OA
HETATM   29  O   UNK N   1      34.769  16.833   9.312  0.00  0.00    -0.201 OA
BRANCH  27  30
HETATM   30  N   UNK N   1      33.178  18.311   8.927  0.00  0.00    -0.324 N 
HETATM   31  H   UNK N   1      32.553  18.664   9.652  0.00  0.00     0.169 HD
HETATM   32  H   UNK N   1      32.506  18.227   8.164  0.00  0.00     0.169 HD
ENDBRANCH  27  30
ENDBRANCH  23  27
ENDBRANCH   1  20
TORSDOF 6
ENDMDL
MODEL 2
REMARK VINA RESULT:      -7.3      4.651      5.523
REMARK  6 active torsions:
REMARK  status: ('A' for Active; 'I' for Inactive)
REMARK    1  A    between atoms: S_2  and  C_5 
REMARK    2  A    between atoms: N_4  and  S_2 
REMARK    3  A    between atoms: C_11  and  N_12 
REMARK       I    between atoms: C_13  and  N_12 
REMARK    4  A    between atoms: C_13  and  C_15 
REMARK    5  A    between atoms: C_15  and  S_16 
REMARK    6  A    between atoms: S_16  and  C_17 
REMARK       I    between atoms: C_17  and  N_19 
ROOT
HETATM    1  N   UNK N   1      27.998  16.461   6.475  0.00  0.00    -0.325 N 
HETATM    2  C   UNK N   1      27.069  17.207   5.828  0.00  0.00     0.232 C 
HETATM    3  O   UNK N   1      27.210  18.409   5.674  0.00  0.00    -0.272 OA
HETATM    4  H   UNK N   1      27.752  15.518   6.617  0.00  0.00     0.169 HD
ENDROOT
BRANCH   2   5
HETATM    5  C   UNK N   1      25.811  16.546   5.358  0.00  0.00     0.187 C 
BRANCH   5   6
HETATM    6  S   UNK N   1      25.296  15.216   6.503  0.00  0.00    -0.060 SA
BRANCH   6   7
HETATM    7  C   UNK N   1      23.555  15.500   6.144  0.00  0.00     0.286 C 
HETATM    8  N   UNK N   1      22.541  15.099   6.979  0.00  0.00    -0.308 N 
HETATM    9  C   UNK N   1      22.707  14.265   8.142  0.00  0.00     0.044 A 
HETATM   10  C   UNK N   1      21.195  15.550   6.675  0.00  0.00     0.133 C 
HETATM   11  C   UNK N   1      21.680  14.220   9.117  0.00  0.00    -0.031 A 
HETATM   12  C   UNK N   1      23.833  13.441   8.319  0.00  0.00     0.031 A 
HETATM   13  C   UNK N   1      21.787  13.362  10.214  0.00  0.00     0.016 A 
HETATM   14  C   UNK N   1      20.457  15.093   9.002  0.00  0.00     0.042 C 
HETATM   15  C   UNK N   1      22.909  12.545  10.364  0.00  0.00    -0.061 A 
HETATM   16  C   UNK N   1      23.005  11.622  11.524  0.00  0.00     0.048 C 
HETATM   17  C   UNK N   1      23.935  12.590   9.421  0.00  0.00     0.009 A 
HETATM   18  C   UNK N   1      20.584  16.165   7.920  0.00  0.00     0.025 C 
HETATM   19  O   UNK N   1      23.295  16.155   5.146  0.00  0.00    -0.260 OA
ENDBRANCH   6   7
ENDBRANCH   5   6
ENDBRANCH   2   5
BRANCH   1  20
HETATM   20  C   UNK N   1      29.275  16.838   6.979  0.00  0.00     0.056 A 
HETATM   21  C   UNK N   1      30.361  16.563   6.147  0.00  0.00     0.033 A 
HETATM   22  C   UNK N   1      31.654  16.911   6.507  0.00  0.00     0.027 A 
HETATM   23  C   UNK N   1      31.896  17.553   7.717  0.00  0.00     0.081 A 
HETATM   24  C   UNK N   1      30.824  17.875   8.561  0.00  0.00     0.051 A 
HETATM   25  C   UNK N   1      29.508  17.525   8.210  0.00  0.00     0.062 A 
HETATM   26 Cl   UNK N   1      28.233  18.055   9.299  0.00  0.00    -0.082 Cl
BRANCH  23  27
HETATM   27  S   UNK N   1      33.585  17.995   8.123  0.00  0.00     0.256 S 
HETATM   28  O   UNK N   1      34.350  17.510   9.363  0.00  0.00    -0.201 OA
HETATM   29  O   UNK N   1      34.606  18.233   7.000  0.00  0.00    -0.201 OA
BRANCH  27  30
HETATM   30  N   UNK N   1      33.750  16.304   7.642  0.00  0.00    -0.324 N 
HETATM   31  H   UNK N   1      33.748  15.448   7.087  0.00  0.00     0.169 HD
HETATM   32  H   UNK N   1      34.062  15.915   8.532  0.00  0.00     0.169 HD
ENDBRANCH  27  30
ENDBRANCH  23  27
ENDBRANCH   1  20
TORSDOF 6
ENDMDL
MODEL 3
REMARK VINA RESULT:      -7.1      6.674     10.150
REMARK  6 active torsions:
REMARK  status: ('A' for Active; 'I' for Inactive)
REMARK    1  A    between atoms: S_2  and  C_5 
REMARK    2  A    between atoms: N_4  and  S_2 
REMARK    3  A    between atoms: C_11  and  N_12 
REMARK       I    between atoms: C_13  and  N_12 
REMARK    4  A    between atoms: C_13  and  C_15 
REMARK    5  A    between atoms: C_15  and  S_16 
REMARK    6  A    between atoms: S_16  and  C_17 
REMARK       I    between atoms: C_17  and  N_19 
ROOT
HETATM    1  N   UNK N   1      33.260  15.399   9.177  0.00  0.00    -0.325 N 
HETATM    2  C   UNK N   1      34.473  15.175   9.740  0.00  0.00     0.232 C 
HETATM    3  O   UNK N   1      35.488  15.114   9.067  0.00  0.00    -0.272 OA
HETATM    4  H   UNK N   1      32.496  15.350   9.796  0.00  0.00     0.169 HD
ENDROOT
BRANCH   2   5
HETATM    5  C   UNK N   1      34.549  14.927  11.214  0.00  0.00     0.187 C 
BRANCH   5   6
HETATM    6  S   UNK N   1      36.257  14.526  11.730  0.00  0.00    -0.060 SA
BRANCH   6   7
HETATM    7  C   UNK N   1      35.928  12.758  11.660  0.00  0.00     0.286 C 
HETATM    8  N   UNK N   1      35.507  12.029  12.745  0.00  0.00    -0.308 N 
HETATM    9  C   UNK N   1      35.436  12.522  14.097  0.00  0.00     0.044 A 
HETATM   10  C   UNK N   1      35.094  10.655  12.519  0.00  0.00     0.133 C 
HETATM   11  C   UNK N   1      34.656  11.823  15.051  0.00  0.00    -0.031 A 
HETATM   12  C   UNK N   1      36.167  13.646  14.524  0.00  0.00     0.031 A 
HETATM   13  C   UNK N   1      34.635  12.241  16.384  0.00  0.00     0.016 A 
HETATM   14  C   UNK N   1      33.832  10.625  14.657  0.00  0.00     0.042 C 
HETATM   15  C   UNK N   1      35.375  13.352  16.788  0.00  0.00    -0.061 A 
HETATM   16  C   UNK N   1      35.360  13.777  18.211  0.00  0.00     0.048 C 
HETATM   17  C   UNK N   1      36.135  14.059  15.856  0.00  0.00     0.009 A 
HETATM   18  C   UNK N   1      33.730  10.438  13.144  0.00  0.00     0.025 C 
HETATM   19  O   UNK N   1      36.012  12.222  10.565  0.00  0.00    -0.260 OA
ENDBRANCH   6   7
ENDBRANCH   5   6
ENDBRANCH   2   5
BRANCH   1  20
HETATM   20  C   UNK N   1      32.928  15.695   7.824  0.00  0.00     0.056 A 
HETATM   21  C   UNK N   1      32.157  14.738   7.165  0.00  0.00     0.033 A 
HETATM   22  C   UNK N   1      31.739  14.923   5.855  0.00  0.00     0.027 A 
HETATM   23  C   UNK N   1      32.080  16.083   5.168  0.00  0.00     0.081 A 
HETATM   24  C   UNK N   1      32.825  17.080   5.812  0.00  0.00     0.051 A 
HETATM   25  C   UNK N   1      33.258  16.905   7.138  0.00  0.00     0.062 A 
HETATM   26 Cl   UNK N   1      34.108  18.256   7.876  0.00  0.00    -0.082 Cl
BRANCH  23  27
HETATM   27  S   UNK N   1      31.498  16.276   3.484  0.00  0.00     0.256 S 
HETATM   28  O   UNK N   1      30.026  16.400   3.067  0.00  0.00    -0.201 OA
HETATM   29  O   UNK N   1      32.345  17.056   2.466  0.00  0.00    -0.201 OA
BRANCH  27  30
HETATM   30  N   UNK N   1      31.202  17.879   4.164  0.00  0.00    -0.324 N 
HETATM   31  H   UNK N   1      30.994  18.631   4.821  0.00  0.00     0.169 HD
HETATM   32  H   UNK N   1      31.319  18.435   3.317  0.00  0.00     0.169 HD
ENDBRANCH  27  30
ENDBRANCH  23  27
ENDBRANCH   1  20
TORSDOF 6
ENDMDL
MODEL 4
REMARK VINA RESULT:      -7.1      9.106     12.150
REMARK  6 active torsions:
REMARK  status: ('A' for Active; 'I' for Inactive)
REMARK    1  A    between atoms: S_2  and  C_5 
REMARK    2  A    between atoms: N_4  and  S_2 
REMARK    3  A    between atoms: C_11  and  N_12 
REMARK       I    between atoms: C_13  and  N_12 
REMARK    4  A    between atoms: C_13  and  C_15 
REMARK    5  A    between atoms: C_15  and  S_16 
REMARK    6  A    between atoms: S_16  and  C_17 
REMARK       I    between atoms: C_17  and  N_19 
ROOT
HETATM    1  N   UNK N   1      34.480  13.143  11.626  0.00  0.00    -0.325 N 
HETATM    2  C   UNK N   1      35.320  12.080  11.680  0.00  0.00     0.232 C 
HETATM    3  O   UNK N   1      36.112  11.846  10.783  0.00  0.00    -0.272 OA
HETATM    4  H   UNK N   1      33.825  13.196  12.360  0.00  0.00     0.169 HD
ENDROOT
BRANCH   2   5
HETATM    5  C   UNK N   1      35.215  11.135  12.836  0.00  0.00     0.187 C 
BRANCH   5   6
HETATM    6  S   UNK N   1      36.557  11.419  14.046  0.00  0.00    -0.060 SA
BRANCH   6   7
HETATM    7  C   UNK N   1      35.546  12.573  14.987  0.00  0.00     0.286 C 
HETATM    8  N   UNK N   1      35.245  12.396  16.316  0.00  0.00    -0.308 N 
HETATM    9  C   UNK N   1      35.539  11.212  17.081  0.00  0.00     0.044 A 
HETATM   10  C   UNK N   1      34.583  13.486  17.011  0.00  0.00     0.133 C 
HETATM   11  C   UNK N   1      35.522  11.278  18.496  0.00  0.00    -0.031 A 
HETATM   12  C   UNK N   1      35.786   9.968  16.473  0.00  0.00     0.031 A 
HETATM   13  C   UNK N   1      35.730  10.125  19.257  0.00  0.00     0.016 A 
HETATM   14  C   UNK N   1      35.287  12.582  19.214  0.00  0.00     0.042 C 
HETATM   15  C   UNK N   1      35.962   8.899  18.632  0.00  0.00    -0.061 A 
HETATM   16  C   UNK N   1      36.164   7.675  19.450  0.00  0.00     0.048 C 
HETATM   17  C   UNK N   1      35.998   8.822  17.241  0.00  0.00     0.009 A 
HETATM   18  C   UNK N   1      35.342  13.795  18.286  0.00  0.00     0.025 C 
HETATM   19  O   UNK N   1      35.193  13.593  14.416  0.00  0.00    -0.260 OA
ENDBRANCH   6   7
ENDBRANCH   5   6
ENDBRANCH   2   5
BRANCH   1  20
HETATM   20  C   UNK N   1      34.404  14.193  10.667  0.00  0.00     0.056 A 
HETATM   21  C   UNK N   1      34.981  15.405  11.048  0.00  0.00     0.033 A 
HETATM   22  C   UNK N   1      35.003  16.496  10.192  0.00  0.00     0.027 A 
HETATM   23  C   UNK N   1      34.449  16.400   8.920  0.00  0.00     0.081 A 
HETATM   24  C   UNK N   1      33.892  15.186   8.493  0.00  0.00     0.051 A 
HETATM   25  C   UNK N   1      33.860  14.073   9.351  0.00  0.00     0.062 A 
HETATM   26 Cl   UNK N   1      33.219  12.578   8.683  0.00  0.00    -0.082 Cl
BRANCH  23  27
HETATM   27  S   UNK N   1      34.521  17.835   7.849  0.00  0.00     0.256 S 
HETATM   28  O   UNK N   1      33.565  18.113   6.681  0.00  0.00    -0.201 OA
HETATM   29  O   UNK N   1      34.988  19.187   8.411  0.00  0.00    -0.201 OA
BRANCH  27  30
HETATM   30  N   UNK N   1      33.075  18.162   8.810  0.00  0.00    -0.324 N 
HETATM   31  H   UNK N   1      32.230  18.603   9.171  0.00  0.00     0.169 HD
HETATM   32  H   UNK N   1      33.112  17.354   9.431  0.00  0.00     0.169 HD
ENDBRANCH  27  30
ENDBRANCH  23  27
ENDBRANCH   1  20
TORSDOF 6
ENDMDL
MODEL 5
REMARK VINA RESULT:      -6.9      6.416     10.311
REMARK  6 active torsions:
REMARK  status: ('A' for Active; 'I' for Inactive)
REMARK    1  A    between atoms: S_2  and  C_5 
REMARK    2  A    between atoms: N_4  and  S_2 
REMARK    3  A    between atoms: C_11  and  N_12 
REMARK       I    between atoms: C_13  and  N_12 
REMARK    4  A    between atoms: C_13  and  C_15 
REMARK    5  A    between atoms: C_15  and  S_16 
REMARK    6  A    between atoms: S_16  and  C_17 
REMARK       I    between atoms: C_17  and  N_19 
ROOT
HETATM    1  N   UNK N   1      34.123  16.024   8.900  0.00  0.00    -0.325 N 
HETATM    2  C   UNK N   1      34.861  16.905   9.619  0.00  0.00     0.232 C 
HETATM    3  O   UNK N   1      35.151  18.004   9.179  0.00  0.00    -0.272 OA
HETATM    4  H   UNK N   1      34.013  15.136   9.311  0.00  0.00     0.169 HD
ENDROOT
BRANCH   2   5
HETATM    5  C   UNK N   1      35.390  16.482  10.954  0.00  0.00     0.187 C 
BRANCH   5   6
HETATM    6  S   UNK N   1      34.724  14.851  11.443  0.00  0.00    -0.060 SA
BRANCH   6   7
HETATM    7  C   UNK N   1      36.263  14.025  11.009  0.00  0.00     0.286 C 
HETATM    8  N   UNK N   1      36.861  13.083  11.809  0.00  0.00    -0.308 N 
HETATM    9  C   UNK N   1      36.451  12.755  13.151  0.00  0.00     0.044 A 
HETATM   10  C   UNK N   1      37.993  12.354  11.267  0.00  0.00     0.133 C 
HETATM   11  C   UNK N   1      36.890  11.541  13.734  0.00  0.00    -0.031 A 
HETATM   12  C   UNK N   1      35.674  13.629  13.932  0.00  0.00     0.031 A 
HETATM   13  C   UNK N   1      36.566  11.239  15.059  0.00  0.00     0.016 A 
HETATM   14  C   UNK N   1      37.706  10.548  12.947  0.00  0.00     0.042 C 
HETATM   15  C   UNK N   1      35.803  12.126  15.819  0.00  0.00    -0.061 A 
HETATM   16  C   UNK N   1      35.480  11.804  17.233  0.00  0.00     0.048 C 
HETATM   17  C   UNK N   1      35.351  13.317  15.253  0.00  0.00     0.009 A 
HETATM   18  C   UNK N   1      37.761  10.867  11.454  0.00  0.00     0.025 C 
HETATM   19  O   UNK N   1      36.732  14.272   9.908  0.00  0.00    -0.260 OA
ENDBRANCH   6   7
ENDBRANCH   5   6
ENDBRANCH   2   5
BRANCH   1  20
HETATM   20  C   UNK N   1      33.482  16.193   7.639  0.00  0.00     0.056 A 
HETATM   21  C   UNK N   1      33.992  15.427   6.591  0.00  0.00     0.033 A 
HETATM   22  C   UNK N   1      33.435  15.474   5.322  0.00  0.00     0.027 A 
HETATM   23  C   UNK N   1      32.340  16.293   5.068  0.00  0.00     0.081 A 
HETATM   24  C   UNK N   1      31.781  17.051   6.107  0.00  0.00     0.051 A 
HETATM   25  C   UNK N   1      32.337  17.014   7.397  0.00  0.00     0.062 A 
HETATM   26 Cl   UNK N   1      31.504  17.933   8.643  0.00  0.00    -0.082 Cl
BRANCH  23  27
HETATM   27  S   UNK N   1      31.650  16.303   3.414  0.00  0.00     0.256 S 
HETATM   28  O   UNK N   1      30.154  16.223   3.081  0.00  0.00    -0.201 OA
HETATM   29  O   UNK N   1      32.340  17.107   2.301  0.00  0.00    -0.201 OA
BRANCH  27  30
HETATM   30  N   UNK N   1      31.197  17.901   4.013  0.00  0.00    -0.324 N 
HETATM   31  H   UNK N   1      30.721  18.650   4.516  0.00  0.00     0.169 HD
HETATM   32  H   UNK N   1      31.885  18.461   3.508  0.00  0.00     0.169 HD
ENDBRANCH  27  30
ENDBRANCH  23  27
ENDBRANCH   1  20
TORSDOF 6
ENDMDL
MODEL 6
REMARK VINA RESULT:      -6.8      3.629      8.006
REMARK  6 active torsions:
REMARK  status: ('A' for Active; 'I' for Inactive)
REMARK    1  A    between atoms: S_2  and  C_5 
REMARK    2  A    between atoms: N_4  and  S_2 
REMARK    3  A    between atoms: C_11  and  N_12 
REMARK       I    between atoms: C_13  and  N_12 
REMARK    4  A    between atoms: C_13  and  C_15 
REMARK    5  A    between atoms: C_15  and  S_16 
REMARK    6  A    between atoms: S_16  and  C_17 
REMARK       I    between atoms: C_17  and  N_19 
ROOT
HETATM    1  N   UNK N   1      25.707  16.482   4.868  0.00  0.00    -0.325 N 
HETATM    2  C   UNK N   1      26.551  15.728   4.122  0.00  0.00     0.232 C 
HETATM    3  O   UNK N   1      26.279  15.407   2.977  0.00  0.00    -0.272 OA
HETATM    4  H   UNK N   1      25.982  16.618   5.804  0.00  0.00     0.169 HD
ENDROOT
BRANCH   2   5
HETATM    5  C   UNK N   1      27.812  15.221   4.750  0.00  0.00     0.187 C 
BRANCH   5   6
HETATM    6  S   UNK N   1      29.277  16.092   4.088  0.00  0.00    -0.060 SA
BRANCH   6   7
HETATM    7  C   UNK N   1      30.014  16.222   5.725  0.00  0.00     0.286 C 
HETATM    8  N   UNK N   1      29.659  17.189   6.634  0.00  0.00    -0.308 N 
HETATM    9  C   UNK N   1      28.798  18.311   6.356  0.00  0.00     0.044 A 
HETATM   10  C   UNK N   1      30.184  17.077   7.983  0.00  0.00     0.133 C 
HETATM   11  C   UNK N   1      28.214  19.022   7.433  0.00  0.00    -0.031 A 
HETATM   12  C   UNK N   1      28.562  18.768   5.046  0.00  0.00     0.031 A 
HETATM   13  C   UNK N   1      27.438  20.157   7.188  0.00  0.00     0.016 A 
HETATM   14  C   UNK N   1      28.407  18.574   8.858  0.00  0.00     0.042 C 
HETATM   15  C   UNK N   1      27.225  20.599   5.881  0.00  0.00    -0.061 A 
HETATM   16  C   UNK N   1      26.413  21.818   5.633  0.00  0.00     0.048 C 
HETATM   17  C   UNK N   1      27.781  19.900   4.811  0.00  0.00     0.009 A 
HETATM   18  C   UNK N   1      29.040  17.188   8.971  0.00  0.00     0.025 C 
HETATM   19  O   UNK N   1      30.804  15.348   6.048  0.00  0.00    -0.260 OA
ENDBRANCH   6   7
ENDBRANCH   5   6
ENDBRANCH   2   5
BRANCH   1  20
HETATM   20  C   UNK N   1      24.482  17.108   4.498  0.00  0.00     0.056 A 
HETATM   21  C   UNK N   1      24.557  18.472   4.219  0.00  0.00     0.033 A 
HETATM   22  C   UNK N   1      23.441  19.191   3.816  0.00  0.00     0.027 A 
HETATM   23  C   UNK N   1      22.212  18.556   3.676  0.00  0.00     0.081 A 
HETATM   24  C   UNK N   1      22.109  17.178   3.916  0.00  0.00     0.051 A 
HETATM   25  C   UNK N   1      23.230  16.438   4.328  0.00  0.00     0.062 A 
HETATM   26 Cl   UNK N   1      23.008  14.704   4.515  0.00  0.00    -0.082 Cl
BRANCH  23  27
HETATM   27  S   UNK N   1      20.808  19.530   3.136  0.00  0.00     0.256 S 
HETATM   28  O   UNK N   1      20.313  20.815   3.813  0.00  0.00    -0.201 OA
HETATM   29  O   UNK N   1      20.470  19.622   1.640  0.00  0.00    -0.201 OA
BRANCH  27  30
HETATM   30  N   UNK N   1      22.168  20.562   2.687  0.00  0.00    -0.324 N 
HETATM   31  H   UNK N   1      22.736  21.385   2.482  0.00  0.00     0.169 HD
HETATM   32  H   UNK N   1      22.867  19.839   2.516  0.00  0.00     0.169 HD
ENDBRANCH  27  30
ENDBRANCH  23  27
ENDBRANCH   1  20
TORSDOF 6
ENDMDL
MODEL 7
REMARK VINA RESULT:      -6.8      6.150     10.218
REMARK  6 active torsions:
REMARK  status: ('A' for Active; 'I' for Inactive)
REMARK    1  A    between atoms: S_2  and  C_5 
REMARK    2  A    between atoms: N_4  and  S_2 
REMARK    3  A    between atoms: C_11  and  N_12 
REMARK       I    between atoms: C_13  and  N_12 
REMARK    4  A    between atoms: C_13  and  C_15 
REMARK    5  A    between atoms: C_15  and  S_16 
REMARK    6  A    between atoms: S_16  and  C_17 
REMARK       I    between atoms: C_17  and  N_19 
ROOT
HETATM    1  N   UNK N   1      33.241  17.372   8.905  0.00  0.00    -0.325 N 
HETATM    2  C   UNK N   1      34.025  16.350   9.326  0.00  0.00     0.232 C 
HETATM    3  O   UNK N   1      33.738  15.188   9.096  0.00  0.00    -0.272 OA
HETATM    4  H   UNK N   1      33.517  18.267   9.211  0.00  0.00     0.169 HD
ENDROOT
BRANCH   2   5
HETATM    5  C   UNK N   1      35.232  16.661  10.154  0.00  0.00     0.187 C 
BRANCH   5   6
HETATM    6  S   UNK N   1      35.290  15.620  11.657  0.00  0.00    -0.060 SA
BRANCH   6   7
HETATM    7  C   UNK N   1      36.668  14.659  11.010  0.00  0.00     0.286 C 
HETATM    8  N   UNK N   1      37.137  13.519  11.615  0.00  0.00    -0.308 N 
HETATM    9  C   UNK N   1      36.721  13.036  12.907  0.00  0.00     0.044 A 
HETATM   10  C   UNK N   1      38.125  12.730  10.901  0.00  0.00     0.133 C 
HETATM   11  C   UNK N   1      36.985  11.690  13.263  0.00  0.00    -0.031 A 
HETATM   12  C   UNK N   1      36.114  13.873  13.861  0.00  0.00     0.031 A 
HETATM   13  C   UNK N   1      36.658  11.223  14.539  0.00  0.00     0.016 A 
HETATM   14  C   UNK N   1      37.612  10.733  12.283  0.00  0.00     0.042 C 
HETATM   15  C   UNK N   1      36.066  12.073  15.472  0.00  0.00    -0.061 A 
HETATM   16  C   UNK N   1      35.739  11.572  16.832  0.00  0.00     0.048 C 
HETATM   17  C   UNK N   1      35.787  13.396  15.131  0.00  0.00     0.009 A 
HETATM   18  C   UNK N   1      37.670  11.284  10.859  0.00  0.00     0.025 C 
HETATM   19  O   UNK N   1      37.136  15.014   9.939  0.00  0.00    -0.260 OA
ENDBRANCH   6   7
ENDBRANCH   5   6
ENDBRANCH   2   5
BRANCH   1  20
HETATM   20  C   UNK N   1      32.077  17.345   8.084  0.00  0.00     0.056 A 
HETATM   21  C   UNK N   1      30.860  17.472   8.754  0.00  0.00     0.033 A 
HETATM   22  C   UNK N   1      29.655  17.494   8.067  0.00  0.00     0.027 A 
HETATM   23  C   UNK N   1      29.637  17.394   6.680  0.00  0.00     0.081 A 
HETATM   24  C   UNK N   1      30.845  17.299   5.974  0.00  0.00     0.051 A 
HETATM   25  C   UNK N   1      32.073  17.273   6.657  0.00  0.00     0.062 A 
HETATM   26 Cl   UNK N   1      33.526  17.241   5.669  0.00  0.00    -0.082 Cl
BRANCH  23  27
HETATM   27  S   UNK N   1      28.053  17.445   5.842  0.00  0.00     0.256 S 
HETATM   28  O   UNK N   1      26.810  16.646   6.257  0.00  0.00    -0.201 OA
HETATM   29  O   UNK N   1      27.580  18.747   5.179  0.00  0.00    -0.201 OA
BRANCH  27  30
HETATM   30  N   UNK N   1      27.709  18.318   7.339  0.00  0.00    -0.324 N 
HETATM   31  H   UNK N   1      27.312  18.576   8.242  0.00  0.00     0.169 HD
HETATM   32  H   UNK N   1      28.344  19.106   7.212  0.00  0.00     0.169 HD
ENDBRANCH  27  30
ENDBRANCH  23  27
ENDBRANCH   1  20
TORSDOF 6
ENDMDL
MODEL 8
REMARK VINA RESULT:      -6.6      5.373      9.589
REMARK  6 active torsions:
REMARK  status: ('A' for Active; 'I' for Inactive)
REMARK    1  A    between atoms: S_2  and  C_5 
REMARK    2  A    between atoms: N_4  and  S_2 
REMARK    3  A    between atoms: C_11  and  N_12 
REMARK       I    between atoms: C_13  and  N_12 
REMARK    4  A    between atoms: C_13  and  C_15 
REMARK    5  A    between atoms: C_15  and  S_16 
REMARK    6  A    between atoms: S_16  and  C_17 
REMARK       I    between atoms: C_17  and  N_19 
ROOT
HETATM    1  N   UNK N   1      32.081  16.948   8.597  0.00  0.00    -0.325 N 
HETATM    2  C   UNK N   1      33.316  17.506   8.607  0.00  0.00     0.232 C 
HETATM    3  O   UNK N   1      33.608  18.427   7.863  0.00  0.00    -0.272 OA
HETATM    4  H   UNK N   1      31.973  16.159   9.177  0.00  0.00     0.169 HD
ENDROOT
BRANCH   2   5
HETATM    5  C   UNK N   1      34.364  16.924   9.504  0.00  0.00     0.187 C 
BRANCH   5   6
HETATM    6  S   UNK N   1      33.988  15.183   9.917  0.00  0.00    -0.060 SA
BRANCH   6   7
HETATM    7  C   UNK N   1      35.496  14.606   9.121  0.00  0.00     0.286 C 
HETATM    8  N   UNK N   1      36.431  13.827   9.758  0.00  0.00    -0.308 N 
HETATM    9  C   UNK N   1      36.427  13.512  11.164  0.00  0.00     0.044 A 
HETATM   10  C   UNK N   1      37.508  13.271   8.959  0.00  0.00     0.133 C 
HETATM   11  C   UNK N   1      37.205  12.425  11.634  0.00  0.00    -0.031 A 
HETATM   12  C   UNK N   1      35.721  14.285  12.104  0.00  0.00     0.031 A 
HETATM   13  C   UNK N   1      37.274  12.149  13.002  0.00  0.00     0.016 A 
HETATM   14  C   UNK N   1      37.968  11.542  10.681  0.00  0.00     0.042 C 
HETATM   15  C   UNK N   1      36.574  12.936  13.918  0.00  0.00    -0.061 A 
HETATM   16  C   UNK N   1      36.669  12.645  15.371  0.00  0.00     0.048 C 
HETATM   17  C   UNK N   1      35.792  13.999  13.467  0.00  0.00     0.009 A 
HETATM   18  C   UNK N   1      37.598  11.780   9.217  0.00  0.00     0.025 C 
HETATM   19  O   UNK N   1      35.631  14.866   7.935  0.00  0.00    -0.260 OA
ENDBRANCH   6   7
ENDBRANCH   5   6
ENDBRANCH   2   5
BRANCH   1  20
HETATM   20  C   UNK N   1      30.917  17.333   7.873  0.00  0.00     0.056 A 
HETATM   21  C   UNK N   1      30.807  16.818   6.582  0.00  0.00     0.033 A 
HETATM   22  C   UNK N   1      29.704  17.091   5.785  0.00  0.00     0.027 A 
HETATM   23  C   UNK N   1      28.672  17.889   6.267  0.00  0.00     0.081 A 
HETATM   24  C   UNK N   1      28.735  18.395   7.573  0.00  0.00     0.051 A 
HETATM   25  C   UNK N   1      29.848  18.129   8.390  0.00  0.00     0.062 A 
HETATM   26 Cl   UNK N   1      29.782  18.738  10.038  0.00  0.00    -0.082 Cl
BRANCH  23  27
HETATM   27  S   UNK N   1      27.264  18.195   5.201  0.00  0.00     0.256 S 
HETATM   28  O   UNK N   1      26.450  19.495   5.167  0.00  0.00    -0.201 OA
HETATM   29  O   UNK N   1      27.214  17.568   3.800  0.00  0.00    -0.201 OA
BRANCH  27  30
HETATM   30  N   UNK N   1      28.505  19.223   4.479  0.00  0.00    -0.324 N 
HETATM   31  H   UNK N   1      29.255  19.561   3.875  0.00  0.00     0.169 HD
HETATM   32  H   UNK N   1      28.401  20.043   5.077  0.00  0.00     0.169 HD
ENDBRANCH  27  30
ENDBRANCH  23  27
ENDBRANCH   1  20
TORSDOF 6
ENDMDL
MODEL 9
REMARK VINA RESULT:      -6.5      9.605     12.660
REMARK  6 active torsions:
REMARK  status: ('A' for Active; 'I' for Inactive)
REMARK    1  A    between atoms: S_2  and  C_5 
REMARK    2  A    between atoms: N_4  and  S_2 
REMARK    3  A    between atoms: C_11  and  N_12 
REMARK       I    between atoms: C_13  and  N_12 
REMARK    4  A    between atoms: C_13  and  C_15 
REMARK    5  A    between atoms: C_15  and  S_16 
REMARK    6  A    between atoms: S_16  and  C_17 
REMARK       I    between atoms: C_17  and  N_19 
ROOT
HETATM    1  N   UNK N   1      35.320  12.036  12.193  0.00  0.00    -0.325 N 
HETATM    2  C   UNK N   1      36.378  11.208  12.373  0.00  0.00     0.232 C 
HETATM    3  O   UNK N   1      37.403  11.330  11.725  0.00  0.00    -0.272 OA
HETATM    4  H   UNK N   1      34.513  11.804  12.708  0.00  0.00     0.169 HD
ENDROOT
BRANCH   2   5
HETATM    5  C   UNK N   1      36.250  10.075  13.343  0.00  0.00     0.187 C 
BRANCH   5   6
HETATM    6  S   UNK N   1      34.676  10.172  14.270  0.00  0.00    -0.060 SA
BRANCH   6   7
HETATM    7  C   UNK N   1      35.349   9.206  15.631  0.00  0.00     0.286 C 
HETATM    8  N   UNK N   1      35.551   9.719  16.889  0.00  0.00    -0.308 N 
HETATM    9  C   UNK N   1      35.421  11.109  17.247  0.00  0.00     0.044 A 
HETATM   10  C   UNK N   1      35.920   8.796  17.947  0.00  0.00     0.133 C 
HETATM   11  C   UNK N   1      35.291  11.465  18.612  0.00  0.00    -0.031 A 
HETATM   12  C   UNK N   1      35.481  12.138  16.289  0.00  0.00     0.031 A 
HETATM   13  C   UNK N   1      35.240  12.811  18.986  0.00  0.00     0.016 A 
HETATM   14  C   UNK N   1      35.199  10.414  19.687  0.00  0.00     0.042 C 
HETATM   15  C   UNK N   1      35.311  13.815  18.020  0.00  0.00    -0.061 A 
HETATM   16  C   UNK N   1      35.274  15.243  18.430  0.00  0.00     0.048 C 
HETATM   17  C   UNK N   1      35.424  13.479  16.672  0.00  0.00     0.009 A 
HETATM   18  C   UNK N   1      34.997   9.005  19.132  0.00  0.00     0.025 C 
HETATM   19  O   UNK N   1      35.550   8.019  15.422  0.00  0.00    -0.260 OA
ENDBRANCH   6   7
ENDBRANCH   5   6
ENDBRANCH   2   5
BRANCH   1  20
HETATM   20  C   UNK N   1      35.203  13.193  11.370  0.00  0.00     0.056 A 
HETATM   21  C   UNK N   1      34.577  13.000  10.138  0.00  0.00     0.033 A 
HETATM   22  C   UNK N   1      34.371  14.053   9.259  0.00  0.00     0.027 A 
HETATM   23  C   UNK N   1      34.784  15.338   9.595  0.00  0.00     0.081 A 
HETATM   24  C   UNK N   1      35.386  15.572  10.840  0.00  0.00     0.051 A 
HETATM   25  C   UNK N   1      35.604  14.514  11.740  0.00  0.00     0.062 A 
HETATM   26 Cl   UNK N   1      36.283  14.935  13.305  0.00  0.00    -0.082 Cl
BRANCH  23  27
HETATM   27  S   UNK N   1      34.477  16.664   8.429  0.00  0.00     0.256 S 
HETATM   28  O   UNK N   1      33.527  16.579   7.227  0.00  0.00    -0.201 OA
HETATM   29  O   UNK N   1      34.510  18.124   8.904  0.00  0.00    -0.201 OA
BRANCH  27  30
HETATM   30  N   UNK N   1      32.964  16.612   9.338  0.00  0.00    -0.324 N 
HETATM   31  H   UNK N   1      32.014  16.381   9.628  0.00  0.00     0.169 HD
HETATM   32  H   UNK N   1      33.207  17.258  10.089  0.00  0.00     0.169 HD
ENDBRANCH  27  30
ENDBRANCH  23  27
ENDBRANCH   1  20
TORSDOF 6
ENDMDL
