MODEL 1
REMARK VINA RESULT:      -8.2      0.000      0.000
REMARK  6 active torsions:
REMARK  status: ('A' for Active; 'I' for Inactive)
REMARK    1  A    between atoms: C_3  and  N_4 
REMARK    2  A    between atoms: C_3  and  C_5 
REMARK    3  A    between atoms: C_8  and  C_11 
REMARK    4  A    between atoms: C_11  and  N_12 
REMARK    5  A    between atoms: N_16  and  S_19 
REMARK    6  A    between atoms: S_19  and  C_22 
ROOT
HETATM    1  N   UNK N   1      32.958  16.763   8.424  0.00  0.00    -0.346 N 
HETATM    2  C   UNK N   1      34.207  16.770   7.882  0.00  0.00     0.234 C 
HETATM    3  O   UNK N   1      34.583  17.703   7.191  0.00  0.00    -0.272 OA
HETATM    4  C   UNK N   1      35.169  15.651   8.187  0.00  0.00     0.210 C 
HETATM    5  N   UNK N   1      34.835  14.858   9.390  0.00  0.00    -0.196 NA
HETATM    6  C   UNK N   1      33.653  15.280  10.151  0.00  0.00     0.128 C 
HETATM    7  C   UNK N   1      32.529  15.636   9.206  0.00  0.00     0.141 C 
ENDROOT
BRANCH   1   8
HETATM    8  C   UNK N   1      32.092  17.913   8.325  0.00  0.00     0.164 C 
BRANCH   8   9
HETATM    9  C   UNK N   1      30.772  17.490   7.762  0.00  0.00    -0.040 A 
HETATM   10  C   UNK N   1      29.592  17.744   8.465  0.00  0.00     0.010 A 
HETATM   11  C   UNK N   1      28.360  17.354   7.927  0.00  0.00     0.016 A 
HETATM   12  C   UNK N   1      28.302  16.700   6.685  0.00  0.00     0.007 A 
HETATM   13  C   UNK N   1      29.491  16.435   5.993  0.00  0.00     0.016 A 
HETATM   14  C   UNK N   1      30.719  16.832   6.526  0.00  0.00     0.010 A 
BRANCH  12  15
HETATM   15  C   UNK N   1      26.998  16.316   6.105  0.00  0.00     0.102 C 
HETATM   16  N   UNK N   1      26.780  16.455   4.848  0.00  0.00    -0.385 N 
HETATM   17  H   UNK N   1      25.891  16.724   4.526  0.00  0.00     0.157 HD
ATOM     18  HN  UNK N   1      27.532  16.286   4.181  1.00  0.00     0.157 HD
BRANCH  15  19
HETATM   19  N   UNK N   1      25.962  15.835   6.939  0.00  0.00    -0.385 N 
HETATM   20  H   UNK N   1      25.073  16.226   7.098  0.00  0.00     0.157 HD
HETATM   21  H   UNK N   1      26.156  15.001   7.425  0.00  0.00     0.157 HD
ENDBRANCH  15  19
ENDBRANCH  12  15
ENDBRANCH   8   9
ENDBRANCH   1   8
BRANCH   5  22
HETATM   22  S   UNK N   1      36.216  14.845  10.505  0.00  0.00     0.250 S 
HETATM   23  O   UNK N   1      36.678  16.304  10.668  0.00  0.00    -0.205 OA
HETATM   24  O   UNK N   1      37.384  14.199   9.741  0.00  0.00    -0.205 OA
BRANCH  22  25
HETATM   25  C   UNK N   1      35.885  13.990  12.025  0.00  0.00     0.116 A 
HETATM   26  C   UNK N   1      36.188  14.403  13.332  0.00  0.00     0.045 A 
HETATM   27  C   UNK N   1      35.811  13.416  14.285  0.00  0.00    -0.017 A 
HETATM   28  C   UNK N   1      35.234  12.278  13.725  0.00  0.00     0.018 A 
HETATM   29  C   UNK N   1      35.989  13.496  15.665  0.00  0.00     0.014 A 
HETATM   30  S   UNK N   1      35.187  12.487  12.098  0.00  0.00    -0.076 SA
HETATM   31  C   UNK N   1      34.826  11.192  14.482  0.00  0.00     0.043 A 
HETATM   32  C   UNK N   1      35.008  11.258  15.869  0.00  0.00     0.035 A 
HETATM   33 Cl   UNK N   1      34.540   9.899  16.864  0.00  0.00    -0.084 Cl
HETATM   34  C   UNK N   1      35.584  12.405  16.460  0.00  0.00     0.024 A 
ENDBRANCH  22  25
ENDBRANCH   5  22
TORSDOF 6
ENDMDL
MODEL 2
REMARK VINA RESULT:      -8.2      4.315      9.865
REMARK  6 active torsions:
REMARK  status: ('A' for Active; 'I' for Inactive)
REMARK    1  A    between atoms: C_3  and  N_4 
REMARK    2  A    between atoms: C_3  and  C_5 
REMARK    3  A    between atoms: C_8  and  C_11 
REMARK    4  A    between atoms: C_11  and  N_12 
REMARK    5  A    between atoms: N_16  and  S_19 
REMARK    6  A    between atoms: S_19  and  C_22 
ROOT
HETATM    1  N   UNK N   1      35.234  14.700  10.865  0.00  0.00    -0.346 N 
HETATM    2  C   UNK N   1      35.852  15.860  10.512  0.00  0.00     0.234 C 
HETATM    3  O   UNK N   1      37.052  16.003  10.679  0.00  0.00    -0.272 OA
HETATM    4  C   UNK N   1      35.069  16.960   9.844  0.00  0.00     0.210 C 
HETATM    5  N   UNK N   1      33.792  16.529   9.235  0.00  0.00    -0.196 NA
HETATM    6  C   UNK N   1      33.472  15.099   9.316  0.00  0.00     0.128 C 
HETATM    7  C   UNK N   1      33.813  14.569  10.689  0.00  0.00     0.141 C 
ENDROOT
BRANCH   1   8
HETATM    8  C   UNK N   1      35.989  13.553  11.310  0.00  0.00     0.164 C 
BRANCH   8   9
HETATM    9  C   UNK N   1      35.779  13.364  12.779  0.00  0.00    -0.040 A 
HETATM   10  C   UNK N   1      34.890  12.391  13.244  0.00  0.00     0.010 A 
HETATM   11  C   UNK N   1      34.707  12.214  14.620  0.00  0.00     0.016 A 
HETATM   12  C   UNK N   1      35.405  13.012  15.540  0.00  0.00     0.007 A 
HETATM   13  C   UNK N   1      36.284  13.995  15.065  0.00  0.00     0.016 A 
HETATM   14  C   UNK N   1      36.473  14.167  13.693  0.00  0.00     0.010 A 
BRANCH  12  15
HETATM   15  C   UNK N   1      35.233  12.802  16.993  0.00  0.00     0.102 C 
HETATM   16  N   UNK N   1      35.162  13.805  17.790  0.00  0.00    -0.385 N 
HETATM   17  H   UNK N   1      35.564  13.756  18.687  0.00  0.00     0.157 HD
ATOM     18  HN  UNK N   1      34.687  14.657  17.493  1.00  0.00     0.157 HD
BRANCH  15  19
HETATM   19  N   UNK N   1      35.192  11.492  17.522  0.00  0.00    -0.385 N 
HETATM   20  H   UNK N   1      35.882  11.019  18.040  0.00  0.00     0.157 HD
HETATM   21  H   UNK N   1      34.365  10.986  17.350  0.00  0.00     0.157 HD
ENDBRANCH  15  19
ENDBRANCH  12  15
ENDBRANCH   8   9
ENDBRANCH   1   8
BRANCH   5  22
HETATM   22  S   UNK N   1      33.755  16.993   7.522  0.00  0.00     0.250 S 
HETATM   23  O   UNK N   1      34.637  15.987   6.763  0.00  0.00    -0.205 OA
HETATM   24  O   UNK N   1      34.553  18.302   7.410  0.00  0.00    -0.205 OA
BRANCH  22  25
HETATM   25  C   UNK N   1      32.111  17.181   6.880  0.00  0.00     0.116 A 
HETATM   26  C   UNK N   1      30.917  17.352   7.599  0.00  0.00     0.045 A 
HETATM   27  C   UNK N   1      29.794  17.413   6.727  0.00  0.00    -0.017 A 
HETATM   28  C   UNK N   1      30.117  17.295   5.377  0.00  0.00     0.018 A 
HETATM   29  C   UNK N   1      28.462  17.556   7.112  0.00  0.00     0.014 A 
HETATM   30  S   UNK N   1      31.746  17.123   5.263  0.00  0.00    -0.076 SA
HETATM   31  C   UNK N   1      29.164  17.301   4.372  0.00  0.00     0.043 A 
HETATM   32  C   UNK N   1      27.821  17.435   4.748  0.00  0.00     0.035 A 
HETATM   33 Cl   UNK N   1      26.577  17.416   3.520  0.00  0.00    -0.084 Cl
HETATM   34  C   UNK N   1      27.470  17.564   6.111  0.00  0.00     0.024 A 
ENDBRANCH  22  25
ENDBRANCH   5  22
TORSDOF 6
ENDMDL
MODEL 3
REMARK VINA RESULT:      -8.0      1.572      1.993
REMARK  6 active torsions:
REMARK  status: ('A' for Active; 'I' for Inactive)
REMARK    1  A    between atoms: C_3  and  N_4 
REMARK    2  A    between atoms: C_3  and  C_5 
REMARK    3  A    between atoms: C_8  and  C_11 
REMARK    4  A    between atoms: C_11  and  N_12 
REMARK    5  A    between atoms: N_16  and  S_19 
REMARK    6  A    between atoms: S_19  and  C_22 
ROOT
HETATM    1  N   UNK N   1      34.155  15.793   7.618  0.00  0.00    -0.346 N 
HETATM    2  C   UNK N   1      35.260  15.131   7.175  0.00  0.00     0.234 C 
HETATM    3  O   UNK N   1      35.778  15.424   6.111  0.00  0.00    -0.272 OA
HETATM    4  C   UNK N   1      35.897  14.068   8.033  0.00  0.00     0.210 C 
HETATM    5  N   UNK N   1      35.533  14.128   9.465  0.00  0.00    -0.196 NA
HETATM    6  C   UNK N   1      34.648  15.224   9.876  0.00  0.00     0.128 C 
HETATM    7  C   UNK N   1      33.544  15.405   8.860  0.00  0.00     0.141 C 
ENDROOT
BRANCH   1   8
HETATM    8  C   UNK N   1      33.647  16.952   6.923  0.00  0.00     0.164 C 
BRANCH   8   9
HETATM    9  C   UNK N   1      32.194  17.117   7.237  0.00  0.00    -0.040 A 
HETATM   10  C   UNK N   1      31.792  17.901   8.322  0.00  0.00     0.010 A 
HETATM   11  C   UNK N   1      30.430  18.059   8.602  0.00  0.00     0.016 A 
HETATM   12  C   UNK N   1      29.462  17.429   7.804  0.00  0.00     0.007 A 
HETATM   13  C   UNK N   1      29.873  16.632   6.727  0.00  0.00     0.016 A 
HETATM   14  C   UNK N   1      31.231  16.481   6.443  0.00  0.00     0.010 A 
BRANCH  12  15
HETATM   15  C   UNK N   1      28.023  17.622   8.084  0.00  0.00     0.102 C 
HETATM   16  N   UNK N   1      27.139  16.981   7.412  0.00  0.00    -0.385 N 
HETATM   17  H   UNK N   1      26.286  17.411   7.176  0.00  0.00     0.157 HD
ATOM     18  HN  UNK N   1      27.321  16.021   7.120  1.00  0.00     0.157 HD
BRANCH  15  19
HETATM   19  N   UNK N   1      27.609  18.552   9.066  0.00  0.00    -0.385 N 
HETATM   20  H   UNK N   1      26.785  19.089   9.090  0.00  0.00     0.157 HD
HETATM   21  H   UNK N   1      28.225  18.678   9.823  0.00  0.00     0.157 HD
ENDBRANCH  15  19
ENDBRANCH  12  15
ENDBRANCH   8   9
ENDBRANCH   1   8
BRANCH   5  22
HETATM   22  S   UNK N   1      37.003  14.225  10.456  0.00  0.00     0.250 S 
HETATM   23  O   UNK N   1      37.435  15.702  10.479  0.00  0.00    -0.205 OA
HETATM   24  O   UNK N   1      38.121  13.554   9.640  0.00  0.00    -0.205 OA
BRANCH  22  25
HETATM   25  C   UNK N   1      36.826  13.471  12.053  0.00  0.00     0.116 A 
HETATM   26  C   UNK N   1      37.275  12.206  12.464  0.00  0.00     0.045 A 
HETATM   27  C   UNK N   1      36.895  11.936  13.809  0.00  0.00    -0.017 A 
HETATM   28  C   UNK N   1      36.176  12.966  14.412  0.00  0.00     0.018 A 
HETATM   29  C   UNK N   1      37.160  10.767  14.520  0.00  0.00     0.014 A 
HETATM   30  S   UNK N   1      36.018  14.178  13.316  0.00  0.00    -0.076 SA
HETATM   31  C   UNK N   1      35.691  12.887  15.707  0.00  0.00     0.043 A 
HETATM   32  C   UNK N   1      35.944  11.712  16.428  0.00  0.00     0.035 A 
HETATM   33 Cl   UNK N   1      35.324  11.549  18.054  0.00  0.00    -0.084 Cl
HETATM   34  C   UNK N   1      36.677  10.658  15.839  0.00  0.00     0.024 A 
ENDBRANCH  22  25
ENDBRANCH   5  22
TORSDOF 6
ENDMDL
MODEL 4
REMARK VINA RESULT:      -8.0     17.242     20.089
REMARK  6 active torsions:
REMARK  status: ('A' for Active; 'I' for Inactive)
REMARK    1  A    between atoms: C_3  and  N_4 
REMARK    2  A    between atoms: C_3  and  C_5 
REMARK    3  A    between atoms: C_8  and  C_11 
REMARK    4  A    between atoms: C_11  and  N_12 
REMARK    5  A    between atoms: N_16  and  S_19 
REMARK    6  A    between atoms: S_19  and  C_22 
ROOT
HETATM    1  N   UNK N   1      27.131  25.468  -4.915  0.00  0.00    -0.346 N 
HETATM    2  C   UNK N   1      27.033  26.041  -6.146  0.00  0.00     0.234 C 
HETATM    3  O   UNK N   1      27.847  26.872  -6.515  0.00  0.00    -0.272 OA
HETATM    4  C   UNK N   1      25.951  25.603  -7.099  0.00  0.00     0.210 C 
HETATM    5  N   UNK N   1      25.350  24.288  -6.790  0.00  0.00    -0.196 NA
HETATM    6  C   UNK N   1      25.903  23.563  -5.640  0.00  0.00     0.128 C 
HETATM    7  C   UNK N   1      26.139  24.517  -4.493  0.00  0.00     0.141 C 
ENDROOT
BRANCH   1   8
HETATM    8  C   UNK N   1      28.272  25.710  -4.064  0.00  0.00     0.164 C 
BRANCH   8   9
HETATM    9  C   UNK N   1      29.107  24.471  -3.996  0.00  0.00    -0.040 A 
HETATM   10  C   UNK N   1      29.791  24.019  -5.128  0.00  0.00     0.010 A 
HETATM   11  C   UNK N   1      30.579  22.865  -5.053  0.00  0.00     0.016 A 
HETATM   12  C   UNK N   1      30.681  22.150  -3.849  0.00  0.00     0.007 A 
HETATM   13  C   UNK N   1      29.980  22.601  -2.722  0.00  0.00     0.016 A 
HETATM   14  C   UNK N   1      29.201  23.757  -2.795  0.00  0.00     0.010 A 
BRANCH  12  15
HETATM   15  C   UNK N   1      31.538  20.948  -3.765  0.00  0.00     0.102 C 
HETATM   16  N   UNK N   1      31.247  19.895  -4.436  0.00  0.00    -0.385 N 
HETATM   17  H   UNK N   1      31.409  19.003  -4.055  0.00  0.00     0.157 HD
ATOM     18  HN  UNK N   1      30.845  19.983  -5.369  1.00  0.00     0.157 HD
BRANCH  15  19
HETATM   19  N   UNK N   1      32.661  20.934  -2.905  0.00  0.00    -0.385 N 
HETATM   20  H   UNK N   1      32.853  21.523  -2.141  0.00  0.00     0.157 HD
HETATM   21  H   UNK N   1      33.338  20.246  -3.097  0.00  0.00     0.157 HD
ENDBRANCH  15  19
ENDBRANCH  12  15
ENDBRANCH   8   9
ENDBRANCH   1   8
BRANCH   5  22
HETATM   22  S   UNK N   1      25.472  23.223  -8.205  0.00  0.00     0.250 S 
HETATM   23  O   UNK N   1      25.252  24.100  -9.450  0.00  0.00    -0.205 OA
HETATM   24  O   UNK N   1      24.217  22.333  -8.187  0.00  0.00    -0.205 OA
BRANCH  22  25
HETATM   25  C   UNK N   1      26.955  22.249  -8.227  0.00  0.00     0.116 A 
HETATM   26  C   UNK N   1      27.089  20.874  -7.973  0.00  0.00     0.045 A 
HETATM   27  C   UNK N   1      28.452  20.469  -8.035  0.00  0.00    -0.017 A 
HETATM   28  C   UNK N   1      29.338  21.503  -8.329  0.00  0.00     0.018 A 
HETATM   29  C   UNK N   1      28.938  19.182  -7.813  0.00  0.00     0.014 A 
HETATM   30  S   UNK N   1      28.462  22.879  -8.512  0.00  0.00    -0.076 SA
HETATM   31  C   UNK N   1      30.709  21.320  -8.405  0.00  0.00     0.043 A 
HETATM   32  C   UNK N   1      31.208  20.031  -8.175  0.00  0.00     0.035 A 
HETATM   33 Cl   UNK N   1      32.934  19.756  -8.227  0.00  0.00    -0.084 Cl
HETATM   34  C   UNK N   1      30.328  18.966  -7.882  0.00  0.00     0.024 A 
ENDBRANCH  22  25
ENDBRANCH   5  22
TORSDOF 6
ENDMDL
MODEL 5
REMARK VINA RESULT:      -8.0      1.647      2.112
REMARK  6 active torsions:
REMARK  status: ('A' for Active; 'I' for Inactive)
REMARK    1  A    between atoms: C_3  and  N_4 
REMARK    2  A    between atoms: C_3  and  C_5 
REMARK    3  A    between atoms: C_8  and  C_11 
REMARK    4  A    between atoms: C_11  and  N_12 
REMARK    5  A    between atoms: N_16  and  S_19 
REMARK    6  A    between atoms: S_19  and  C_22 
ROOT
HETATM    1  N   UNK N   1      32.778  16.283   7.810  0.00  0.00    -0.346 N 
HETATM    2  C   UNK N   1      32.672  15.066   8.410  0.00  0.00     0.234 C 
HETATM    3  O   UNK N   1      32.167  14.122   7.824  0.00  0.00    -0.272 OA
HETATM    4  C   UNK N   1      33.241  14.851   9.789  0.00  0.00     0.210 C 
HETATM    5  N   UNK N   1      34.247  15.852  10.206  0.00  0.00    -0.196 NA
HETATM    6  C   UNK N   1      34.594  16.887   9.225  0.00  0.00     0.128 C 
HETATM    7  C   UNK N   1      33.346  17.386   8.536  0.00  0.00     0.141 C 
ENDROOT
BRANCH   1   8
HETATM    8  C   UNK N   1      32.436  16.466   6.420  0.00  0.00     0.164 C 
BRANCH   8   9
HETATM    9  C   UNK N   1      31.062  17.050   6.323  0.00  0.00    -0.040 A 
HETATM   10  C   UNK N   1      30.305  17.266   7.477  0.00  0.00     0.010 A 
HETATM   11  C   UNK N   1      29.024  17.823   7.378  0.00  0.00     0.016 A 
HETATM   12  C   UNK N   1      28.490  18.160   6.124  0.00  0.00     0.007 A 
HETATM   13  C   UNK N   1      29.250  17.926   4.970  0.00  0.00     0.016 A 
HETATM   14  C   UNK N   1      30.529  17.378   5.069  0.00  0.00     0.010 A 
BRANCH  12  15
HETATM   15  C   UNK N   1      27.149  18.775   6.025  0.00  0.00     0.102 C 
HETATM   16  N   UNK N   1      26.917  19.916   6.563  0.00  0.00    -0.385 N 
HETATM   17  H   UNK N   1      26.044  20.102   6.976  0.00  0.00     0.157 HD
ATOM     18  HN  UNK N   1      27.641  20.634   6.563  1.00  0.00     0.157 HD
BRANCH  15  19
HETATM   19  N   UNK N   1      26.098  18.088   5.375  0.00  0.00    -0.385 N 
HETATM   20  H   UNK N   1      25.138  18.303   5.370  0.00  0.00     0.157 HD
HETATM   21  H   UNK N   1      26.362  17.291   4.861  0.00  0.00     0.157 HD
ENDBRANCH  15  19
ENDBRANCH  12  15
ENDBRANCH   8   9
ENDBRANCH   1   8
BRANCH   5  22
HETATM   22  S   UNK N   1      35.750  15.034  10.679  0.00  0.00     0.250 S 
HETATM   23  O   UNK N   1      36.839  16.115  10.782  0.00  0.00    -0.205 OA
HETATM   24  O   UNK N   1      36.198  14.210   9.460  0.00  0.00    -0.205 OA
BRANCH  22  25
HETATM   25  C   UNK N   1      35.570  14.012  12.119  0.00  0.00     0.116 A 
HETATM   26  C   UNK N   1      34.841  12.818  12.245  0.00  0.00     0.045 A 
HETATM   27  C   UNK N   1      34.897  12.319  13.577  0.00  0.00    -0.017 A 
HETATM   28  C   UNK N   1      35.648  13.106  14.447  0.00  0.00     0.018 A 
HETATM   29  C   UNK N   1      34.268  11.169  14.050  0.00  0.00     0.014 A 
HETATM   30  S   UNK N   1      36.232  14.381  13.594  0.00  0.00    -0.076 SA
HETATM   31  C   UNK N   1      35.801  12.806  15.791  0.00  0.00     0.043 A 
HETATM   32  C   UNK N   1      35.165  11.657  16.279  0.00  0.00     0.035 A 
HETATM   33 Cl   UNK N   1      35.300  11.254  17.975  0.00  0.00    -0.084 Cl
HETATM   34  C   UNK N   1      34.404  10.840  15.413  0.00  0.00     0.024 A 
ENDBRANCH  22  25
ENDBRANCH   5  22
TORSDOF 6
ENDMDL
MODEL 6
REMARK VINA RESULT:      -7.8     17.519     19.462
REMARK  6 active torsions:
REMARK  status: ('A' for Active; 'I' for Inactive)
REMARK    1  A    between atoms: C_3  and  N_4 
REMARK    2  A    between atoms: C_3  and  C_5 
REMARK    3  A    between atoms: C_8  and  C_11 
REMARK    4  A    between atoms: C_11  and  N_12 
REMARK    5  A    between atoms: N_16  and  S_19 
REMARK    6  A    between atoms: S_19  and  C_22 
ROOT
HETATM    1  N   UNK N   1      27.225  29.275  -3.839  0.00  0.00    -0.346 N 
HETATM    2  C   UNK N   1      28.045  29.427  -2.763  0.00  0.00     0.234 C 
HETATM    3  O   UNK N   1      27.656  29.155  -1.639  0.00  0.00    -0.272 OA
HETATM    4  C   UNK N   1      29.471  29.872  -2.958  0.00  0.00     0.210 C 
HETATM    5  N   UNK N   1      29.994  29.692  -4.330  0.00  0.00    -0.196 NA
HETATM    6  C   UNK N   1      29.089  29.071  -5.304  0.00  0.00     0.128 C 
HETATM    7  C   UNK N   1      27.696  29.634  -5.149  0.00  0.00     0.141 C 
ENDROOT
BRANCH   1   8
HETATM    8  C   UNK N   1      25.928  28.653  -3.712  0.00  0.00     0.164 C 
BRANCH   8   9
HETATM    9  C   UNK N   1      25.967  27.296  -4.340  0.00  0.00    -0.040 A 
HETATM   10  C   UNK N   1      25.380  27.081  -5.590  0.00  0.00     0.010 A 
HETATM   11  C   UNK N   1      25.430  25.811  -6.176  0.00  0.00     0.016 A 
HETATM   12  C   UNK N   1      26.060  24.746  -5.512  0.00  0.00     0.007 A 
HETATM   13  C   UNK N   1      26.633  24.966  -4.252  0.00  0.00     0.016 A 
HETATM   14  C   UNK N   1      26.590  26.234  -3.672  0.00  0.00     0.010 A 
BRANCH  12  15
HETATM   15  C   UNK N   1      26.138  23.413  -6.146  0.00  0.00     0.102 C 
HETATM   16  N   UNK N   1      25.069  22.746  -6.390  0.00  0.00    -0.385 N 
HETATM   17  H   UNK N   1      25.062  21.768  -6.294  0.00  0.00     0.157 HD
ATOM     18  HN  UNK N   1      24.223  23.234  -6.685  1.00  0.00     0.157 HD
BRANCH  15  19
HETATM   19  N   UNK N   1      27.395  22.841  -6.446  0.00  0.00    -0.385 N 
HETATM   20  H   UNK N   1      28.051  22.446  -5.827  0.00  0.00     0.157 HD
HETATM   21  H   UNK N   1      27.648  22.837  -7.398  0.00  0.00     0.157 HD
ENDBRANCH  15  19
ENDBRANCH  12  15
ENDBRANCH   8   9
ENDBRANCH   1   8
BRANCH   5  22
HETATM   22  S   UNK N   1      31.482  28.724  -4.285  0.00  0.00     0.250 S 
HETATM   23  O   UNK N   1      32.313  29.230  -3.093  0.00  0.00    -0.205 OA
HETATM   24  O   UNK N   1      32.320  29.162  -5.498  0.00  0.00    -0.205 OA
BRANCH  22  25
HETATM   25  C   UNK N   1      31.184  26.975  -4.303  0.00  0.00     0.116 A 
HETATM   26  C   UNK N   1      30.447  26.215  -3.380  0.00  0.00     0.045 A 
HETATM   27  C   UNK N   1      30.481  24.831  -3.707  0.00  0.00    -0.017 A 
HETATM   28  C   UNK N   1      31.222  24.537  -4.850  0.00  0.00     0.018 A 
HETATM   29  C   UNK N   1      29.874  23.801  -2.990  0.00  0.00     0.014 A 
HETATM   30  S   UNK N   1      31.815  25.948  -5.442  0.00  0.00    -0.076 SA
HETATM   31  C   UNK N   1      31.401  23.246  -5.319  0.00  0.00     0.043 A 
HETATM   32  C   UNK N   1      30.802  22.202  -4.601  0.00  0.00     0.035 A 
HETATM   33 Cl   UNK N   1      31.026  20.552  -5.133  0.00  0.00    -0.084 Cl
HETATM   34  C   UNK N   1      30.040  22.477  -3.444  0.00  0.00     0.024 A 
ENDBRANCH  22  25
ENDBRANCH   5  22
TORSDOF 6
ENDMDL
MODEL 7
REMARK VINA RESULT:      -7.8      4.225      9.683
REMARK  6 active torsions:
REMARK  status: ('A' for Active; 'I' for Inactive)
REMARK    1  A    between atoms: C_3  and  N_4 
REMARK    2  A    between atoms: C_3  and  C_5 
REMARK    3  A    between atoms: C_8  and  C_11 
REMARK    4  A    between atoms: C_11  and  N_12 
REMARK    5  A    between atoms: N_16  and  S_19 
REMARK    6  A    between atoms: S_19  and  C_22 
ROOT
HETATM    1  N   UNK N   1      35.916  13.678  11.748  0.00  0.00    -0.346 N 
HETATM    2  C   UNK N   1      36.763  13.912  10.708  0.00  0.00     0.234 C 
HETATM    3  O   UNK N   1      37.761  13.228  10.550  0.00  0.00    -0.272 OA
HETATM    4  C   UNK N   1      36.440  14.982   9.697  0.00  0.00     0.210 C 
HETATM    5  N   UNK N   1      35.021  15.398   9.668  0.00  0.00    -0.196 NA
HETATM    6  C   UNK N   1      34.110  14.699  10.581  0.00  0.00     0.128 C 
HETATM    7  C   UNK N   1      34.765  14.520  11.931  0.00  0.00     0.141 C 
ENDROOT
BRANCH   1   8
HETATM    8  C   UNK N   1      36.084  12.531  12.608  0.00  0.00     0.164 C 
BRANCH   8   9
HETATM    9  C   UNK N   1      35.946  12.960  14.035  0.00  0.00    -0.040 A 
HETATM   10  C   UNK N   1      36.817  13.911  14.573  0.00  0.00     0.010 A 
HETATM   11  C   UNK N   1      36.675  14.314  15.905  0.00  0.00     0.016 A 
HETATM   12  C   UNK N   1      35.665  13.764  16.710  0.00  0.00     0.007 A 
HETATM   13  C   UNK N   1      34.805  12.800  16.168  0.00  0.00     0.016 A 
HETATM   14  C   UNK N   1      34.942  12.403  14.837  0.00  0.00     0.010 A 
BRANCH  12  15
HETATM   15  C   UNK N   1      35.497  14.213  18.109  0.00  0.00     0.102 C 
HETATM   16  N   UNK N   1      35.120  13.388  19.016  0.00  0.00    -0.385 N 
HETATM   17  H   UNK N   1      34.522  13.684  19.738  0.00  0.00     0.157 HD
ATOM     18  HN  UNK N   1      35.441  12.421  18.987  1.00  0.00     0.157 HD
BRANCH  15  19
HETATM   19  N   UNK N   1      35.707  15.570  18.449  0.00  0.00    -0.385 N 
HETATM   20  H   UNK N   1      36.167  16.267  17.929  0.00  0.00     0.157 HD
HETATM   21  H   UNK N   1      35.345  15.853  19.320  0.00  0.00     0.157 HD
ENDBRANCH  15  19
ENDBRANCH  12  15
ENDBRANCH   8   9
ENDBRANCH   1   8
BRANCH   5  22
HETATM   22  S   UNK N   1      34.375  15.222   8.024  0.00  0.00     0.250 S 
HETATM   23  O   UNK N   1      34.301  13.715   7.727  0.00  0.00    -0.205 OA
HETATM   24  O   UNK N   1      35.480  15.706   7.070  0.00  0.00    -0.205 OA
BRANCH  22  25
HETATM   25  C   UNK N   1      32.861  16.112   7.765  0.00  0.00     0.116 A 
HETATM   26  C   UNK N   1      32.191  16.956   8.665  0.00  0.00     0.045 A 
HETATM   27  C   UNK N   1      30.977  17.445   8.106  0.00  0.00    -0.017 A 
HETATM   28  C   UNK N   1      30.724  16.991   6.813  0.00  0.00     0.018 A 
HETATM   29  C   UNK N   1      30.062  18.286   8.736  0.00  0.00     0.014 A 
HETATM   30  S   UNK N   1      31.968  16.015   6.371  0.00  0.00    -0.076 SA
HETATM   31  C   UNK N   1      29.582  17.329   6.107  0.00  0.00     0.043 A 
HETATM   32  C   UNK N   1      28.651  18.168   6.735  0.00  0.00     0.035 A 
HETATM   33 Cl   UNK N   1      27.178  18.597   5.897  0.00  0.00    -0.084 Cl
HETATM   34  C   UNK N   1      28.890  18.646   8.042  0.00  0.00     0.024 A 
ENDBRANCH  22  25
ENDBRANCH   5  22
TORSDOF 6
ENDMDL
MODEL 8
REMARK VINA RESULT:      -7.7      4.598      9.809
REMARK  6 active torsions:
REMARK  status: ('A' for Active; 'I' for Inactive)
REMARK    1  A    between atoms: C_3  and  N_4 
REMARK    2  A    between atoms: C_3  and  C_5 
REMARK    3  A    between atoms: C_8  and  C_11 
REMARK    4  A    between atoms: C_11  and  N_12 
REMARK    5  A    between atoms: N_16  and  S_19 
REMARK    6  A    between atoms: S_19  and  C_22 
ROOT
HETATM    1  N   UNK N   1      35.582  12.265  13.452  0.00  0.00    -0.346 N 
HETATM    2  C   UNK N   1      36.442  11.543  12.682  0.00  0.00     0.234 C 
HETATM    3  O   UNK N   1      36.395  10.324  12.669  0.00  0.00    -0.272 OA
HETATM    4  C   UNK N   1      37.422  12.248  11.780  0.00  0.00     0.210 C 
HETATM    5  N   UNK N   1      37.084  13.655  11.478  0.00  0.00    -0.196 NA
HETATM    6  C   UNK N   1      35.832  14.170  12.047  0.00  0.00     0.128 C 
HETATM    7  C   UNK N   1      35.681  13.699  13.474  0.00  0.00     0.141 C 
ENDROOT
BRANCH   1   8
HETATM    8  C   UNK N   1      34.498  11.630  14.162  0.00  0.00     0.164 C 
BRANCH   8   9
HETATM    9  C   UNK N   1      34.728  11.761  15.634  0.00  0.00    -0.040 A 
HETATM   10  C   UNK N   1      34.944  10.624  16.418  0.00  0.00     0.010 A 
HETATM   11  C   UNK N   1      35.169  10.757  17.793  0.00  0.00     0.016 A 
HETATM   12  C   UNK N   1      35.170  12.025  18.394  0.00  0.00     0.007 A 
HETATM   13  C   UNK N   1      34.937  13.159  17.605  0.00  0.00     0.016 A 
HETATM   14  C   UNK N   1      34.721  13.028  16.232  0.00  0.00     0.010 A 
BRANCH  12  15
HETATM   15  C   UNK N   1      35.437  12.165  19.842  0.00  0.00     0.102 C 
HETATM   16  N   UNK N   1      34.942  13.147  20.502  0.00  0.00    -0.385 N 
HETATM   17  H   UNK N   1      35.458  13.568  21.226  0.00  0.00     0.157 HD
ATOM     18  HN  UNK N   1      34.009  13.492  20.276  1.00  0.00     0.157 HD
BRANCH  15  19
HETATM   19  N   UNK N   1      36.280  11.241  20.501  0.00  0.00    -0.385 N 
HETATM   20  H   UNK N   1      36.388  10.278  20.327  0.00  0.00     0.157 HD
HETATM   21  H   UNK N   1      36.831  11.608  21.230  0.00  0.00     0.157 HD
ENDBRANCH  15  19
ENDBRANCH  12  15
ENDBRANCH   8   9
ENDBRANCH   1   8
BRANCH   5  22
HETATM   22  S   UNK N   1      37.013  13.893   9.720  0.00  0.00     0.250 S 
HETATM   23  O   UNK N   1      37.227  12.516   9.069  0.00  0.00    -0.205 OA
HETATM   24  O   UNK N   1      38.290  14.658   9.334  0.00  0.00    -0.205 OA
BRANCH  22  25
HETATM   25  C   UNK N   1      35.557  14.756   9.185  0.00  0.00     0.116 A 
HETATM   26  C   UNK N   1      35.340  16.143   9.149  0.00  0.00     0.045 A 
HETATM   27  C   UNK N   1      34.022  16.447   8.707  0.00  0.00    -0.017 A 
HETATM   28  C   UNK N   1      33.250  15.325   8.410  0.00  0.00     0.018 A 
HETATM   29  C   UNK N   1      33.472  17.721   8.576  0.00  0.00     0.014 A 
HETATM   30  S   UNK N   1      34.172  13.995   8.684  0.00  0.00    -0.076 SA
HETATM   31  C   UNK N   1      31.932  15.408   7.992  0.00  0.00     0.043 A 
HETATM   32  C   UNK N   1      31.367  16.684   7.865  0.00  0.00     0.035 A 
HETATM   33 Cl   UNK N   1      29.697  16.840   7.373  0.00  0.00    -0.084 Cl
HETATM   34  C   UNK N   1      32.133  17.835   8.153  0.00  0.00     0.024 A 
ENDBRANCH  22  25
ENDBRANCH   5  22
TORSDOF 6
ENDMDL
MODEL 9
REMARK VINA RESULT:      -7.7      4.955      9.845
REMARK  6 active torsions:
REMARK  status: ('A' for Active; 'I' for Inactive)
REMARK    1  A    between atoms: C_3  and  N_4 
REMARK    2  A    between atoms: C_3  and  C_5 
REMARK    3  A    between atoms: C_8  and  C_11 
REMARK    4  A    between atoms: C_11  and  N_12 
REMARK    5  A    between atoms: N_16  and  S_19 
REMARK    6  A    between atoms: S_19  and  C_22 
ROOT
HETATM    1  N   UNK N   1      35.658  11.085  12.475  0.00  0.00    -0.346 N 
HETATM    2  C   UNK N   1      34.777  11.349  11.472  0.00  0.00     0.234 C 
HETATM    3  O   UNK N   1      33.699  10.779  11.421  0.00  0.00    -0.272 OA
HETATM    4  C   UNK N   1      35.096  12.404  10.444  0.00  0.00     0.210 C 
HETATM    5  N   UNK N   1      36.141  13.368  10.851  0.00  0.00    -0.196 NA
HETATM    6  C   UNK N   1      36.696  13.209  12.200  0.00  0.00     0.128 C 
HETATM    7  C   UNK N   1      36.935  11.746  12.492  0.00  0.00     0.141 C 
ENDROOT
BRANCH   1   8
HETATM    8  C   UNK N   1      35.296  10.239  13.587  0.00  0.00     0.164 C 
BRANCH   8   9
HETATM    9  C   UNK N   1      35.282  11.053  14.842  0.00  0.00    -0.040 A 
HETATM   10  C   UNK N   1      35.995  10.627  15.966  0.00  0.00     0.010 A 
HETATM   11  C   UNK N   1      35.985  11.400  17.133  0.00  0.00     0.016 A 
HETATM   12  C   UNK N   1      35.255  12.598  17.186  0.00  0.00     0.007 A 
HETATM   13  C   UNK N   1      34.531  13.010  16.060  0.00  0.00     0.016 A 
HETATM   14  C   UNK N   1      34.547  12.244  14.893  0.00  0.00     0.010 A 
BRANCH  12  15
HETATM   15  C   UNK N   1      35.270  13.428  18.410  0.00  0.00     0.102 C 
HETATM   16  N   UNK N   1      35.434  14.698  18.332  0.00  0.00    -0.385 N 
HETATM   17  H   UNK N   1      35.952  15.174  19.019  0.00  0.00     0.157 HD
ATOM     18  HN  UNK N   1      35.026  15.215  17.554  1.00  0.00     0.157 HD
BRANCH  15  19
HETATM   19  N   UNK N   1      35.150  12.821  19.681  0.00  0.00    -0.385 N 
HETATM   20  H   UNK N   1      35.570  13.090  20.530  0.00  0.00     0.157 HD
HETATM   21  H   UNK N   1      34.572  12.025  19.723  0.00  0.00     0.157 HD
ENDBRANCH  15  19
ENDBRANCH  12  15
ENDBRANCH   8   9
ENDBRANCH   1   8
BRANCH   5  22
HETATM   22  S   UNK N   1      35.516  15.024  10.719  0.00  0.00     0.250 S 
HETATM   23  O   UNK N   1      36.566  15.954  11.352  0.00  0.00    -0.205 OA
HETATM   24  O   UNK N   1      34.336  15.122  11.701  0.00  0.00    -0.205 OA
BRANCH  22  25
HETATM   25  C   UNK N   1      35.024  15.461   9.071  0.00  0.00     0.116 A 
HETATM   26  C   UNK N   1      34.303  16.593   8.657  0.00  0.00     0.045 A 
HETATM   27  C   UNK N   1      34.057  16.562   7.255  0.00  0.00    -0.017 A 
HETATM   28  C   UNK N   1      34.575  15.440   6.613  0.00  0.00     0.018 A 
HETATM   29  C   UNK N   1      33.352  17.517   6.524  0.00  0.00     0.014 A 
HETATM   30  S   UNK N   1      35.321  14.513   7.743  0.00  0.00    -0.076 SA
HETATM   31  C   UNK N   1      34.417  15.210   5.256  0.00  0.00     0.043 A 
HETATM   32  C   UNK N   1      33.703  16.159   4.512  0.00  0.00     0.035 A 
HETATM   33 Cl   UNK N   1      33.447  15.898   2.803  0.00  0.00    -0.084 Cl
HETATM   34  C   UNK N   1      33.174  17.308   5.141  0.00  0.00     0.024 A 
ENDBRANCH  22  25
ENDBRANCH   5  22
TORSDOF 6
ENDMDL
