REMARK  6 active torsions:
REMARK  status: ('A' for Active; 'I' for Inactive)
REMARK    1  A    between atoms: C_3  and  N_4 
REMARK    2  A    between atoms: C_3  and  C_5 
REMARK    3  A    between atoms: C_8  and  C_11 
REMARK    4  A    between atoms: C_11  and  N_12 
REMARK    5  A    between atoms: N_16  and  S_19 
REMARK    6  A    between atoms: S_19  and  C_22 
ROOT
HETATM    1  N   UNK N   1      -2.218   1.776  -1.241  0.00  0.00    -0.346 N 
HETATM    2  C   UNK N   1      -2.060   2.336  -0.010  0.00  0.00     0.234 C 
HETATM    3  O   UNK N   1      -3.027   2.588   0.690  0.00  0.00    -0.272 OA
HETATM    4  C   UNK N   1      -0.677   2.590   0.532  0.00  0.00     0.210 C 
HETATM    5  N   UNK N   1       0.398   1.818  -0.128  0.00  0.00    -0.196 NA
HETATM    6  C   UNK N   1      -0.013   0.882  -1.181  0.00  0.00     0.128 C 
HETATM    7  C   UNK N   1      -1.064   1.520  -2.059  0.00  0.00     0.141 C 
ENDROOT
BRANCH   1   8
HETATM    8  C   UNK N   1      -3.511   1.328  -1.700  0.00  0.00     0.164 C 
BRANCH   8   9
HETATM    9  C   UNK N   1      -3.852   0.035  -1.029  0.00  0.00    -0.040 A 
HETATM   10  C   UNK N   1      -5.021  -0.079  -0.272  0.00  0.00     0.010 A 
HETATM   11  C   UNK N   1      -5.338  -1.295   0.344  0.00  0.00     0.016 A 
HETATM   12  C   UNK N   1      -4.484  -2.402   0.214  0.00  0.00     0.007 A 
HETATM   13  C   UNK N   1      -3.306  -2.275  -0.534  0.00  0.00     0.016 A 
HETATM   14  C   UNK N   1      -2.994  -1.065  -1.155  0.00  0.00     0.010 A 
BRANCH  12  15
HETATM   15  C   UNK N   1      -4.836  -3.694   0.841  0.00  0.00     0.102 C 
HETATM   16  N   UNK N   1      -4.058  -4.707   0.722  0.00  0.00    -0.385 N 
HETATM   17  H   UNK N   1      -4.432  -5.612   0.631  0.00  0.00     0.157 HD
ATOM     18  HN  UNK N   1      -3.047  -4.573   0.722  1.00  0.00     0.157 HD
BRANCH  15  19
HETATM   19  N   UNK N   1      -6.058  -3.836   1.538  0.00  0.00    -0.385 N 
HETATM   20  H   UNK N   1      -6.569  -3.149   2.023  0.00  0.00     0.157 HD
HETATM   21  H   UNK N   1      -6.448  -4.740   1.538  0.00  0.00     0.157 HD
ENDBRANCH  15  19
ENDBRANCH  12  15
ENDBRANCH   8   9
ENDBRANCH   1   8
BRANCH   5  22
HETATM   22  S   UNK N   1       1.309   0.896   1.085  0.00  0.00     0.250 S 
HETATM   23  O   UNK N   1       0.590  -0.453   1.260  0.00  0.00    -0.205 OA
HETATM   24  O   UNK N   1       1.063   1.593   2.434  0.00  0.00    -0.205 OA
BRANCH  22  25
HETATM   25  C   UNK N   1       3.043   0.780   0.724  0.00  0.00     0.116 A 
HETATM   26  C   UNK N   1       3.885  -0.332   0.883  0.00  0.00     0.045 A 
HETATM   27  C   UNK N   1       5.228  -0.016   0.533  0.00  0.00    -0.017 A 
HETATM   28  C   UNK N   1       5.410   1.301   0.116  0.00  0.00     0.018 A 
HETATM   29  C   UNK N   1       6.319  -0.881   0.595  0.00  0.00     0.014 A 
HETATM   30  S   UNK N   1       3.952   2.053   0.174  0.00  0.00    -0.076 SA
HETATM   31  C   UNK N   1       6.647   1.813  -0.240  0.00  0.00     0.043 A 
HETATM   32  C   UNK N   1       7.752   0.954  -0.173  0.00  0.00     0.035 A 
HETATM   33 Cl   UNK N   1       9.340   1.562  -0.580  0.00  0.00    -0.084 Cl
HETATM   34  C   UNK N   1       7.590  -0.387   0.240  0.00  0.00     0.024 A 
ENDBRANCH  22  25
ENDBRANCH   5  22
TORSDOF 6
