REMARK  5 active torsions:
REMARK  status: ('A' for Active; 'I' for Inactive)
REMARK    1  A    between atoms: C_13  and  N_14 
REMARK       I    between atoms: N_14  and  C_15 
REMARK    2  A    between atoms: C_15  and  C_17 
REMARK    3  A    between atoms: C_17  and  O_18 
REMARK    4  A    between atoms: C_17  and  C_22 
REMARK    5  A    between atoms: O_18  and  C_19 
ROOT
HETATM    1  N   UNK N   1      -0.437   0.085  -0.086  0.00  0.00    -0.324 N 
HETATM    2  C   UNK N   1      -0.258  -1.161  -0.574  0.00  0.00     0.256 C 
HETATM    3  O   UNK N   1      -1.208  -1.848  -0.924  0.00  0.00    -0.270 OA
HETATM    4  H   UNK N   1       0.365   0.519   0.285  0.00  0.00     0.169 HD
ENDROOT
BRANCH   1   5
HETATM    5  C   UNK N   1      -1.628   0.849  -0.037  0.00  0.00     0.050 A 
HETATM    6  C   UNK N   1      -1.498   2.250   0.030  0.00  0.00     0.062 A 
HETATM    7  C   UNK N   1      -2.631   3.066  -0.101  0.00  0.00     0.049 A 
HETATM    8  C   UNK N   1      -0.167   2.908   0.175  0.00  0.00     0.253 A 
HETATM    9  C   UNK N   1      -2.467   4.544  -0.136  0.00  0.00     0.259 A 
HETATM   10  C   UNK N   1      -3.898   2.480  -0.248  0.00  0.00     0.018 A 
HETATM   11  O   UNK N   1      -3.439   5.264  -0.287  0.00  0.00    -0.267 OA
HETATM   12  N   UNK N   1      -1.230   5.110  -0.032  0.00  0.00    -0.286 N 
HETATM   13  C   UNK N   1      -0.102   4.377   0.121  0.00  0.00     0.299 A 
HETATM   14  H   UNK N   1      -1.154   6.090  -0.069  0.00  0.00     0.172 HD
HETATM   15  O   UNK N   1       0.981   4.939   0.211  0.00  0.00    -0.264 OA
HETATM   16  C   UNK N   1      -4.032   1.089  -0.276  0.00  0.00     0.003 A 
HETATM   17  C   UNK N   1      -2.899   0.274  -0.198  0.00  0.00     0.030 A 
HETATM   18  O   UNK N   1       0.854   2.261   0.344  0.00  0.00    -0.281 OA
ENDBRANCH   1   5
BRANCH   2  19
HETATM   19  C   UNK N   1       1.156  -1.607  -0.861  0.00  0.00     0.257 C 
BRANCH  19  20
HETATM   20  O   UNK N   1       2.047  -0.568  -0.581  0.00  0.00    -0.302 OA
BRANCH  20  21
HETATM   21  C   UNK N   1       3.014  -0.555   0.368  0.00  0.00     0.255 C 
HETATM   22  O   UNK N   1       2.726  -0.396   1.543  0.00  0.00    -0.266 OA
HETATM   23  C   UNK N   1       4.444  -0.609  -0.044  0.00  0.00     0.126 C 
ENDBRANCH  20  21
ENDBRANCH  19  20
BRANCH  19  24
HETATM   24  C   UNK N   1       1.555  -2.942  -0.270  0.00  0.00    -0.020 A 
HETATM   25  C   UNK N   1       2.779  -3.509  -0.657  0.00  0.00     0.010 A 
HETATM   26  C   UNK N   1       3.153  -4.771  -0.196  0.00  0.00     0.001 A 
HETATM   27  C   UNK N   1       2.302  -5.482   0.653  0.00  0.00     0.000 A 
HETATM   28  C   UNK N   1       1.081  -4.927   1.046  0.00  0.00     0.001 A 
HETATM   29  C   UNK N   1       0.705  -3.662   0.584  0.00  0.00     0.010 A 
ENDBRANCH  19  24
ENDBRANCH   2  19
TORSDOF 5
