MODEL 1
REMARK VINA RESULT:      -8.2      0.000      0.000
REMARK  5 active torsions:
REMARK  status: ('A' for Active; 'I' for Inactive)
REMARK    1  A    between atoms: C_13  and  N_14 
REMARK       I    between atoms: N_14  and  C_15 
REMARK    2  A    between atoms: C_15  and  C_17 
REMARK    3  A    between atoms: C_17  and  O_18 
REMARK    4  A    between atoms: C_17  and  C_22 
REMARK    5  A    between atoms: O_18  and  C_19 
ROOT
HETATM    1  N   UNK N   1      28.172  22.545  -6.188  0.00  0.00    -0.324 N 
HETATM    2  C   UNK N   1      27.775  23.619  -6.903  0.00  0.00     0.256 C 
HETATM    3  O   UNK N   1      28.516  24.145  -7.723  0.00  0.00    -0.270 OA
HETATM    4  H   UNK N   1      27.564  22.262  -5.467  0.00  0.00     0.169 HD
ENDROOT
BRANCH   1   5
HETATM    5  C   UNK N   1      29.348  21.772  -6.339  0.00  0.00     0.050 A 
HETATM    6  C   UNK N   1      30.220  21.695  -5.235  0.00  0.00     0.062 A 
HETATM    7  C   UNK N   1      31.304  20.806  -5.259  0.00  0.00     0.049 A 
HETATM    8  C   UNK N   1      29.990  22.495  -3.997  0.00  0.00     0.253 A 
HETATM    9  C   UNK N   1      32.153  20.656  -4.047  0.00  0.00     0.259 A 
HETATM   10  C   UNK N   1      31.544  20.031  -6.405  0.00  0.00     0.018 A 
HETATM   11  O   UNK N   1      33.076  19.859  -4.041  0.00  0.00    -0.267 OA
HETATM   12  N   UNK N   1      31.894  21.381  -2.921  0.00  0.00    -0.286 N 
HETATM   13  C   UNK N   1      30.878  22.273  -2.844  0.00  0.00     0.299 A 
HETATM   14  H   UNK N   1      32.467  21.252  -2.132  0.00  0.00     0.172 HD
HETATM   15  O   UNK N   1      30.693  22.898  -1.809  0.00  0.00    -0.264 OA
HETATM   16  C   UNK N   1      30.702  20.136  -7.515  0.00  0.00     0.003 A 
HETATM   17  C   UNK N   1      29.591  20.983  -7.475  0.00  0.00     0.030 A 
HETATM   18  O   UNK N   1      29.097  23.324  -3.924  0.00  0.00    -0.281 OA
ENDBRANCH   1   5
BRANCH   2  19
HETATM   19  C   UNK N   1      26.325  24.031  -6.807  0.00  0.00     0.257 C 
BRANCH  19  20
HETATM   20  O   UNK N   1      25.522  22.902  -6.633  0.00  0.00    -0.302 OA
BRANCH  20  21
HETATM   21  C   UNK N   1      24.979  22.128  -7.605  0.00  0.00     0.255 C 
HETATM   22  O   UNK N   1      23.973  22.489  -8.194  0.00  0.00    -0.266 OA
HETATM   23  C   UNK N   1      25.544  20.775  -7.863  0.00  0.00     0.126 C 
ENDBRANCH  20  21
ENDBRANCH  19  20
BRANCH  19  24
HETATM   24  C   UNK N   1      26.027  25.158  -5.841  0.00  0.00    -0.020 A 
HETATM   25  C   UNK N   1      25.362  26.296  -6.323  0.00  0.00     0.010 A 
HETATM   26  C   UNK N   1      25.132  27.390  -5.488  0.00  0.00     0.001 A 
HETATM   27  C   UNK N   1      25.573  27.358  -4.163  0.00  0.00     0.000 A 
HETATM   28  C   UNK N   1      26.235  26.229  -3.672  0.00  0.00     0.001 A 
HETATM   29  C   UNK N   1      26.466  25.133  -4.508  0.00  0.00     0.010 A 
ENDBRANCH  19  24
ENDBRANCH   2  19
TORSDOF 5
ENDMDL
MODEL 2
REMARK VINA RESULT:      -7.8     14.674     16.435
REMARK  5 active torsions:
REMARK  status: ('A' for Active; 'I' for Inactive)
REMARK    1  A    between atoms: C_13  and  N_14 
REMARK       I    between atoms: N_14  and  C_15 
REMARK    2  A    between atoms: C_15  and  C_17 
REMARK    3  A    between atoms: C_17  and  O_18 
REMARK    4  A    between atoms: C_17  and  C_22 
REMARK    5  A    between atoms: O_18  and  C_19 
ROOT
HETATM    1  N   UNK N   1      21.236  15.698   5.503  0.00  0.00    -0.324 N 
HETATM    2  C   UNK N   1      20.607  15.259   6.615  0.00  0.00     0.256 C 
HETATM    3  O   UNK N   1      19.555  14.638   6.546  0.00  0.00    -0.270 OA
HETATM    4  H   UNK N   1      22.006  16.292   5.653  0.00  0.00     0.169 HD
ENDROOT
BRANCH   1   5
HETATM    5  C   UNK N   1      20.931  15.415   4.150  0.00  0.00     0.050 A 
HETATM    6  C   UNK N   1      20.662  16.508   3.303  0.00  0.00     0.062 A 
HETATM    7  C   UNK N   1      20.532  16.309   1.921  0.00  0.00     0.049 A 
HETATM    8  C   UNK N   1      20.570  17.902   3.827  0.00  0.00     0.253 A 
HETATM    9  C   UNK N   1      20.355  17.484   1.027  0.00  0.00     0.259 A 
HETATM   10  C   UNK N   1      20.622  15.012   1.393  0.00  0.00     0.018 A 
HETATM   11  O   UNK N   1      20.279  17.329  -0.180  0.00  0.00    -0.267 OA
HETATM   12  N   UNK N   1      20.307  18.748   1.539  0.00  0.00    -0.286 N 
HETATM   13  C   UNK N   1      20.401  19.003   2.866  0.00  0.00     0.299 A 
HETATM   14  H   UNK N   1      20.199  19.505   0.920  0.00  0.00     0.172 HD
HETATM   15  O   UNK N   1      20.350  20.157   3.269  0.00  0.00    -0.264 OA
HETATM   16  C   UNK N   1      20.851  13.922   2.238  0.00  0.00     0.003 A 
HETATM   17  C   UNK N   1      21.033  14.123   3.609  0.00  0.00     0.030 A 
HETATM   18  O   UNK N   1      20.623  18.143   5.023  0.00  0.00    -0.281 OA
ENDBRANCH   1   5
BRANCH   2  19
HETATM   19  C   UNK N   1      21.337  15.384   7.931  0.00  0.00     0.257 C 
BRANCH  19  20
HETATM   20  O   UNK N   1      20.579  16.146   8.823  0.00  0.00    -0.302 OA
BRANCH  20  21
HETATM   21  C   UNK N   1      19.841  17.246   8.536  0.00  0.00     0.255 C 
HETATM   22  O   UNK N   1      20.384  18.288   8.210  0.00  0.00    -0.266 OA
HETATM   23  C   UNK N   1      18.366  17.211   8.743  0.00  0.00     0.126 C 
ENDBRANCH  20  21
ENDBRANCH  19  20
BRANCH  19  24
HETATM   24  C   UNK N   1      21.865  14.091   8.513  0.00  0.00    -0.020 A 
HETATM   25  C   UNK N   1      21.492  13.742   9.820  0.00  0.00     0.010 A 
HETATM   26  C   UNK N   1      22.014  12.598  10.424  0.00  0.00     0.001 A 
HETATM   27  C   UNK N   1      22.919  11.794   9.728  0.00  0.00     0.000 A 
HETATM   28  C   UNK N   1      23.296  12.131   8.425  0.00  0.00     0.001 A 
HETATM   29  C   UNK N   1      22.774  13.278   7.819  0.00  0.00     0.010 A 
ENDBRANCH  19  24
ENDBRANCH   2  19
TORSDOF 5
ENDMDL
MODEL 3
REMARK VINA RESULT:      -7.5      2.352      4.551
REMARK  5 active torsions:
REMARK  status: ('A' for Active; 'I' for Inactive)
REMARK    1  A    between atoms: C_13  and  N_14 
REMARK       I    between atoms: N_14  and  C_15 
REMARK    2  A    between atoms: C_15  and  C_17 
REMARK    3  A    between atoms: C_17  and  O_18 
REMARK    4  A    between atoms: C_17  and  C_22 
REMARK    5  A    between atoms: O_18  and  C_19 
ROOT
HETATM    1  N   UNK N   1      28.202  24.462  -4.759  0.00  0.00    -0.324 N 
HETATM    2  C   UNK N   1      26.986  24.888  -4.359  0.00  0.00     0.256 C 
HETATM    3  O   UNK N   1      26.408  24.364  -3.416  0.00  0.00    -0.270 OA
HETATM    4  H   UNK N   1      28.539  24.855  -5.597  0.00  0.00     0.169 HD
ENDROOT
BRANCH   1   5
HETATM    5  C   UNK N   1      29.058  23.524  -4.133  0.00  0.00     0.050 A 
HETATM    6  C   UNK N   1      29.498  22.431  -4.904  0.00  0.00     0.062 A 
HETATM    7  C   UNK N   1      30.484  21.570  -4.401  0.00  0.00     0.049 A 
HETATM    8  C   UNK N   1      28.989  22.190  -6.285  0.00  0.00     0.253 A 
HETATM    9  C   UNK N   1      31.018  20.484  -5.266  0.00  0.00     0.259 A 
HETATM   10  C   UNK N   1      30.992  21.774  -3.108  0.00  0.00     0.018 A 
HETATM   11  O   UNK N   1      31.901  19.753  -4.855  0.00  0.00    -0.267 OA
HETATM   12  N   UNK N   1      30.550  20.313  -6.536  0.00  0.00    -0.286 N 
HETATM   13  C   UNK N   1      29.582  21.095  -7.070  0.00  0.00     0.299 A 
HETATM   14  H   UNK N   1      30.930  19.592  -7.087  0.00  0.00     0.172 HD
HETATM   15  O   UNK N   1      29.199  20.894  -8.214  0.00  0.00    -0.264 OA
HETATM   16  C   UNK N   1      30.528  22.836  -2.327  0.00  0.00     0.003 A 
HETATM   17  C   UNK N   1      29.583  23.726  -2.846  0.00  0.00     0.030 A 
HETATM   18  O   UNK N   1      28.096  22.868  -6.768  0.00  0.00    -0.281 OA
ENDBRANCH   1   5
BRANCH   2  19
HETATM   19  C   UNK N   1      26.445  26.155  -4.978  0.00  0.00     0.257 C 
BRANCH  19  20
HETATM   20  O   UNK N   1      26.961  27.268  -4.308  0.00  0.00    -0.302 OA
BRANCH  20  21
HETATM   21  C   UNK N   1      26.266  28.183  -3.590  0.00  0.00     0.255 C 
HETATM   22  O   UNK N   1      25.446  27.825  -2.760  0.00  0.00    -0.266 OA
HETATM   23  C   UNK N   1      26.417  29.630  -3.907  0.00  0.00     0.126 C 
ENDBRANCH  20  21
ENDBRANCH  19  20
BRANCH  19  24
HETATM   24  C   UNK N   1      26.541  26.240  -6.486  0.00  0.00    -0.020 A 
HETATM   25  C   UNK N   1      25.730  25.396  -7.259  0.00  0.00     0.010 A 
HETATM   26  C   UNK N   1      25.838  25.387  -8.650  0.00  0.00     0.001 A 
HETATM   27  C   UNK N   1      26.765  26.220  -9.281  0.00  0.00     0.000 A 
HETATM   28  C   UNK N   1      27.577  27.066  -8.521  0.00  0.00     0.001 A 
HETATM   29  C   UNK N   1      27.470  27.075  -7.127  0.00  0.00     0.010 A 
ENDBRANCH  19  24
ENDBRANCH   2  19
TORSDOF 5
ENDMDL
MODEL 4
REMARK VINA RESULT:      -7.4     10.398     12.295
REMARK  5 active torsions:
REMARK  status: ('A' for Active; 'I' for Inactive)
REMARK    1  A    between atoms: C_13  and  N_14 
REMARK       I    between atoms: N_14  and  C_15 
REMARK    2  A    between atoms: C_15  and  C_17 
REMARK    3  A    between atoms: C_17  and  O_18 
REMARK    4  A    between atoms: C_17  and  C_22 
REMARK    5  A    between atoms: O_18  and  C_19 
ROOT
HETATM    1  N   UNK N   1      28.711  17.080   5.812  0.00  0.00    -0.324 N 
HETATM    2  C   UNK N   1      27.855  18.024   5.365  0.00  0.00     0.256 C 
HETATM    3  O   UNK N   1      27.854  19.154   5.836  0.00  0.00    -0.270 OA
HETATM    4  H   UNK N   1      28.562  16.170   5.468  0.00  0.00     0.169 HD
ENDROOT
BRANCH   1   5
HETATM    5  C   UNK N   1      29.794  17.229   6.711  0.00  0.00     0.050 A 
HETATM    6  C   UNK N   1      31.095  17.198   6.171  0.00  0.00     0.062 A 
HETATM    7  C   UNK N   1      32.196  17.518   6.977  0.00  0.00     0.049 A 
HETATM    8  C   UNK N   1      31.339  16.894   4.731  0.00  0.00     0.253 A 
HETATM    9  C   UNK N   1      33.552  17.587   6.369  0.00  0.00     0.259 A 
HETATM   10  C   UNK N   1      32.002  17.819   8.335  0.00  0.00     0.018 A 
HETATM   11  O   UNK N   1      34.513  17.901   7.051  0.00  0.00    -0.267 OA
HETATM   12  N   UNK N   1      33.733  17.333   5.041  0.00  0.00    -0.286 N 
HETATM   13  C   UNK N   1      32.714  16.995   4.217  0.00  0.00     0.299 A 
HETATM   14  H   UNK N   1      34.641  17.397   4.667  0.00  0.00     0.172 HD
HETATM   15  O   UNK N   1      32.936  16.776   3.034  0.00  0.00    -0.264 OA
HETATM   16  C   UNK N   1      30.715  17.811   8.880  0.00  0.00     0.003 A 
HETATM   17  C   UNK N   1      29.610  17.544   8.067  0.00  0.00     0.030 A 
HETATM   18  O   UNK N   1      30.435  16.558   3.983  0.00  0.00    -0.281 OA
ENDBRANCH   1   5
BRANCH   2  19
HETATM   19  C   UNK N   1      27.036  17.706   4.137  0.00  0.00     0.257 C 
BRANCH  19  20
HETATM   20  O   UNK N   1      26.631  16.369   4.170  0.00  0.00    -0.302 OA
BRANCH  20  21
HETATM   21  C   UNK N   1      27.010  15.381   3.324  0.00  0.00     0.255 C 
HETATM   22  O   UNK N   1      27.900  14.606   3.636  0.00  0.00    -0.266 OA
HETATM   23  C   UNK N   1      26.421  15.321   1.958  0.00  0.00     0.126 C 
ENDBRANCH  20  21
ENDBRANCH  19  20
BRANCH  19  24
HETATM   24  C   UNK N   1      25.925  18.683   3.819  0.00  0.00    -0.020 A 
HETATM   25  C   UNK N   1      24.608  18.335   4.157  0.00  0.00     0.010 A 
HETATM   26  C   UNK N   1      23.544  19.170   3.816  0.00  0.00     0.001 A 
HETATM   27  C   UNK N   1      23.787  20.360   3.126  0.00  0.00     0.000 A 
HETATM   28  C   UNK N   1      25.095  20.718   2.785  0.00  0.00     0.001 A 
HETATM   29  C   UNK N   1      26.162  19.881   3.126  0.00  0.00     0.010 A 
ENDBRANCH  19  24
ENDBRANCH   2  19
TORSDOF 5
ENDMDL
MODEL 5
REMARK VINA RESULT:      -7.4     14.009     17.233
REMARK  5 active torsions:
REMARK  status: ('A' for Active; 'I' for Inactive)
REMARK    1  A    between atoms: C_13  and  N_14 
REMARK       I    between atoms: N_14  and  C_15 
REMARK    2  A    between atoms: C_15  and  C_17 
REMARK    3  A    between atoms: C_17  and  O_18 
REMARK    4  A    between atoms: C_17  and  C_22 
REMARK    5  A    between atoms: O_18  and  C_19 
ROOT
HETATM    1  N   UNK N   1      33.190  16.020   9.403  0.00  0.00    -0.324 N 
HETATM    2  C   UNK N   1      33.364  17.186   8.745  0.00  0.00     0.256 C 
HETATM    3  O   UNK N   1      34.372  17.860   8.905  0.00  0.00    -0.270 OA
HETATM    4  H   UNK N   1      32.301  15.605   9.311  0.00  0.00     0.169 HD
ENDROOT
BRANCH   1   5
HETATM    5  C   UNK N   1      34.117  15.316  10.209  0.00  0.00     0.050 A 
HETATM    6  C   UNK N   1      34.238  13.929   9.998  0.00  0.00     0.062 A 
HETATM    7  C   UNK N   1      35.261  13.210  10.633  0.00  0.00     0.049 A 
HETATM    8  C   UNK N   1      33.340  13.197   9.058  0.00  0.00     0.253 A 
HETATM    9  C   UNK N   1      35.445  11.768  10.319  0.00  0.00     0.259 A 
HETATM   10  C   UNK N   1      36.130  13.869  11.517  0.00  0.00     0.018 A 
HETATM   11  O   UNK N   1      36.353  11.140  10.835  0.00  0.00    -0.267 OA
HETATM   12  N   UNK N   1      34.623  11.139   9.430  0.00  0.00    -0.286 N 
HETATM   13  C   UNK N   1      33.604  11.772   8.803  0.00  0.00     0.299 A 
HETATM   14  H   UNK N   1      34.777  10.187   9.236  0.00  0.00     0.172 HD
HETATM   15  O   UNK N   1      32.897  11.157   8.016  0.00  0.00    -0.264 OA
HETATM   16  C   UNK N   1      35.986  15.239  11.756  0.00  0.00     0.003 A 
HETATM   17  C   UNK N   1      35.000  15.968  11.085  0.00  0.00     0.030 A 
HETATM   18  O   UNK N   1      32.399  13.748   8.510  0.00  0.00    -0.281 OA
ENDBRANCH   1   5
BRANCH   2  19
HETATM   19  C   UNK N   1      32.373  17.535   7.660  0.00  0.00     0.257 C 
BRANCH  19  20
HETATM   20  O   UNK N   1      32.553  16.689   6.563  0.00  0.00    -0.302 OA
BRANCH  20  21
HETATM   21  C   UNK N   1      33.386  16.880   5.512  0.00  0.00     0.255 C 
HETATM   22  O   UNK N   1      34.563  16.570   5.590  0.00  0.00    -0.266 OA
HETATM   23  C   UNK N   1      32.885  17.589   4.302  0.00  0.00     0.126 C 
ENDBRANCH  20  21
ENDBRANCH  19  20
BRANCH  19  24
HETATM   24  C   UNK N   1      30.934  17.674   8.106  0.00  0.00    -0.020 A 
HETATM   25  C   UNK N   1      29.930  17.069   7.335  0.00  0.00     0.010 A 
HETATM   26  C   UNK N   1      28.585  17.233   7.666  0.00  0.00     0.001 A 
HETATM   27  C   UNK N   1      28.231  18.011   8.770  0.00  0.00     0.000 A 
HETATM   28  C   UNK N   1      29.222  18.618   9.547  0.00  0.00     0.001 A 
HETATM   29  C   UNK N   1      30.570  18.454   9.215  0.00  0.00     0.010 A 
ENDBRANCH  19  24
ENDBRANCH   2  19
TORSDOF 5
ENDMDL
MODEL 6
REMARK VINA RESULT:      -7.2     15.775     17.313
REMARK  5 active torsions:
REMARK  status: ('A' for Active; 'I' for Inactive)
REMARK    1  A    between atoms: C_13  and  N_14 
REMARK       I    between atoms: N_14  and  C_15 
REMARK    2  A    between atoms: C_15  and  C_17 
REMARK    3  A    between atoms: C_17  and  O_18 
REMARK    4  A    between atoms: C_17  and  C_22 
REMARK    5  A    between atoms: O_18  and  C_19 
ROOT
HETATM    1  N   UNK N   1      21.904  14.061   6.331  0.00  0.00    -0.324 N 
HETATM    2  C   UNK N   1      21.160  13.454   7.280  0.00  0.00     0.256 C 
HETATM    3  O   UNK N   1      20.673  12.348   7.094  0.00  0.00    -0.270 OA
HETATM    4  H   UNK N   1      22.153  14.996   6.514  0.00  0.00     0.169 HD
ENDROOT
BRANCH   1   5
HETATM    5  C   UNK N   1      22.372  13.529   5.105  0.00  0.00     0.050 A 
HETATM    6  C   UNK N   1      21.968  14.176   3.921  0.00  0.00     0.062 A 
HETATM    7  C   UNK N   1      22.540  13.811   2.693  0.00  0.00     0.049 A 
HETATM    8  C   UNK N   1      20.984  15.297   3.936  0.00  0.00     0.253 A 
HETATM    9  C   UNK N   1      22.185  14.573   1.466  0.00  0.00     0.259 A 
HETATM   10  C   UNK N   1      23.476  12.766   2.644  0.00  0.00     0.018 A 
HETATM   11  O   UNK N   1      22.702  14.291   0.399  0.00  0.00    -0.267 OA
HETATM   12  N   UNK N   1      21.304  15.614   1.524  0.00  0.00    -0.286 N 
HETATM   13  C   UNK N   1      20.701  15.998   2.673  0.00  0.00     0.299 A 
HETATM   14  H   UNK N   1      21.098  16.104   0.696  0.00  0.00     0.172 HD
HETATM   15  O   UNK N   1      19.918  16.938   2.665  0.00  0.00    -0.264 OA
HETATM   16  C   UNK N   1      23.848  12.098   3.814  0.00  0.00     0.003 A 
HETATM   17  C   UNK N   1      23.319  12.494   5.046  0.00  0.00     0.030 A 
HETATM   18  O   UNK N   1      20.411  15.634   4.959  0.00  0.00    -0.281 OA
ENDBRANCH   1   5
BRANCH   2  19
HETATM   19  C   UNK N   1      21.112  14.091   8.649  0.00  0.00     0.257 C 
BRANCH  19  20
HETATM   20  O   UNK N   1      19.801  14.470   8.950  0.00  0.00    -0.302 OA
BRANCH  20  21
HETATM   21  C   UNK N   1      19.310  15.730   9.014  0.00  0.00     0.255 C 
HETATM   22  O   UNK N   1      18.156  15.928   9.358  0.00  0.00    -0.266 OA
HETATM   23  C   UNK N   1      20.147  16.867   8.541  0.00  0.00     0.126 C 
ENDBRANCH  20  21
ENDBRANCH  19  20
BRANCH  19  24
HETATM   24  C   UNK N   1      21.805  13.323   9.754  0.00  0.00    -0.020 A 
HETATM   25  C   UNK N   1      23.198  13.169   9.693  0.00  0.00     0.010 A 
HETATM   26  C   UNK N   1      23.870  12.407  10.649  0.00  0.00     0.001 A 
HETATM   27  C   UNK N   1      23.152  11.785  11.673  0.00  0.00     0.000 A 
HETATM   28  C   UNK N   1      21.764  11.932  11.744  0.00  0.00     0.001 A 
HETATM   29  C   UNK N   1      21.090  12.696  10.786  0.00  0.00     0.010 A 
ENDBRANCH  19  24
ENDBRANCH   2  19
TORSDOF 5
ENDMDL
MODEL 7
REMARK VINA RESULT:      -7.2     15.305     16.756
REMARK  5 active torsions:
REMARK  status: ('A' for Active; 'I' for Inactive)
REMARK    1  A    between atoms: C_13  and  N_14 
REMARK       I    between atoms: N_14  and  C_15 
REMARK    2  A    between atoms: C_15  and  C_17 
REMARK    3  A    between atoms: C_17  and  O_18 
REMARK    4  A    between atoms: C_17  and  C_22 
REMARK    5  A    between atoms: O_18  and  C_19 
ROOT
HETATM    1  N   UNK N   1      20.762  15.652   6.168  0.00  0.00    -0.324 N 
HETATM    2  C   UNK N   1      20.375  14.705   7.049  0.00  0.00     0.256 C 
HETATM    3  O   UNK N   1      20.041  13.589   6.675  0.00  0.00    -0.270 OA
HETATM    4  H   UNK N   1      20.894  16.554   6.540  0.00  0.00     0.169 HD
ENDROOT
BRANCH   1   5
HETATM    5  C   UNK N   1      21.002  15.518   4.780  0.00  0.00     0.050 A 
HETATM    6  C   UNK N   1      22.343  15.443   4.357  0.00  0.00     0.062 A 
HETATM    7  C   UNK N   1      22.641  15.129   3.023  0.00  0.00     0.049 A 
HETATM    8  C   UNK N   1      23.477  15.626   5.309  0.00  0.00     0.253 A 
HETATM    9  C   UNK N   1      24.060  14.948   2.614  0.00  0.00     0.259 A 
HETATM   10  C   UNK N   1      21.598  14.942   2.102  0.00  0.00     0.018 A 
HETATM   11  O   UNK N   1      24.331  14.638   1.466  0.00  0.00    -0.267 OA
HETATM   12  N   UNK N   1      25.070  15.092   3.520  0.00  0.00    -0.286 N 
HETATM   13  C   UNK N   1      24.847  15.418   4.815  0.00  0.00     0.299 A 
HETATM   14  H   UNK N   1      25.996  14.955   3.221  0.00  0.00     0.172 HD
HETATM   15  O   UNK N   1      25.792  15.536   5.583  0.00  0.00    -0.264 OA
HETATM   16  C   UNK N   1      20.267  15.054   2.512  0.00  0.00     0.003 A 
HETATM   17  C   UNK N   1      19.967  15.315   3.853  0.00  0.00     0.030 A 
HETATM   18  O   UNK N   1      23.293  15.949   6.472  0.00  0.00    -0.281 OA
ENDBRANCH   1   5
BRANCH   2  19
HETATM   19  C   UNK N   1      20.554  14.997   8.520  0.00  0.00     0.257 C 
BRANCH  19  20
HETATM   20  O   UNK N   1      19.341  15.416   9.072  0.00  0.00    -0.302 OA
BRANCH  20  21
HETATM   21  C   UNK N   1      18.726  16.609   8.881  0.00  0.00     0.255 C 
HETATM   22  O   UNK N   1      17.563  16.654   8.514  0.00  0.00    -0.266 OA
HETATM   23  C   UNK N   1      19.515  17.866   8.999  0.00  0.00     0.126 C 
ENDBRANCH  20  21
ENDBRANCH  19  20
BRANCH  19  24
HETATM   24  C   UNK N   1      21.261  13.924   9.320  0.00  0.00    -0.020 A 
HETATM   25  C   UNK N   1      20.542  13.244  10.314  0.00  0.00     0.010 A 
HETATM   26  C   UNK N   1      21.172  12.301  11.125  0.00  0.00     0.001 A 
HETATM   27  C   UNK N   1      22.532  12.034  10.954  0.00  0.00     0.000 A 
HETATM   28  C   UNK N   1      23.259  12.705   9.967  0.00  0.00     0.001 A 
HETATM   29  C   UNK N   1      22.628  13.651   9.153  0.00  0.00     0.010 A 
ENDBRANCH  19  24
ENDBRANCH   2  19
TORSDOF 5
ENDMDL
MODEL 8
REMARK VINA RESULT:      -7.1     14.498     15.842
REMARK  5 active torsions:
REMARK  status: ('A' for Active; 'I' for Inactive)
REMARK    1  A    between atoms: C_13  and  N_14 
REMARK       I    between atoms: N_14  and  C_15 
REMARK    2  A    between atoms: C_15  and  C_17 
REMARK    3  A    between atoms: C_17  and  O_18 
REMARK    4  A    between atoms: C_17  and  C_22 
REMARK    5  A    between atoms: O_18  and  C_19 
ROOT
HETATM    1  N   UNK N   1      22.260  15.442   5.908  0.00  0.00    -0.324 N 
HETATM    2  C   UNK N   1      22.531  16.593   5.256  0.00  0.00     0.256 C 
HETATM    3  O   UNK N   1      23.499  17.279   5.554  0.00  0.00    -0.270 OA
HETATM    4  H   UNK N   1      21.399  15.018   5.689  0.00  0.00     0.169 HD
ENDROOT
BRANCH   1   5
HETATM    5  C   UNK N   1      23.053  14.766   6.867  0.00  0.00     0.050 A 
HETATM    6  C   UNK N   1      22.417  14.338   8.049  0.00  0.00     0.062 A 
HETATM    7  C   UNK N   1      23.099  13.509   8.951  0.00  0.00     0.049 A 
HETATM    8  C   UNK N   1      20.998  14.691   8.348  0.00  0.00     0.253 A 
HETATM    9  C   UNK N   1      22.382  12.978  10.141  0.00  0.00     0.259 A 
HETATM   10  C   UNK N   1      24.432  13.151   8.696  0.00  0.00     0.018 A 
HETATM   11  O   UNK N   1      22.952  12.226  10.914  0.00  0.00    -0.267 OA
HETATM   12  N   UNK N   1      21.074  13.296  10.366  0.00  0.00    -0.286 N 
HETATM   13  C   UNK N   1      20.370  14.111   9.545  0.00  0.00     0.299 A 
HETATM   14  H   UNK N   1      20.625  12.920  11.156  0.00  0.00     0.172 HD
HETATM   15  O   UNK N   1      19.200  14.363   9.798  0.00  0.00    -0.264 OA
HETATM   16  C   UNK N   1      25.076  13.607   7.543  0.00  0.00     0.003 A 
HETATM   17  C   UNK N   1      24.382  14.390   6.616  0.00  0.00     0.030 A 
HETATM   18  O   UNK N   1      20.360  15.447   7.634  0.00  0.00    -0.281 OA
ENDBRANCH   1   5
BRANCH   2  19
HETATM   19  C   UNK N   1      21.722  16.908   4.020  0.00  0.00     0.257 C 
BRANCH  19  20
HETATM   20  O   UNK N   1      22.015  18.200   3.578  0.00  0.00    -0.302 OA
BRANCH  20  21
HETATM   21  C   UNK N   1      21.144  19.224   3.414  0.00  0.00     0.255 C 
HETATM   22  O   UNK N   1      20.802  19.905   4.367  0.00  0.00    -0.266 OA
HETATM   23  C   UNK N   1      20.506  19.436   2.084  0.00  0.00     0.126 C 
ENDBRANCH  20  21
ENDBRANCH  19  20
BRANCH  19  24
HETATM   24  C   UNK N   1      21.753  15.857   2.931  0.00  0.00    -0.020 A 
HETATM   25  C   UNK N   1      22.975  15.234   2.633  0.00  0.00     0.010 A 
HETATM   26  C   UNK N   1      23.066  14.316   1.588  0.00  0.00     0.001 A 
HETATM   27  C   UNK N   1      21.935  14.015   0.825  0.00  0.00     0.000 A 
HETATM   28  C   UNK N   1      20.713  14.628   1.113  0.00  0.00     0.001 A 
HETATM   29  C   UNK N   1      20.620  15.550   2.161  0.00  0.00     0.010 A 
ENDBRANCH  19  24
ENDBRANCH   2  19
TORSDOF 5
ENDMDL
MODEL 9
REMARK VINA RESULT:      -7.1     13.790     15.080
REMARK  5 active torsions:
REMARK  status: ('A' for Active; 'I' for Inactive)
REMARK    1  A    between atoms: C_13  and  N_14 
REMARK       I    between atoms: N_14  and  C_15 
REMARK    2  A    between atoms: C_15  and  C_17 
REMARK    3  A    between atoms: C_17  and  O_18 
REMARK    4  A    between atoms: C_17  and  C_22 
REMARK    5  A    between atoms: O_18  and  C_19 
ROOT
HETATM    1  N   UNK N   1      20.737  16.951   5.678  0.00  0.00    -0.324 N 
HETATM    2  C   UNK N   1      21.339  18.159   5.620  0.00  0.00     0.256 C 
HETATM    3  O   UNK N   1      21.612  18.781   6.638  0.00  0.00    -0.270 OA
HETATM    4  H   UNK N   1      20.443  16.577   4.816  0.00  0.00     0.169 HD
ENDROOT
BRANCH   1   5
HETATM    5  C   UNK N   1      20.473  16.153   6.817  0.00  0.00     0.050 A 
HETATM    6  C   UNK N   1      21.118  14.903   6.898  0.00  0.00     0.062 A 
HETATM    7  C   UNK N   1      21.041  14.149   8.077  0.00  0.00     0.049 A 
HETATM    8  C   UNK N   1      21.947  14.375   5.775  0.00  0.00     0.253 A 
HETATM    9  C   UNK N   1      21.814  12.883   8.187  0.00  0.00     0.259 A 
HETATM   10  C   UNK N   1      20.277  14.621   9.157  0.00  0.00     0.018 A 
HETATM   11  O   UNK N   1      21.785  12.237   9.221  0.00  0.00    -0.267 OA
HETATM   12  N   UNK N   1      22.586  12.446   7.151  0.00  0.00    -0.286 N 
HETATM   13  C   UNK N   1      22.682  13.117   5.979  0.00  0.00     0.299 A 
HETATM   14  H   UNK N   1      23.093  11.610   7.259  0.00  0.00     0.172 HD
HETATM   15  O   UNK N   1      23.389  12.677   5.082  0.00  0.00    -0.264 OA
HETATM   16  C   UNK N   1      19.606  15.843   9.063  0.00  0.00     0.003 A 
HETATM   17  C   UNK N   1      19.723  16.621   7.908  0.00  0.00     0.030 A 
HETATM   18  O   UNK N   1      22.018  14.953   4.702  0.00  0.00    -0.281 OA
ENDBRANCH   1   5
BRANCH   2  19
HETATM   19  C   UNK N   1      21.843  18.629   4.277  0.00  0.00     0.257 C 
BRANCH  19  20
HETATM   20  O   UNK N   1      21.154  19.780   3.888  0.00  0.00    -0.302 OA
BRANCH  20  21
HETATM   21  C   UNK N   1      20.316  19.912   2.831  0.00  0.00     0.255 C 
HETATM   22  O   UNK N   1      19.264  19.294   2.795  0.00  0.00    -0.266 OA
HETATM   23  C   UNK N   1      20.743  20.719   1.655  0.00  0.00     0.126 C 
ENDBRANCH  20  21
ENDBRANCH  19  20
BRANCH  19  24
HETATM   24  C   UNK N   1      23.347  18.730   4.140  0.00  0.00    -0.020 A 
HETATM   25  C   UNK N   1      23.889  19.856   3.501  0.00  0.00     0.010 A 
HETATM   26  C   UNK N   1      25.263  19.957   3.286  0.00  0.00     0.001 A 
HETATM   27  C   UNK N   1      26.110  18.928   3.704  0.00  0.00     0.000 A 
HETATM   28  C   UNK N   1      25.582  17.802   4.343  0.00  0.00     0.001 A 
HETATM   29  C   UNK N   1      24.204  17.700   4.558  0.00  0.00     0.010 A 
ENDBRANCH  19  24
ENDBRANCH   2  19
TORSDOF 5
ENDMDL
