MODEL 1
REMARK VINA RESULT:      -8.2      0.000      0.000
REMARK  5 active torsions:
REMARK  status: ('A' for Active; 'I' for Inactive)
REMARK    1  A    between atoms: C_13  and  N_14 
REMARK       I    between atoms: N_14  and  C_15 
REMARK    2  A    between atoms: C_15  and  C_17 
REMARK    3  A    between atoms: C_17  and  O_18 
REMARK    4  A    between atoms: C_17  and  C_22 
REMARK    5  A    between atoms: O_18  and  C_19 
ROOT
HETATM    1  N   UNK N   1      21.088  15.474   5.383  0.00  0.00    -0.324 N 
HETATM    2  C   UNK N   1      20.117  15.073   6.252  0.00  0.00     0.256 C 
HETATM    3  O   UNK N   1      19.150  14.444   5.851  0.00  0.00    -0.270 OA
HETATM    4  H   UNK N   1      21.884  15.906   5.770  0.00  0.00     0.169 HD
ENDROOT
BRANCH   1   5
HETATM    5  C   UNK N   1      21.059  15.324   3.962  0.00  0.00     0.050 A 
HETATM    6  C   UNK N   1      20.768  16.436   3.131  0.00  0.00     0.062 A 
HETATM    7  C   UNK N   1      20.698  16.261   1.733  0.00  0.00     0.049 A 
HETATM    8  C   UNK N   1      20.530  17.802   3.668  0.00  0.00     0.253 A 
HETATM    9  C   UNK N   1      20.383  17.419   0.856  0.00  0.00     0.259 A 
HETATM   10  C   UNK N   1      20.918  14.997   1.171  0.00  0.00     0.018 A 
HETATM   11  O   UNK N   1      20.310  17.266  -0.354  0.00  0.00    -0.267 OA
HETATM   12  N   UNK N   1      20.172  18.653   1.383  0.00  0.00    -0.286 N 
HETATM   13  C   UNK N   1      20.231  18.898   2.717  0.00  0.00     0.299 A 
HETATM   14  H   UNK N   1      19.968  19.398   0.774  0.00  0.00     0.172 HD
HETATM   15  O   UNK N   1      20.039  20.030   3.130  0.00  0.00    -0.264 OA
HETATM   16  C   UNK N   1      21.209  13.908   1.986  0.00  0.00     0.003 A 
HETATM   17  C   UNK N   1      21.274  14.068   3.367  0.00  0.00     0.030 A 
HETATM   18  O   UNK N   1      20.583  18.035   4.867  0.00  0.00    -0.281 OA
ENDBRANCH   1   5
BRANCH   2  19
HETATM   19  C   UNK N   1      20.262  15.438   7.721  0.00  0.00     0.257 C 
BRANCH  19  20
HETATM   20  O   UNK N   1      20.800  16.714   7.807  0.00  0.00    -0.302 OA
BRANCH  20  21
HETATM   21  C   UNK N   1      20.128  17.801   8.276  0.00  0.00     0.255 C 
HETATM   22  O   UNK N   1      20.522  18.937   8.047  0.00  0.00    -0.266 OA
HETATM   23  C   UNK N   1      18.902  17.609   9.097  0.00  0.00     0.126 C 
ENDBRANCH  20  21
ENDBRANCH  19  20
BRANCH  19  24
HETATM   24  C   UNK N   1      21.081  14.501   8.602  0.00  0.00    -0.018 A 
HETATM   25  C   UNK N   1      20.465  13.918   9.721  0.00  0.00     0.010 A 
HETATM   26  C   UNK N   1      21.172  13.036  10.545  0.00  0.00     0.002 A 
HETATM   27  C   UNK N   1      22.499  12.714  10.250  0.00  0.00     0.024 A 
HETATM   28  C   UNK N   1      23.121  13.279   9.136  0.00  0.00     0.034 A 
HETATM   29 Cl   UNK N   1      24.774  12.859   8.745  0.00  0.00    -0.084 Cl
HETATM   30  C   UNK N   1      22.418  14.169   8.322  0.00  0.00     0.034 A 
ENDBRANCH  19  24
ENDBRANCH   2  19
TORSDOF 5
ENDMDL
MODEL 2
REMARK VINA RESULT:      -7.9      3.408      6.887
REMARK  5 active torsions:
REMARK  status: ('A' for Active; 'I' for Inactive)
REMARK    1  A    between atoms: C_13  and  N_14 
REMARK       I    between atoms: N_14  and  C_15 
REMARK    2  A    between atoms: C_15  and  C_17 
REMARK    3  A    between atoms: C_17  and  O_18 
REMARK    4  A    between atoms: C_17  and  C_22 
REMARK    5  A    between atoms: O_18  and  C_19 
ROOT
HETATM    1  N   UNK N   1      22.570  17.415   6.036  0.00  0.00    -0.324 N 
HETATM    2  C   UNK N   1      22.341  17.717   4.727  0.00  0.00     0.256 C 
HETATM    3  O   UNK N   1      21.759  16.924   4.002  0.00  0.00    -0.270 OA
HETATM    4  H   UNK N   1      22.969  18.121   6.594  0.00  0.00     0.169 HD
ENDROOT
BRANCH   1   5
HETATM    5  C   UNK N   1      22.282  16.170   6.675  0.00  0.00     0.050 A 
HETATM    6  C   UNK N   1      21.219  16.073   7.609  0.00  0.00     0.062 A 
HETATM    7  C   UNK N   1      20.979  14.848   8.266  0.00  0.00     0.049 A 
HETATM    8  C   UNK N   1      20.329  17.218   7.937  0.00  0.00     0.253 A 
HETATM    9  C   UNK N   1      19.873  14.741   9.253  0.00  0.00     0.259 A 
HETATM   10  C   UNK N   1      21.783  13.735   7.992  0.00  0.00     0.018 A 
HETATM   11  O   UNK N   1      19.672  13.683   9.831  0.00  0.00    -0.267 OA
HETATM   12  N   UNK N   1      19.080  15.809   9.526  0.00  0.00    -0.286 N 
HETATM   13  C   UNK N   1      19.247  17.016   8.928  0.00  0.00     0.299 A 
HETATM   14  H   UNK N   1      18.355  15.703  10.184  0.00  0.00     0.172 HD
HETATM   15  O   UNK N   1      18.496  17.937   9.210  0.00  0.00    -0.264 OA
HETATM   16  C   UNK N   1      22.822  13.827   7.072  0.00  0.00     0.003 A 
HETATM   17  C   UNK N   1      23.072  15.034   6.424  0.00  0.00     0.030 A 
HETATM   18  O   UNK N   1      20.468  18.309   7.402  0.00  0.00    -0.281 OA
ENDBRANCH   1   5
BRANCH   2  19
HETATM   19  C   UNK N   1      22.837  19.051   4.192  0.00  0.00     0.257 C 
BRANCH  19  20
HETATM   20  O   UNK N   1      22.171  19.326   3.006  0.00  0.00    -0.302 OA
BRANCH  20  21
HETATM   21  C   UNK N   1      21.122  20.186   2.896  0.00  0.00     0.255 C 
HETATM   22  O   UNK N   1      20.475  20.525   3.877  0.00  0.00    -0.266 OA
HETATM   23  C   UNK N   1      20.740  20.711   1.557  0.00  0.00     0.126 C 
ENDBRANCH  20  21
ENDBRANCH  19  20
BRANCH  19  24
HETATM   24  C   UNK N   1      24.336  19.203   3.959  0.00  0.00    -0.018 A 
HETATM   25  C   UNK N   1      24.814  20.396   3.393  0.00  0.00     0.010 A 
HETATM   26  C   UNK N   1      26.183  20.586   3.181  0.00  0.00     0.002 A 
HETATM   27  C   UNK N   1      27.093  19.592   3.547  0.00  0.00     0.024 A 
HETATM   28  C   UNK N   1      26.633  18.404   4.118  0.00  0.00     0.034 A 
HETATM   29 Cl   UNK N   1      27.770  17.165   4.605  0.00  0.00    -0.084 Cl
HETATM   30  C   UNK N   1      25.265  18.210   4.318  0.00  0.00     0.034 A 
ENDBRANCH  19  24
ENDBRANCH   2  19
TORSDOF 5
ENDMDL
MODEL 3
REMARK VINA RESULT:      -7.7     15.636     17.307
REMARK  5 active torsions:
REMARK  status: ('A' for Active; 'I' for Inactive)
REMARK    1  A    between atoms: C_13  and  N_14 
REMARK       I    between atoms: N_14  and  C_15 
REMARK    2  A    between atoms: C_15  and  C_17 
REMARK    3  A    between atoms: C_17  and  O_18 
REMARK    4  A    between atoms: C_17  and  C_22 
REMARK    5  A    between atoms: O_18  and  C_19 
ROOT
HETATM    1  N   UNK N   1      27.735  23.721  -7.113  0.00  0.00    -0.324 N 
HETATM    2  C   UNK N   1      26.387  23.847  -6.954  0.00  0.00     0.256 C 
HETATM    3  O   UNK N   1      25.734  22.934  -6.473  0.00  0.00    -0.270 OA
HETATM    4  H   UNK N   1      28.224  24.515  -7.430  0.00  0.00     0.169 HD
ENDROOT
BRANCH   1   5
HETATM    5  C   UNK N   1      28.506  22.544  -6.862  0.00  0.00     0.050 A 
HETATM    6  C   UNK N   1      29.348  22.469  -5.723  0.00  0.00     0.062 A 
HETATM    7  C   UNK N   1      30.137  21.318  -5.516  0.00  0.00     0.049 A 
HETATM    8  C   UNK N   1      29.444  23.562  -4.719  0.00  0.00     0.253 A 
HETATM    9  C   UNK N   1      31.031  21.237  -4.331  0.00  0.00     0.259 A 
HETATM   10  C   UNK N   1      30.084  20.256  -6.426  0.00  0.00     0.018 A 
HETATM   11  O   UNK N   1      31.724  20.246  -4.156  0.00  0.00    -0.267 OA
HETATM   12  N   UNK N   1      31.091  22.255  -3.434  0.00  0.00    -0.286 N 
HETATM   13  C   UNK N   1      30.355  23.389  -3.565  0.00  0.00     0.299 A 
HETATM   14  H   UNK N   1      31.691  22.168  -2.659  0.00  0.00     0.172 HD
HETATM   15  O   UNK N   1      30.447  24.267  -2.722  0.00  0.00    -0.264 OA
HETATM   16  C   UNK N   1      29.253  20.326  -7.539  0.00  0.00     0.003 A 
HETATM   17  C   UNK N   1      28.475  21.460  -7.758  0.00  0.00     0.030 A 
HETATM   18  O   UNK N   1      28.784  24.586  -4.826  0.00  0.00    -0.281 OA
ENDBRANCH   1   5
BRANCH   2  19
HETATM   19  C   UNK N   1      25.722  25.139  -7.401  0.00  0.00     0.257 C 
BRANCH  19  20
HETATM   20  O   UNK N   1      26.088  25.392  -8.715  0.00  0.00    -0.302 OA
BRANCH  20  21
HETATM   21  C   UNK N   1      25.321  25.090  -9.799  0.00  0.00     0.255 C 
HETATM   22  O   UNK N   1      25.048  23.930 -10.078  0.00  0.00    -0.266 OA
HETATM   23  C   UNK N   1      24.819  26.185 -10.672  0.00  0.00     0.126 C 
ENDBRANCH  20  21
ENDBRANCH  19  20
BRANCH  19  24
HETATM   24  C   UNK N   1      25.983  26.390  -6.570  0.00  0.00    -0.018 A 
HETATM   25  C   UNK N   1      25.220  26.602  -5.411  0.00  0.00     0.010 A 
HETATM   26  C   UNK N   1      25.440  27.726  -4.608  0.00  0.00     0.002 A 
HETATM   27  C   UNK N   1      26.438  28.643  -4.945  0.00  0.00     0.024 A 
HETATM   28  C   UNK N   1      27.211  28.440  -6.089  0.00  0.00     0.034 A 
HETATM   29 Cl   UNK N   1      28.482  29.570  -6.503  0.00  0.00    -0.084 Cl
HETATM   30  C   UNK N   1      26.982  27.325  -6.897  0.00  0.00     0.034 A 
ENDBRANCH  19  24
ENDBRANCH   2  19
TORSDOF 5
ENDMDL
MODEL 4
REMARK VINA RESULT:      -7.5     15.829     17.813
REMARK  5 active torsions:
REMARK  status: ('A' for Active; 'I' for Inactive)
REMARK    1  A    between atoms: C_13  and  N_14 
REMARK       I    between atoms: N_14  and  C_15 
REMARK    2  A    between atoms: C_15  and  C_17 
REMARK    3  A    between atoms: C_17  and  O_18 
REMARK    4  A    between atoms: C_17  and  C_22 
REMARK    5  A    between atoms: O_18  and  C_19 
ROOT
HETATM    1  N   UNK N   1      36.358  14.508  12.983  0.00  0.00    -0.324 N 
HETATM    2  C   UNK N   1      35.591  13.759  13.825  0.00  0.00     0.256 C 
HETATM    3  O   UNK N   1      34.577  13.214  13.418  0.00  0.00    -0.270 OA
HETATM    4  H   UNK N   1      37.206  14.856  13.341  0.00  0.00     0.169 HD
ENDROOT
BRANCH   1   5
HETATM    5  C   UNK N   1      36.046  14.833  11.627  0.00  0.00     0.050 A 
HETATM    6  C   UNK N   1      36.624  14.096  10.562  0.00  0.00     0.062 A 
HETATM    7  C   UNK N   1      36.342  14.460   9.229  0.00  0.00     0.049 A 
HETATM    8  C   UNK N   1      37.529  12.936  10.784  0.00  0.00     0.253 A 
HETATM    9  C   UNK N   1      36.952  13.699   8.107  0.00  0.00     0.259 A 
HETATM   10  C   UNK N   1      35.493  15.541   8.960  0.00  0.00     0.018 A 
HETATM   11  O   UNK N   1      36.718  14.021   6.952  0.00  0.00    -0.267 OA
HETATM   12  N   UNK N   1      37.774  12.645   8.349  0.00  0.00    -0.286 N 
HETATM   13  C   UNK N   1      38.084  12.232   9.605  0.00  0.00     0.299 A 
HETATM   14  H   UNK N   1      38.159  12.161   7.584  0.00  0.00     0.172 HD
HETATM   15  O   UNK N   1      38.823  11.272   9.758  0.00  0.00    -0.264 OA
HETATM   16  C   UNK N   1      34.921  16.261  10.004  0.00  0.00     0.003 A 
HETATM   17  C   UNK N   1      35.198  15.913  11.324  0.00  0.00     0.030 A 
HETATM   18  O   UNK N   1      37.812  12.555  11.910  0.00  0.00    -0.281 OA
ENDBRANCH   1   5
BRANCH   2  19
HETATM   19  C   UNK N   1      36.023  13.630  15.277  0.00  0.00     0.257 C 
BRANCH  19  20
HETATM   20  O   UNK N   1      37.169  14.389  15.466  0.00  0.00    -0.302 OA
BRANCH  20  21
HETATM   21  C   UNK N   1      37.231  15.509  16.237  0.00  0.00     0.255 C 
HETATM   22  O   UNK N   1      37.767  16.530  15.830  0.00  0.00    -0.266 OA
HETATM   23  C   UNK N   1      36.653  15.489  17.609  0.00  0.00     0.126 C 
ENDBRANCH  20  21
ENDBRANCH  19  20
BRANCH  19  24
HETATM   24  C   UNK N   1      36.270  12.226  15.817  0.00  0.00    -0.018 A 
HETATM   25  C   UNK N   1      35.628  11.835  17.003  0.00  0.00     0.010 A 
HETATM   26  C   UNK N   1      35.810  10.550  17.522  0.00  0.00     0.002 A 
HETATM   27  C   UNK N   1      36.624   9.633  16.854  0.00  0.00     0.024 A 
HETATM   28  C   UNK N   1      37.263  10.004  15.669  0.00  0.00     0.034 A 
HETATM   29 Cl   UNK N   1      38.262   8.852  14.811  0.00  0.00    -0.084 Cl
HETATM   30  C   UNK N   1      37.090  11.292  15.158  0.00  0.00     0.034 A 
ENDBRANCH  19  24
ENDBRANCH   2  19
TORSDOF 5
ENDMDL
MODEL 5
REMARK VINA RESULT:      -7.5      2.723      3.642
REMARK  5 active torsions:
REMARK  status: ('A' for Active; 'I' for Inactive)
REMARK    1  A    between atoms: C_13  and  N_14 
REMARK       I    between atoms: N_14  and  C_15 
REMARK    2  A    between atoms: C_15  and  C_17 
REMARK    3  A    between atoms: C_17  and  O_18 
REMARK    4  A    between atoms: C_17  and  C_22 
REMARK    5  A    between atoms: O_18  and  C_19 
ROOT
HETATM    1  N   UNK N   1      22.569  16.387   5.705  0.00  0.00    -0.324 N 
HETATM    2  C   UNK N   1      22.233  15.130   5.300  0.00  0.00     0.256 C 
HETATM    3  O   UNK N   1      22.852  14.584   4.400  0.00  0.00    -0.270 OA
HETATM    4  H   UNK N   1      22.092  16.747   6.487  0.00  0.00     0.169 HD
ENDROOT
BRANCH   1   5
HETATM    5  C   UNK N   1      23.552  17.231   5.102  0.00  0.00     0.050 A 
HETATM    6  C   UNK N   1      23.156  18.351   4.327  0.00  0.00     0.062 A 
HETATM    7  C   UNK N   1      24.138  19.146   3.700  0.00  0.00     0.049 A 
HETATM    8  C   UNK N   1      21.732  18.737   4.139  0.00  0.00     0.253 A 
HETATM    9  C   UNK N   1      23.731  20.315   2.878  0.00  0.00     0.259 A 
HETATM   10  C   UNK N   1      25.495  18.832   3.846  0.00  0.00     0.018 A 
HETATM   11  O   UNK N   1      24.580  20.998   2.324  0.00  0.00    -0.267 OA
HETATM   12  N   UNK N   1      22.420  20.638   2.730  0.00  0.00    -0.286 N 
HETATM   13  C   UNK N   1      21.421  19.924   3.310  0.00  0.00     0.299 A 
HETATM   14  H   UNK N   1      22.184  21.420   2.181  0.00  0.00     0.172 HD
HETATM   15  O   UNK N   1      20.261  20.268   3.146  0.00  0.00    -0.264 OA
HETATM   16  C   UNK N   1      25.884  17.737   4.610  0.00  0.00     0.003 A 
HETATM   17  C   UNK N   1      24.923  16.942   5.228  0.00  0.00     0.030 A 
HETATM   18  O   UNK N   1      20.825  18.103   4.659  0.00  0.00    -0.281 OA
ENDBRANCH   1   5
BRANCH   2  19
HETATM   19  C   UNK N   1      21.066  14.435   5.984  0.00  0.00     0.257 C 
BRANCH  19  20
HETATM   20  O   UNK N   1      19.961  15.273   5.932  0.00  0.00    -0.302 OA
BRANCH  20  21
HETATM   21  C   UNK N   1      18.916  15.115   5.074  0.00  0.00     0.255 C 
HETATM   22  O   UNK N   1      17.804  15.547   5.345  0.00  0.00    -0.266 OA
HETATM   23  C   UNK N   1      19.122  14.387   3.793  0.00  0.00     0.126 C 
ENDBRANCH  20  21
ENDBRANCH  19  20
BRANCH  19  24
HETATM   24  C   UNK N   1      21.266  13.976   7.424  0.00  0.00    -0.018 A 
HETATM   25  C   UNK N   1      20.519  14.595   8.440  0.00  0.00     0.010 A 
HETATM   26  C   UNK N   1      20.655  14.192   9.772  0.00  0.00     0.002 A 
HETATM   27  C   UNK N   1      21.528  13.153  10.103  0.00  0.00     0.024 A 
HETATM   28  C   UNK N   1      22.270  12.523   9.103  0.00  0.00     0.034 A 
HETATM   29 Cl   UNK N   1      23.345  11.202   9.507  0.00  0.00    -0.084 Cl
HETATM   30  C   UNK N   1      22.143  12.935   7.775  0.00  0.00     0.034 A 
ENDBRANCH  19  24
ENDBRANCH   2  19
TORSDOF 5
ENDMDL
MODEL 6
REMARK VINA RESULT:      -7.4      8.502     10.652
REMARK  5 active torsions:
REMARK  status: ('A' for Active; 'I' for Inactive)
REMARK    1  A    between atoms: C_13  and  N_14 
REMARK       I    between atoms: N_14  and  C_15 
REMARK    2  A    between atoms: C_15  and  C_17 
REMARK    3  A    between atoms: C_17  and  O_18 
REMARK    4  A    between atoms: C_17  and  C_22 
REMARK    5  A    between atoms: O_18  and  C_19 
ROOT
HETATM    1  N   UNK N   1      28.659  17.116   5.790  0.00  0.00    -0.324 N 
HETATM    2  C   UNK N   1      27.597  17.955   5.627  0.00  0.00     0.256 C 
HETATM    3  O   UNK N   1      27.597  19.060   6.146  0.00  0.00    -0.270 OA
HETATM    4  H   UNK N   1      28.642  16.271   5.284  0.00  0.00     0.169 HD
ENDROOT
BRANCH   1   5
HETATM    5  C   UNK N   1      29.794  17.348   6.626  0.00  0.00     0.050 A 
HETATM    6  C   UNK N   1      31.101  17.342   6.076  0.00  0.00     0.062 A 
HETATM    7  C   UNK N   1      32.214  17.527   6.923  0.00  0.00     0.049 A 
HETATM    8  C   UNK N   1      31.363  17.148   4.624  0.00  0.00     0.253 A 
HETATM    9  C   UNK N   1      33.588  17.511   6.356  0.00  0.00     0.259 A 
HETATM   10  C   UNK N   1      32.027  17.719   8.297  0.00  0.00     0.018 A 
HETATM   11  O   UNK N   1      34.553  17.659   7.090  0.00  0.00    -0.267 OA
HETATM   12  N   UNK N   1      33.788  17.332   5.024  0.00  0.00    -0.286 N 
HETATM   13  C   UNK N   1      32.766  17.156   4.148  0.00  0.00     0.299 A 
HETATM   14  H   UNK N   1      34.710  17.330   4.681  0.00  0.00     0.172 HD
HETATM   15  O   UNK N   1      33.009  17.007   2.961  0.00  0.00    -0.264 OA
HETATM   16  C   UNK N   1      30.744  17.731   8.836  0.00  0.00     0.003 A 
HETATM   17  C   UNK N   1      29.640  17.543   8.010  0.00  0.00     0.030 A 
HETATM   18  O   UNK N   1      30.450  16.991   3.827  0.00  0.00    -0.281 OA
ENDBRANCH   1   5
BRANCH   2  19
HETATM   19  C   UNK N   1      26.415  17.477   4.797  0.00  0.00     0.257 C 
BRANCH  19  20
HETATM   20  O   UNK N   1      26.886  16.631   3.804  0.00  0.00    -0.302 OA
BRANCH  20  21
HETATM   21  C   UNK N   1      26.226  15.528   3.356  0.00  0.00     0.255 C 
HETATM   22  O   UNK N   1      25.804  14.684   4.134  0.00  0.00    -0.266 OA
HETATM   23  C   UNK N   1      26.027  15.334   1.894  0.00  0.00     0.126 C 
ENDBRANCH  20  21
ENDBRANCH  19  20
BRANCH  19  24
HETATM   24  C   UNK N   1      25.529  18.539   4.157  0.00  0.00    -0.018 A 
HETATM   25  C   UNK N   1      26.131  19.545   3.385  0.00  0.00     0.010 A 
HETATM   26  C   UNK N   1      25.354  20.527   2.762  0.00  0.00     0.002 A 
HETATM   27  C   UNK N   1      23.964  20.506   2.890  0.00  0.00     0.024 A 
HETATM   28  C   UNK N   1      23.350  19.507   3.648  0.00  0.00     0.034 A 
HETATM   29 Cl   UNK N   1      21.607  19.458   3.791  0.00  0.00    -0.084 Cl
HETATM   30  C   UNK N   1      24.127  18.535   4.279  0.00  0.00     0.034 A 
ENDBRANCH  19  24
ENDBRANCH   2  19
TORSDOF 5
ENDMDL
MODEL 7
REMARK VINA RESULT:      -7.3     15.399     17.284
REMARK  5 active torsions:
REMARK  status: ('A' for Active; 'I' for Inactive)
REMARK    1  A    between atoms: C_13  and  N_14 
REMARK       I    between atoms: N_14  and  C_15 
REMARK    2  A    between atoms: C_15  and  C_17 
REMARK    3  A    between atoms: C_17  and  O_18 
REMARK    4  A    between atoms: C_17  and  C_22 
REMARK    5  A    between atoms: O_18  and  C_19 
ROOT
HETATM    1  N   UNK N   1      36.366  12.835  13.168  0.00  0.00    -0.324 N 
HETATM    2  C   UNK N   1      35.396  12.707  14.116  0.00  0.00     0.256 C 
HETATM    3  O   UNK N   1      34.283  12.307  13.812  0.00  0.00    -0.270 OA
HETATM    4  H   UNK N   1      37.267  13.084  13.480  0.00  0.00     0.169 HD
ENDROOT
BRANCH   1   5
HETATM    5  C   UNK N   1      36.200  12.640  11.762  0.00  0.00     0.050 A 
HETATM    6  C   UNK N   1      35.879  13.735  10.920  0.00  0.00     0.062 A 
HETATM    7  C   UNK N   1      35.671  13.516   9.542  0.00  0.00     0.049 A 
HETATM    8  C   UNK N   1      35.746  15.127  11.426  0.00  0.00     0.253 A 
HETATM    9  C   UNK N   1      35.324  14.657   8.655  0.00  0.00     0.259 A 
HETATM   10  C   UNK N   1      35.788  12.227   9.010  0.00  0.00     0.018 A 
HETATM   11  O   UNK N   1      35.133  14.467   7.463  0.00  0.00    -0.267 OA
HETATM   12  N   UNK N   1      35.213  15.916   9.153  0.00  0.00    -0.286 N 
HETATM   13  C   UNK N   1      35.406  16.203  10.466  0.00  0.00     0.299 A 
HETATM   14  H   UNK N   1      34.984  16.649   8.538  0.00  0.00     0.172 HD
HETATM   15  O   UNK N   1      35.298  17.356  10.853  0.00  0.00    -0.264 OA
HETATM   16  C   UNK N   1      36.109  11.153   9.834  0.00  0.00     0.003 A 
HETATM   17  C   UNK N   1      36.308  11.356  11.197  0.00  0.00     0.030 A 
HETATM   18  O   UNK N   1      35.920  15.397  12.606  0.00  0.00    -0.281 OA
ENDBRANCH   1   5
BRANCH   2  19
HETATM   19  C   UNK N   1      35.729  13.087  15.551  0.00  0.00     0.257 C 
BRANCH  19  20
HETATM   20  O   UNK N   1      36.921  13.796  15.554  0.00  0.00    -0.302 OA
BRANCH  20  21
HETATM   21  C   UNK N   1      37.063  15.058  16.046  0.00  0.00     0.255 C 
HETATM   22  O   UNK N   1      37.519  15.959  15.356  0.00  0.00    -0.266 OA
HETATM   23  C   UNK N   1      36.676  15.345  17.454  0.00  0.00     0.126 C 
ENDBRANCH  20  21
ENDBRANCH  19  20
BRANCH  19  24
HETATM   24  C   UNK N   1      35.827  11.960  16.573  0.00  0.00    -0.018 A 
HETATM   25  C   UNK N   1      36.527  10.793  16.227  0.00  0.00     0.010 A 
HETATM   26  C   UNK N   1      36.659   9.743  17.141  0.00  0.00     0.002 A 
HETATM   27  C   UNK N   1      36.106   9.853  18.419  0.00  0.00     0.024 A 
HETATM   28  C   UNK N   1      35.414  11.011  18.780  0.00  0.00     0.034 A 
HETATM   29 Cl   UNK N   1      34.743  11.167  20.388  0.00  0.00    -0.084 Cl
HETATM   30  C   UNK N   1      35.272  12.053  17.862  0.00  0.00     0.034 A 
ENDBRANCH  19  24
ENDBRANCH   2  19
TORSDOF 5
ENDMDL
MODEL 8
REMARK VINA RESULT:      -7.2     14.999     17.241
REMARK  5 active torsions:
REMARK  status: ('A' for Active; 'I' for Inactive)
REMARK    1  A    between atoms: C_13  and  N_14 
REMARK       I    between atoms: N_14  and  C_15 
REMARK    2  A    between atoms: C_15  and  C_17 
REMARK    3  A    between atoms: C_17  and  O_18 
REMARK    4  A    between atoms: C_17  and  C_22 
REMARK    5  A    between atoms: O_18  and  C_19 
ROOT
HETATM    1  N   UNK N   1      27.961  23.657  -5.934  0.00  0.00    -0.324 N 
HETATM    2  C   UNK N   1      28.220  24.913  -6.397  0.00  0.00     0.256 C 
HETATM    3  O   UNK N   1      29.198  25.125  -7.097  0.00  0.00    -0.270 OA
HETATM    4  H   UNK N   1      27.118  23.526  -5.443  0.00  0.00     0.169 HD
ENDROOT
BRANCH   1   5
HETATM    5  C   UNK N   1      28.799  22.511  -6.098  0.00  0.00     0.050 A 
HETATM    6  C   UNK N   1      29.681  22.115  -5.060  0.00  0.00     0.062 A 
HETATM    7  C   UNK N   1      30.535  21.009  -5.255  0.00  0.00     0.049 A 
HETATM    8  C   UNK N   1      29.751  22.819  -3.751  0.00  0.00     0.253 A 
HETATM    9  C   UNK N   1      31.469  20.594  -4.177  0.00  0.00     0.259 A 
HETATM   10  C   UNK N   1      30.508  20.306  -6.466  0.00  0.00     0.018 A 
HETATM   11  O   UNK N   1      32.217  19.644  -4.349  0.00  0.00    -0.267 OA
HETATM   12  N   UNK N   1      31.504  21.261  -2.994  0.00  0.00    -0.286 N 
HETATM   13  C   UNK N   1      30.707  22.329  -2.731  0.00  0.00     0.299 A 
HETATM   14  H   UNK N   1      32.133  20.959  -2.299  0.00  0.00     0.172 HD
HETATM   15  O   UNK N   1      30.781  22.883  -1.646  0.00  0.00    -0.264 OA
HETATM   16  C   UNK N   1      29.639  20.691  -7.482  0.00  0.00     0.003 A 
HETATM   17  C   UNK N   1      28.797  21.785  -7.302  0.00  0.00     0.030 A 
HETATM   18  O   UNK N   1      29.036  23.779  -3.504  0.00  0.00    -0.281 OA
ENDBRANCH   1   5
BRANCH   2  19
HETATM   19  C   UNK N   1      27.273  26.038  -6.009  0.00  0.00     0.257 C 
BRANCH  19  20
HETATM   20  O   UNK N   1      26.450  26.314  -7.092  0.00  0.00    -0.302 OA
BRANCH  20  21
HETATM   21  C   UNK N   1      25.794  25.369  -7.819  0.00  0.00     0.255 C 
HETATM   22  O   UNK N   1      25.233  24.428  -7.275  0.00  0.00    -0.266 OA
HETATM   23  C   UNK N   1      25.774  25.467  -9.304  0.00  0.00     0.126 C 
ENDBRANCH  20  21
ENDBRANCH  19  20
BRANCH  19  24
HETATM   24  C   UNK N   1      27.892  27.342  -5.519  0.00  0.00    -0.018 A 
HETATM   25  C   UNK N   1      27.557  28.537  -6.176  0.00  0.00     0.010 A 
HETATM   26  C   UNK N   1      28.085  29.759  -5.746  0.00  0.00     0.002 A 
HETATM   27  C   UNK N   1      28.942  29.803  -4.645  0.00  0.00     0.024 A 
HETATM   28  C   UNK N   1      29.277  28.624  -3.977  0.00  0.00     0.034 A 
HETATM   29 Cl   UNK N   1      30.328  28.674  -2.578  0.00  0.00    -0.084 Cl
HETATM   30  C   UNK N   1      28.759  27.404  -4.414  0.00  0.00     0.034 A 
ENDBRANCH  19  24
ENDBRANCH   2  19
TORSDOF 5
ENDMDL
MODEL 9
REMARK VINA RESULT:      -7.0      8.240     10.250
REMARK  5 active torsions:
REMARK  status: ('A' for Active; 'I' for Inactive)
REMARK    1  A    between atoms: C_13  and  N_14 
REMARK       I    between atoms: N_14  and  C_15 
REMARK    2  A    between atoms: C_15  and  C_17 
REMARK    3  A    between atoms: C_17  and  O_18 
REMARK    4  A    between atoms: C_17  and  C_22 
REMARK    5  A    between atoms: O_18  and  C_19 
ROOT
HETATM    1  N   UNK N   1      29.411  17.867   4.405  0.00  0.00    -0.324 N 
HETATM    2  C   UNK N   1      28.481  16.964   3.984  0.00  0.00     0.256 C 
HETATM    3  O   UNK N   1      28.702  15.766   4.065  0.00  0.00    -0.270 OA
HETATM    4  H   UNK N   1      29.150  18.817   4.392  0.00  0.00     0.169 HD
ENDROOT
BRANCH   1   5
HETATM    5  C   UNK N   1      30.730  17.565   4.865  0.00  0.00     0.050 A 
HETATM    6  C   UNK N   1      30.992  17.440   6.253  0.00  0.00     0.062 A 
HETATM    7  C   UNK N   1      32.309  17.187   6.693  0.00  0.00     0.049 A 
HETATM    8  C   UNK N   1      29.931  17.563   7.288  0.00  0.00     0.253 A 
HETATM    9  C   UNK N   1      32.595  17.065   8.146  0.00  0.00     0.259 A 
HETATM   10  C   UNK N   1      33.347  17.057   5.763  0.00  0.00     0.018 A 
HETATM   11  O   UNK N   1      33.736  16.858   8.529  0.00  0.00    -0.267 OA
HETATM   12  N   UNK N   1      31.598  17.182   9.062  0.00  0.00    -0.286 N 
HETATM   13  C   UNK N   1      30.307  17.418   8.713  0.00  0.00     0.299 A 
HETATM   14  H   UNK N   1      31.821  17.094  10.017  0.00  0.00     0.172 HD
HETATM   15  O   UNK N   1      29.455  17.507   9.583  0.00  0.00    -0.264 OA
HETATM   16  C   UNK N   1      33.089  17.174   4.401  0.00  0.00     0.003 A 
HETATM   17  C   UNK N   1      31.795  17.430   3.957  0.00  0.00     0.030 A 
HETATM   18  O   UNK N   1      28.765  17.772   6.985  0.00  0.00    -0.281 OA
ENDBRANCH   1   5
BRANCH   2  19
HETATM   19  C   UNK N   1      27.176  17.485   3.402  0.00  0.00     0.257 C 
BRANCH  19  20
HETATM   20  O   UNK N   1      26.665  18.449   4.258  0.00  0.00    -0.302 OA
BRANCH  20  21
HETATM   21  C   UNK N   1      26.790  19.791   4.066  0.00  0.00     0.255 C 
HETATM   22  O   UNK N   1      27.589  20.452   4.715  0.00  0.00    -0.266 OA
HETATM   23  C   UNK N   1      25.928  20.473   3.063  0.00  0.00     0.126 C 
ENDBRANCH  20  21
ENDBRANCH  19  20
BRANCH  19  24
HETATM   24  C   UNK N   1      26.083  16.465   3.102  0.00  0.00    -0.018 A 
HETATM   25  C   UNK N   1      26.185  15.687   1.938  0.00  0.00     0.010 A 
HETATM   26  C   UNK N   1      25.216  14.726   1.635  0.00  0.00     0.002 A 
HETATM   27  C   UNK N   1      24.140  14.520   2.501  0.00  0.00     0.024 A 
HETATM   28  C   UNK N   1      24.029  15.279   3.667  0.00  0.00     0.034 A 
HETATM   29 Cl   UNK N   1      22.699  15.007   4.771  0.00  0.00    -0.084 Cl
HETATM   30  C   UNK N   1      24.991  16.247   3.962  0.00  0.00     0.034 A 
ENDBRANCH  19  24
ENDBRANCH   2  19
TORSDOF 5
ENDMDL
