MODEL 1
REMARK VINA RESULT:      -8.0      0.000      0.000
REMARK  8 active torsions:
REMARK  status: ('A' for Active; 'I' for Inactive)
REMARK    1  A    between atoms: C_2  and  C_3 
REMARK    2  A    between atoms: C_3  and  O_4 
REMARK    3  A    between atoms: O_4  and  C_5 
REMARK    4  A    between atoms: C_10  and  N_11 
REMARK       I    between atoms: N_11  and  C_12 
REMARK    5  A    between atoms: C_12  and  C_14 
REMARK    6  A    between atoms: C_14  and  C_15 
REMARK    7  A    between atoms: C_15  and  C_16 
REMARK       I    between atoms: C_16  and  N_18 
REMARK    8  A    between atoms: N_18  and  C_19 
ROOT
HETATM    1  C   UNK N   1      35.688  13.267  11.926  0.00  0.00     0.222 C 
HETATM    2  O   UNK N   1      34.630  13.460  12.513  0.00  0.00    -0.273 OA
HETATM    3  N   UNK N   1      36.565  12.342  12.397  0.00  0.00    -0.327 N 
HETATM    4  H   UNK N   1      37.114  11.787  11.798  0.00  0.00     0.169 HD
ENDROOT
BRANCH   1   5
HETATM    5  C   UNK N   1      36.238  14.367  11.097  0.00  0.00     0.112 C 
BRANCH   5   6
HETATM    6  C   UNK N   1      35.878  15.724  11.634  0.00  0.00     0.112 C 
BRANCH   6   7
HETATM    7  C   UNK N   1      35.299  16.418  10.480  0.00  0.00     0.222 C 
HETATM    8  N   UNK N   1      34.417  15.751   9.686  0.00  0.00    -0.327 N 
HETATM    9  H   UNK N   1      34.291  14.789   9.851  0.00  0.00     0.169 HD
HETATM   10  O   UNK N   1      35.504  17.615  10.351  0.00  0.00    -0.273 OA
BRANCH   8  11
HETATM   11  C   UNK N   1      33.665  16.345   8.640  0.00  0.00     0.037 A 
HETATM   12  C   UNK N   1      34.316  16.762   7.474  0.00  0.00     0.029 A 
HETATM   13  C   UNK N   1      33.574  17.281   6.407  0.00  0.00     0.005 A 
HETATM   14  C   UNK N   1      32.180  17.376   6.502  0.00  0.00     0.037 A 
HETATM   15  C   UNK N   1      31.528  16.965   7.676  0.00  0.00     0.070 A 
HETATM   16  C   UNK N   1      32.275  16.459   8.727  0.00  0.00     0.066 A 
BRANCH  15  17
HETATM   17  O   UNK N   1      30.187  17.032   7.826  0.00  0.00    -0.349 OA
BRANCH  17  18
HETATM   18  C   UNK N   1      29.489  18.207   7.954  0.00  0.00     0.207 C 
BRANCH  18  19
HETATM   19  C   UNK N   1      28.877  18.263   9.340  0.00  0.00     0.248 C 
HETATM   20  F   UNK N   1      29.742  18.914  10.204  0.00  0.00    -0.253 F 
ENDBRANCH  18  19
ENDBRANCH  17  18
ENDBRANCH  15  17
ENDBRANCH   8  11
ENDBRANCH   6   7
ENDBRANCH   5   6
ENDBRANCH   1   5
BRANCH   3  21
HETATM   21  C   UNK N   1      36.636  12.233  13.792  0.00  0.00     0.035 A 
HETATM   22  C   UNK N   1      35.952  11.223  14.481  0.00  0.00     0.030 A 
HETATM   23  C   UNK N   1      35.615  11.419  15.830  0.00  0.00     0.020 A 
HETATM   24  C   UNK N   1      35.906  12.650  16.453  0.00  0.00     0.046 A 
HETATM   25  C   UNK N   1      36.611  13.632  15.750  0.00  0.00     0.038 A 
HETATM   26  C   UNK N   1      35.416  12.971  17.816  0.00  0.00     0.259 A 
HETATM   27  C   UNK N   1      36.857  14.941  16.359  0.00  0.00     0.250 A 
HETATM   28  C   UNK N   1      36.969  13.413  14.442  0.00  0.00     0.046 A 
HETATM   29  O   UNK N   1      37.468  15.811  15.756  0.00  0.00    -0.281 OA
HETATM   30  C   UNK N   1      36.291  15.196  17.693  0.00  0.00     0.299 A 
HETATM   31  N   UNK N   1      35.616  14.212  18.348  0.00  0.00    -0.286 N 
HETATM   32  O   UNK N   1      36.414  16.297  18.206  0.00  0.00    -0.264 OA
HETATM   33  H   UNK N   1      35.258  14.405  19.245  0.00  0.00     0.172 HD
HETATM   34  O   UNK N   1      34.785  12.142  18.449  0.00  0.00    -0.267 OA
ENDBRANCH   3  21
TORSDOF 8
ENDMDL
MODEL 2
REMARK VINA RESULT:      -7.8      3.404     10.127
REMARK  8 active torsions:
REMARK  status: ('A' for Active; 'I' for Inactive)
REMARK    1  A    between atoms: C_2  and  C_3 
REMARK    2  A    between atoms: C_3  and  O_4 
REMARK    3  A    between atoms: O_4  and  C_5 
REMARK    4  A    between atoms: C_10  and  N_11 
REMARK       I    between atoms: N_11  and  C_12 
REMARK    5  A    between atoms: C_12  and  C_14 
REMARK    6  A    between atoms: C_14  and  C_15 
REMARK    7  A    between atoms: C_15  and  C_16 
REMARK       I    between atoms: C_16  and  N_18 
REMARK    8  A    between atoms: N_18  and  C_19 
ROOT
HETATM    1  C   UNK N   1      35.134  12.714  11.800  0.00  0.00     0.222 C 
HETATM    2  O   UNK N   1      35.900  12.275  10.950  0.00  0.00    -0.273 OA
HETATM    3  N   UNK N   1      34.233  13.675  11.467  0.00  0.00    -0.327 N 
HETATM    4  H   UNK N   1      33.332  13.708  11.860  0.00  0.00     0.169 HD
ENDROOT
BRANCH   1   5
HETATM    5  C   UNK N   1      35.545  12.628  13.222  0.00  0.00     0.112 C 
BRANCH   5   6
HETATM    6  C   UNK N   1      36.399  13.790  13.643  0.00  0.00     0.112 C 
BRANCH   6   7
HETATM    7  C   UNK N   1      36.386  13.725  15.108  0.00  0.00     0.222 C 
HETATM    8  N   UNK N   1      35.432  12.976  15.724  0.00  0.00    -0.327 N 
HETATM    9  H   UNK N   1      34.714  12.599  15.166  0.00  0.00     0.169 HD
HETATM   10  O   UNK N   1      37.317  14.218  15.725  0.00  0.00    -0.273 OA
BRANCH   8  11
HETATM   11  C   UNK N   1      35.399  12.696  17.115  0.00  0.00     0.037 A 
HETATM   12  C   UNK N   1      35.218  13.744  18.024  0.00  0.00     0.029 A 
HETATM   13  C   UNK N   1      35.111  13.472  19.392  0.00  0.00     0.005 A 
HETATM   14  C   UNK N   1      35.177  12.150  19.852  0.00  0.00     0.037 A 
HETATM   15  C   UNK N   1      35.367  11.099  18.939  0.00  0.00     0.070 A 
HETATM   16  C   UNK N   1      35.478  11.384  17.589  0.00  0.00     0.066 A 
BRANCH  15  17
HETATM   17  O   UNK N   1      35.438   9.806  19.322  0.00  0.00    -0.349 OA
BRANCH  17  18
HETATM   18  C   UNK N   1      34.513   9.196  20.133  0.00  0.00     0.207 C 
BRANCH  18  19
HETATM   19  C   UNK N   1      33.956   7.984  19.411  0.00  0.00     0.248 C 
HETATM   20  F   UNK N   1      32.581   8.099  19.303  0.00  0.00    -0.253 F 
ENDBRANCH  18  19
ENDBRANCH  17  18
ENDBRANCH  15  17
ENDBRANCH   8  11
ENDBRANCH   6   7
ENDBRANCH   5   6
ENDBRANCH   1   5
BRANCH   3  21
HETATM   21  C   UNK N   1      34.674  14.617  10.527  0.00  0.00     0.035 A 
HETATM   22  C   UNK N   1      35.390  15.756  10.919  0.00  0.00     0.030 A 
HETATM   23  C   UNK N   1      35.373  16.893  10.095  0.00  0.00     0.020 A 
HETATM   24  C   UNK N   1      34.583  16.902   8.927  0.00  0.00     0.046 A 
HETATM   25  C   UNK N   1      33.898  15.743   8.548  0.00  0.00     0.038 A 
HETATM   26  C   UNK N   1      34.391  18.132   8.122  0.00  0.00     0.259 A 
HETATM   27  C   UNK N   1      33.017  15.759   7.378  0.00  0.00     0.250 A 
HETATM   28  C   UNK N   1      33.954  14.624   9.342  0.00  0.00     0.046 A 
HETATM   29  O   UNK N   1      32.407  14.755   7.036  0.00  0.00    -0.281 OA
HETATM   30  C   UNK N   1      32.841  17.034   6.666  0.00  0.00     0.299 A 
HETATM   31  N   UNK N   1      33.531  18.138   7.061  0.00  0.00    -0.286 N 
HETATM   32  O   UNK N   1      32.063  17.105   5.728  0.00  0.00    -0.264 OA
HETATM   33  H   UNK N   1      33.405  18.977   6.560  0.00  0.00     0.172 HD
HETATM   34  O   UNK N   1      34.963  19.162   8.436  0.00  0.00    -0.267 OA
ENDBRANCH   3  21
TORSDOF 8
ENDMDL
MODEL 3
REMARK VINA RESULT:      -7.7     17.608     21.157
REMARK  8 active torsions:
REMARK  status: ('A' for Active; 'I' for Inactive)
REMARK    1  A    between atoms: C_2  and  C_3 
REMARK    2  A    between atoms: C_3  and  O_4 
REMARK    3  A    between atoms: O_4  and  C_5 
REMARK    4  A    between atoms: C_10  and  N_11 
REMARK       I    between atoms: N_11  and  C_12 
REMARK    5  A    between atoms: C_12  and  C_14 
REMARK    6  A    between atoms: C_14  and  C_15 
REMARK    7  A    between atoms: C_15  and  C_16 
REMARK       I    between atoms: C_16  and  N_18 
REMARK    8  A    between atoms: N_18  and  C_19 
ROOT
HETATM    1  C   UNK N   1      27.835  21.751  -8.464  0.00  0.00     0.222 C 
HETATM    2  O   UNK N   1      27.488  20.628  -8.117  0.00  0.00    -0.273 OA
HETATM    3  N   UNK N   1      28.939  22.318  -7.911  0.00  0.00    -0.327 N 
HETATM    4  H   UNK N   1      29.545  22.897  -8.425  0.00  0.00     0.169 HD
ENDROOT
BRANCH   1   5
HETATM    5  C   UNK N   1      26.804  22.662  -9.017  0.00  0.00     0.112 C 
BRANCH   5   6
HETATM    6  C   UNK N   1      25.669  22.892  -8.059  0.00  0.00     0.112 C 
BRANCH   6   7
HETATM    7  C   UNK N   1      25.876  24.265  -7.590  0.00  0.00     0.222 C 
HETATM    8  N   UNK N   1      25.530  24.583  -6.313  0.00  0.00    -0.327 N 
HETATM    9  H   UNK N   1      25.045  23.906  -5.789  0.00  0.00     0.169 HD
HETATM   10  O   UNK N   1      26.490  25.043  -8.304  0.00  0.00    -0.273 OA
BRANCH   8  11
HETATM   11  C   UNK N   1      25.822  25.820  -5.683  0.00  0.00     0.037 A 
HETATM   12  C   UNK N   1      24.812  26.780  -5.548  0.00  0.00     0.029 A 
HETATM   13  C   UNK N   1      25.069  27.972  -4.864  0.00  0.00     0.005 A 
HETATM   14  C   UNK N   1      26.332  28.204  -4.306  0.00  0.00     0.037 A 
HETATM   15  C   UNK N   1      27.348  27.244  -4.448  0.00  0.00     0.070 A 
HETATM   16  C   UNK N   1      27.082  26.070  -5.133  0.00  0.00     0.066 A 
BRANCH  15  17
HETATM   17  O   UNK N   1      28.585  27.410  -3.932  0.00  0.00    -0.349 OA
BRANCH  17  18
HETATM   18  C   UNK N   1      29.728  26.917  -4.509  0.00  0.00     0.207 C 
BRANCH  18  19
HETATM   19  C   UNK N   1      30.780  26.738  -3.432  0.00  0.00     0.248 C 
HETATM   20  F   UNK N   1      31.341  25.476  -3.534  0.00  0.00    -0.253 F 
ENDBRANCH  18  19
ENDBRANCH  17  18
ENDBRANCH  15  17
ENDBRANCH   8  11
ENDBRANCH   6   7
ENDBRANCH   5   6
ENDBRANCH   1   5
BRANCH   3  21
HETATM   21  C   UNK N   1      29.153  22.027  -6.557  0.00  0.00     0.035 A 
HETATM   22  C   UNK N   1      28.674  22.869  -5.545  0.00  0.00     0.030 A 
HETATM   23  C   UNK N   1      29.304  22.860  -4.289  0.00  0.00     0.020 A 
HETATM   24  C   UNK N   1      30.447  22.061  -4.084  0.00  0.00     0.046 A 
HETATM   25  C   UNK N   1      30.890  21.212  -5.104  0.00  0.00     0.038 A 
HETATM   26  C   UNK N   1      31.250  22.149  -2.840  0.00  0.00     0.259 A 
HETATM   27  C   UNK N   1      32.117  20.431  -4.931  0.00  0.00     0.250 A 
HETATM   28  C   UNK N   1      30.242  21.202  -6.314  0.00  0.00     0.046 A 
HETATM   29  O   UNK N   1      32.519  19.688  -5.815  0.00  0.00    -0.281 OA
HETATM   30  C   UNK N   1      32.881  20.617  -3.688  0.00  0.00     0.299 A 
HETATM   31  N   UNK N   1      32.414  21.448  -2.716  0.00  0.00    -0.286 N 
HETATM   32  O   UNK N   1      33.945  20.037  -3.535  0.00  0.00    -0.264 OA
HETATM   33  H   UNK N   1      32.939  21.545  -1.888  0.00  0.00     0.172 HD
HETATM   34  O   UNK N   1      30.898  22.892  -1.939  0.00  0.00    -0.267 OA
ENDBRANCH   3  21
TORSDOF 8
ENDMDL
MODEL 4
REMARK VINA RESULT:      -7.7      7.493     11.162
REMARK  8 active torsions:
REMARK  status: ('A' for Active; 'I' for Inactive)
REMARK    1  A    between atoms: C_2  and  C_3 
REMARK    2  A    between atoms: C_3  and  O_4 
REMARK    3  A    between atoms: O_4  and  C_5 
REMARK    4  A    between atoms: C_10  and  N_11 
REMARK       I    between atoms: N_11  and  C_12 
REMARK    5  A    between atoms: C_12  and  C_14 
REMARK    6  A    between atoms: C_14  and  C_15 
REMARK    7  A    between atoms: C_15  and  C_16 
REMARK       I    between atoms: C_16  and  N_18 
REMARK    8  A    between atoms: N_18  and  C_19 
ROOT
HETATM    1  C   UNK N   1      29.896  15.527   2.942  0.00  0.00     0.222 C 
HETATM    2  O   UNK N   1      30.371  14.678   3.687  0.00  0.00    -0.273 OA
HETATM    3  N   UNK N   1      30.380  16.796   2.967  0.00  0.00    -0.327 N 
HETATM    4  H   UNK N   1      30.450  17.347   2.155  0.00  0.00     0.169 HD
ENDROOT
BRANCH   1   5
HETATM    5  C   UNK N   1      28.506  15.337   2.463  0.00  0.00     0.112 C 
BRANCH   5   6
HETATM    6  C   UNK N   1      27.517  15.253   3.592  0.00  0.00     0.112 C 
BRANCH   6   7
HETATM    7  C   UNK N   1      26.508  16.261   3.252  0.00  0.00     0.222 C 
HETATM    8  N   UNK N   1      26.368  17.349   4.057  0.00  0.00    -0.327 N 
HETATM    9  H   UNK N   1      26.870  17.360   4.903  0.00  0.00     0.169 HD
HETATM   10  O   UNK N   1      25.929  16.174   2.180  0.00  0.00    -0.273 OA
BRANCH   8  11
HETATM   11  C   UNK N   1      25.550  18.471   3.762  0.00  0.00     0.037 A 
HETATM   12  C   UNK N   1      26.107  19.579   3.115  0.00  0.00     0.029 A 
HETATM   13  C   UNK N   1      25.295  20.659   2.754  0.00  0.00     0.005 A 
HETATM   14  C   UNK N   1      23.923  20.629   3.033  0.00  0.00     0.037 A 
HETATM   15  C   UNK N   1      23.365  19.520   3.690  0.00  0.00     0.070 A 
HETATM   16  C   UNK N   1      24.182  18.460   4.047  0.00  0.00     0.066 A 
BRANCH  15  17
HETATM   17  O   UNK N   1      22.050  19.433   3.985  0.00  0.00    -0.349 OA
BRANCH  17  18
HETATM   18  C   UNK N   1      21.048  19.853   3.146  0.00  0.00     0.207 C 
BRANCH  18  19
HETATM   19  C   UNK N   1      20.600  18.680   2.295  0.00  0.00     0.248 C 
HETATM   20  F   UNK N   1      20.985  17.495   2.899  0.00  0.00    -0.253 F 
ENDBRANCH  18  19
ENDBRANCH  17  18
ENDBRANCH  15  17
ENDBRANCH   8  11
ENDBRANCH   6   7
ENDBRANCH   5   6
ENDBRANCH   1   5
BRANCH   3  21
HETATM   21  C   UNK N   1      30.770  17.270   4.228  0.00  0.00     0.035 A 
HETATM   22  C   UNK N   1      32.046  17.006   4.742  0.00  0.00     0.030 A 
HETATM   23  C   UNK N   1      32.243  17.024   6.133  0.00  0.00     0.020 A 
HETATM   24  C   UNK N   1      31.146  17.236   6.993  0.00  0.00     0.046 A 
HETATM   25  C   UNK N   1      29.888  17.520   6.452  0.00  0.00     0.038 A 
HETATM   26  C   UNK N   1      31.266  17.090   8.464  0.00  0.00     0.259 A 
HETATM   27  C   UNK N   1      28.726  17.671   7.331  0.00  0.00     0.250 A 
HETATM   28  C   UNK N   1      29.717  17.538   5.090  0.00  0.00     0.046 A 
HETATM   29  O   UNK N   1      27.619  17.916   6.873  0.00  0.00    -0.281 OA
HETATM   30  C   UNK N   1      28.922  17.458   8.773  0.00  0.00     0.299 A 
HETATM   31  N   UNK N   1      30.163  17.189   9.262  0.00  0.00    -0.286 N 
HETATM   32  O   UNK N   1      27.966  17.506   9.531  0.00  0.00    -0.264 OA
HETATM   33  H   UNK N   1      30.269  17.062  10.233  0.00  0.00     0.172 HD
HETATM   34  O   UNK N   1      32.347  16.826   8.964  0.00  0.00    -0.267 OA
ENDBRANCH   3  21
TORSDOF 8
ENDMDL
MODEL 5
REMARK VINA RESULT:      -7.6      1.663      2.788
REMARK  8 active torsions:
REMARK  status: ('A' for Active; 'I' for Inactive)
REMARK    1  A    between atoms: C_2  and  C_3 
REMARK    2  A    between atoms: C_3  and  O_4 
REMARK    3  A    between atoms: O_4  and  C_5 
REMARK    4  A    between atoms: C_10  and  N_11 
REMARK       I    between atoms: N_11  and  C_12 
REMARK    5  A    between atoms: C_12  and  C_14 
REMARK    6  A    between atoms: C_14  and  C_15 
REMARK    7  A    between atoms: C_15  and  C_16 
REMARK       I    between atoms: C_16  and  N_18 
REMARK    8  A    between atoms: N_18  and  C_19 
ROOT
HETATM    1  C   UNK N   1      35.738  13.051  12.448  0.00  0.00     0.222 C 
HETATM    2  O   UNK N   1      34.518  12.976  12.360  0.00  0.00    -0.273 OA
HETATM    3  N   UNK N   1      36.374  12.499  13.513  0.00  0.00    -0.327 N 
HETATM    4  H   UNK N   1      37.259  12.074  13.434  0.00  0.00     0.169 HD
ENDROOT
BRANCH   1   5
HETATM    5  C   UNK N   1      36.422  14.166  11.748  0.00  0.00     0.112 C 
BRANCH   5   6
HETATM    6  C   UNK N   1      35.859  15.509  12.122  0.00  0.00     0.112 C 
BRANCH   6   7
HETATM    7  C   UNK N   1      35.488  16.106  10.836  0.00  0.00     0.222 C 
HETATM    8  N   UNK N   1      34.605  15.448  10.035  0.00  0.00    -0.327 N 
HETATM    9  H   UNK N   1      34.339  14.538  10.299  0.00  0.00     0.169 HD
HETATM   10  O   UNK N   1      35.860  17.242  10.587  0.00  0.00    -0.273 OA
BRANCH   8  11
HETATM   11  C   UNK N   1      34.040  15.982   8.849  0.00  0.00     0.037 A 
HETATM   12  C   UNK N   1      34.703  15.806   7.629  0.00  0.00     0.029 A 
HETATM   13  C   UNK N   1      34.119  16.264   6.444  0.00  0.00     0.005 A 
HETATM   14  C   UNK N   1      32.867  16.891   6.475  0.00  0.00     0.037 A 
HETATM   15  C   UNK N   1      32.205  17.075   7.700  0.00  0.00     0.070 A 
HETATM   16  C   UNK N   1      32.798  16.622   8.867  0.00  0.00     0.066 A 
BRANCH  15  17
HETATM   17  O   UNK N   1      30.997  17.672   7.793  0.00  0.00    -0.349 OA
BRANCH  17  18
HETATM   18  C   UNK N   1      30.516  18.253   8.939  0.00  0.00     0.207 C 
BRANCH  18  19
HETATM   19  C   UNK N   1      29.193  17.605   9.298  0.00  0.00     0.248 C 
HETATM   20  F   UNK N   1      29.294  16.996  10.537  0.00  0.00    -0.253 F 
ENDBRANCH  18  19
ENDBRANCH  17  18
ENDBRANCH  15  17
ENDBRANCH   8  11
ENDBRANCH   6   7
ENDBRANCH   5   6
ENDBRANCH   1   5
BRANCH   3  21
HETATM   21  C   UNK N   1      35.689  12.576  14.733  0.00  0.00     0.035 A 
HETATM   22  C   UNK N   1      35.730  13.735  15.520  0.00  0.00     0.030 A 
HETATM   23  C   UNK N   1      35.497  13.635  16.901  0.00  0.00     0.020 A 
HETATM   24  C   UNK N   1      35.296  12.370  17.489  0.00  0.00     0.046 A 
HETATM   25  C   UNK N   1      35.236  11.232  16.677  0.00  0.00     0.038 A 
HETATM   26  C   UNK N   1      35.222  12.192  18.959  0.00  0.00     0.259 A 
HETATM   27  C   UNK N   1      35.100   9.904  17.279  0.00  0.00     0.250 A 
HETATM   28  C   UNK N   1      35.427  11.348  15.322  0.00  0.00     0.046 A 
HETATM   29  O   UNK N   1      35.051   8.899  16.583  0.00  0.00    -0.281 OA
HETATM   30  C   UNK N   1      35.087   9.812  18.747  0.00  0.00     0.299 A 
HETATM   31  N   UNK N   1      35.141  10.943  19.503  0.00  0.00    -0.286 N 
HETATM   32  O   UNK N   1      35.045   8.719  19.289  0.00  0.00    -0.264 OA
HETATM   33  H   UNK N   1      35.119  10.855  20.484  0.00  0.00     0.172 HD
HETATM   34  O   UNK N   1      35.287  13.163  19.695  0.00  0.00    -0.267 OA
ENDBRANCH   3  21
TORSDOF 8
ENDMDL
MODEL 6
REMARK VINA RESULT:      -7.5      7.338     14.807
REMARK  8 active torsions:
REMARK  status: ('A' for Active; 'I' for Inactive)
REMARK    1  A    between atoms: C_2  and  C_3 
REMARK    2  A    between atoms: C_3  and  O_4 
REMARK    3  A    between atoms: O_4  and  C_5 
REMARK    4  A    between atoms: C_10  and  N_11 
REMARK       I    between atoms: N_11  and  C_12 
REMARK    5  A    between atoms: C_12  and  C_14 
REMARK    6  A    between atoms: C_14  and  C_15 
REMARK    7  A    between atoms: C_15  and  C_16 
REMARK       I    between atoms: C_16  and  N_18 
REMARK    8  A    between atoms: N_18  and  C_19 
ROOT
HETATM    1  C   UNK N   1      26.494  18.758   5.122  0.00  0.00     0.222 C 
HETATM    2  O   UNK N   1      26.791  18.031   4.181  0.00  0.00    -0.273 OA
HETATM    3  N   UNK N   1      25.194  19.085   5.340  0.00  0.00    -0.327 N 
HETATM    4  H   UNK N   1      24.824  19.191   6.246  0.00  0.00     0.169 HD
ENDROOT
BRANCH   1   5
HETATM    5  C   UNK N   1      27.527  19.687   5.641  0.00  0.00     0.112 C 
BRANCH   5   6
HETATM    6  C   UNK N   1      27.578  19.706   7.143  0.00  0.00     0.112 C 
BRANCH   6   7
HETATM    7  C   UNK N   1      28.350  18.507   7.484  0.00  0.00     0.222 C 
HETATM    8  N   UNK N   1      29.351  18.110   6.652  0.00  0.00    -0.327 N 
HETATM    9  H   UNK N   1      29.441  18.577   5.790  0.00  0.00     0.169 HD
HETATM   10  O   UNK N   1      28.177  17.988   8.576  0.00  0.00    -0.273 OA
BRANCH   8  11
HETATM   11  C   UNK N   1      30.274  17.071   6.938  0.00  0.00     0.037 A 
HETATM   12  C   UNK N   1      30.248  15.897   6.178  0.00  0.00     0.029 A 
HETATM   13  C   UNK N   1      31.200  14.897   6.403  0.00  0.00     0.005 A 
HETATM   14  C   UNK N   1      32.185  15.074   7.383  0.00  0.00     0.037 A 
HETATM   15  C   UNK N   1      32.206  16.250   8.151  0.00  0.00     0.070 A 
HETATM   16  C   UNK N   1      31.253  17.229   7.922  0.00  0.00     0.066 A 
BRANCH  15  17
HETATM   17  O   UNK N   1      33.131  16.478   9.109  0.00  0.00    -0.349 OA
BRANCH  17  18
HETATM   18  C   UNK N   1      34.457  16.721   8.851  0.00  0.00     0.207 C 
BRANCH  18  19
HETATM   19  C   UNK N   1      34.559  17.836   7.828  0.00  0.00     0.248 C 
HETATM   20  F   UNK N   1      34.007  18.995   8.348  0.00  0.00    -0.253 F 
ENDBRANCH  18  19
ENDBRANCH  17  18
ENDBRANCH  15  17
ENDBRANCH   8  11
ENDBRANCH   6   7
ENDBRANCH   5   6
ENDBRANCH   1   5
BRANCH   3  21
HETATM   21  C   UNK N   1      24.414  19.263   4.189  0.00  0.00     0.035 A 
HETATM   22  C   UNK N   1      24.491  20.439   3.432  0.00  0.00     0.030 A 
HETATM   23  C   UNK N   1      23.398  20.814   2.634  0.00  0.00     0.020 A 
HETATM   24  C   UNK N   1      22.217  20.046   2.657  0.00  0.00     0.046 A 
HETATM   25  C   UNK N   1      22.175  18.864   3.403  0.00  0.00     0.038 A 
HETATM   26  C   UNK N   1      20.979  20.494   1.974  0.00  0.00     0.259 A 
HETATM   27  C   UNK N   1      20.932  18.094   3.495  0.00  0.00     0.250 A 
HETATM   28  C   UNK N   1      23.265  18.487   4.149  0.00  0.00     0.046 A 
HETATM   29  O   UNK N   1      20.879  17.061   4.147  0.00  0.00    -0.281 OA
HETATM   30  C   UNK N   1      19.737  18.636   2.831  0.00  0.00     0.299 A 
HETATM   31  N   UNK N   1      19.819  19.786   2.108  0.00  0.00    -0.286 N 
HETATM   32  O   UNK N   1      18.666  18.061   2.941  0.00  0.00    -0.264 OA
HETATM   33  H   UNK N   1      19.007  20.122   1.663  0.00  0.00     0.172 HD
HETATM   34  O   UNK N   1      20.979  21.529   1.328  0.00  0.00    -0.267 OA
ENDBRANCH   3  21
TORSDOF 8
ENDMDL
MODEL 7
REMARK VINA RESULT:      -7.5      2.763      3.665
REMARK  8 active torsions:
REMARK  status: ('A' for Active; 'I' for Inactive)
REMARK    1  A    between atoms: C_2  and  C_3 
REMARK    2  A    between atoms: C_3  and  O_4 
REMARK    3  A    between atoms: O_4  and  C_5 
REMARK    4  A    between atoms: C_10  and  N_11 
REMARK       I    between atoms: N_11  and  C_12 
REMARK    5  A    between atoms: C_12  and  C_14 
REMARK    6  A    between atoms: C_14  and  C_15 
REMARK    7  A    between atoms: C_15  and  C_16 
REMARK       I    between atoms: C_16  and  N_18 
REMARK    8  A    between atoms: N_18  and  C_19 
ROOT
HETATM    1  C   UNK N   1      36.099  12.158  13.069  0.00  0.00     0.222 C 
HETATM    2  O   UNK N   1      35.068  11.502  12.980  0.00  0.00    -0.273 OA
HETATM    3  N   UNK N   1      36.783  12.186  14.242  0.00  0.00    -0.327 N 
HETATM    4  H   UNK N   1      37.766  12.221  14.276  0.00  0.00     0.169 HD
ENDROOT
BRANCH   1   5
HETATM    5  C   UNK N   1      36.279  13.305  12.147  0.00  0.00     0.112 C 
BRANCH   5   6
HETATM    6  C   UNK N   1      35.082  14.213  12.120  0.00  0.00     0.112 C 
BRANCH   6   7
HETATM    7  C   UNK N   1      35.098  14.778  10.768  0.00  0.00     0.222 C 
HETATM    8  N   UNK N   1      33.985  15.410  10.305  0.00  0.00    -0.327 N 
HETATM    9  H   UNK N   1      33.169  15.360  10.855  0.00  0.00     0.169 HD
HETATM   10  O   UNK N   1      36.154  14.801  10.154  0.00  0.00    -0.273 OA
BRANCH   8  11
HETATM   11  C   UNK N   1      33.916  16.136   9.089  0.00  0.00     0.037 A 
HETATM   12  C   UNK N   1      34.315  17.478   9.064  0.00  0.00     0.029 A 
HETATM   13  C   UNK N   1      34.320  18.182   7.855  0.00  0.00     0.005 A 
HETATM   14  C   UNK N   1      33.936  17.544   6.669  0.00  0.00     0.037 A 
HETATM   15  C   UNK N   1      33.529  16.200   6.696  0.00  0.00     0.070 A 
HETATM   16  C   UNK N   1      33.522  15.517   7.900  0.00  0.00     0.066 A 
BRANCH  15  17
HETATM   17  O   UNK N   1      33.148  15.532   5.585  0.00  0.00    -0.349 OA
BRANCH  17  18
HETATM   18  C   UNK N   1      33.567  15.852   4.318  0.00  0.00     0.207 C 
BRANCH  18  19
HETATM   19  C   UNK N   1      32.401  16.449   3.555  0.00  0.00     0.248 C 
HETATM   20  F   UNK N   1      32.348  17.815   3.780  0.00  0.00    -0.253 F 
ENDBRANCH  18  19
ENDBRANCH  17  18
ENDBRANCH  15  17
ENDBRANCH   8  11
ENDBRANCH   6   7
ENDBRANCH   5   6
ENDBRANCH   1   5
BRANCH   3  21
HETATM   21  C   UNK N   1      35.996  12.164  15.402  0.00  0.00     0.035 A 
HETATM   22  C   UNK N   1      35.406  13.332  15.904  0.00  0.00     0.030 A 
HETATM   23  C   UNK N   1      35.079  13.403  17.268  0.00  0.00     0.020 A 
HETATM   24  C   UNK N   1      35.409  12.334  18.125  0.00  0.00     0.046 A 
HETATM   25  C   UNK N   1      35.976  11.171  17.593  0.00  0.00     0.038 A 
HETATM   26  C   UNK N   1      35.247  12.431  19.596  0.00  0.00     0.259 A 
HETATM   27  C   UNK N   1      36.391  10.082  18.480  0.00  0.00     0.250 A 
HETATM   28  C   UNK N   1      36.256  11.099  16.251  0.00  0.00     0.046 A 
HETATM   29  O   UNK N   1      36.892   9.061  18.031  0.00  0.00    -0.281 OA
HETATM   30  C   UNK N   1      36.243  10.281  19.930  0.00  0.00     0.299 A 
HETATM   31  N   UNK N   1      35.681  11.424  20.409  0.00  0.00    -0.286 N 
HETATM   32  O   UNK N   1      36.641   9.426  20.706  0.00  0.00    -0.264 OA
HETATM   33  H   UNK N   1      35.583  11.528  21.383  0.00  0.00     0.172 HD
HETATM   34  O   UNK N   1      34.771  13.439  20.092  0.00  0.00    -0.267 OA
ENDBRANCH   3  21
TORSDOF 8
ENDMDL
MODEL 8
REMARK VINA RESULT:      -7.5      6.326     13.653
REMARK  8 active torsions:
REMARK  status: ('A' for Active; 'I' for Inactive)
REMARK    1  A    between atoms: C_2  and  C_3 
REMARK    2  A    between atoms: C_3  and  O_4 
REMARK    3  A    between atoms: O_4  and  C_5 
REMARK    4  A    between atoms: C_10  and  N_11 
REMARK       I    between atoms: N_11  and  C_12 
REMARK    5  A    between atoms: C_12  and  C_14 
REMARK    6  A    between atoms: C_14  and  C_15 
REMARK    7  A    between atoms: C_15  and  C_16 
REMARK       I    between atoms: C_16  and  N_18 
REMARK    8  A    between atoms: N_18  and  C_19 
ROOT
HETATM    1  C   UNK N   1      27.660  16.994   5.637  0.00  0.00     0.222 C 
HETATM    2  O   UNK N   1      27.842  16.453   4.552  0.00  0.00    -0.273 OA
HETATM    3  N   UNK N   1      26.438  17.500   5.945  0.00  0.00    -0.327 N 
HETATM    4  H   UNK N   1      26.071  17.468   6.857  0.00  0.00     0.169 HD
ENDROOT
BRANCH   1   5
HETATM    5  C   UNK N   1      28.834  17.575   6.333  0.00  0.00     0.112 C 
BRANCH   5   6
HETATM    6  C   UNK N   1      28.574  17.813   7.794  0.00  0.00     0.112 C 
BRANCH   6   7
HETATM    7  C   UNK N   1      29.903  17.737   8.406  0.00  0.00     0.222 C 
HETATM    8  N   UNK N   1      30.893  17.075   7.748  0.00  0.00    -0.327 N 
HETATM    9  H   UNK N   1      30.647  16.570   6.939  0.00  0.00     0.169 HD
HETATM   10  O   UNK N   1      30.126  18.396   9.410  0.00  0.00    -0.273 OA
BRANCH   8  11
HETATM   11  C   UNK N   1      32.256  17.060   8.144  0.00  0.00     0.037 A 
HETATM   12  C   UNK N   1      33.065  18.169   7.870  0.00  0.00     0.029 A 
HETATM   13  C   UNK N   1      34.389  18.195   8.320  0.00  0.00     0.005 A 
HETATM   14  C   UNK N   1      34.904  17.117   9.051  0.00  0.00     0.037 A 
HETATM   15  C   UNK N   1      34.094  16.001   9.318  0.00  0.00     0.070 A 
HETATM   16  C   UNK N   1      32.787  15.985   8.861  0.00  0.00     0.066 A 
BRANCH  15  17
HETATM   17  O   UNK N   1      34.534  14.933  10.018  0.00  0.00    -0.349 OA
BRANCH  17  18
HETATM   18  C   UNK N   1      34.438  14.819  11.383  0.00  0.00     0.207 C 
BRANCH  18  19
HETATM   19  C   UNK N   1      35.817  14.998  11.985  0.00  0.00     0.248 C 
HETATM   20  F   UNK N   1      36.774  14.510  11.110  0.00  0.00    -0.253 F 
ENDBRANCH  18  19
ENDBRANCH  17  18
ENDBRANCH  15  17
ENDBRANCH   8  11
ENDBRANCH   6   7
ENDBRANCH   5   6
ENDBRANCH   1   5
BRANCH   3  21
HETATM   21  C   UNK N   1      25.734  18.072   4.876  0.00  0.00     0.035 A 
HETATM   22  C   UNK N   1      25.959  19.398   4.483  0.00  0.00     0.030 A 
HETATM   23  C   UNK N   1      24.946  20.093   3.802  0.00  0.00     0.020 A 
HETATM   24  C   UNK N   1      23.696  19.477   3.586  0.00  0.00     0.046 A 
HETATM   25  C   UNK N   1      23.507  18.144   3.968  0.00  0.00     0.038 A 
HETATM   26  C   UNK N   1      22.541  20.224   3.034  0.00  0.00     0.259 A 
HETATM   27  C   UNK N   1      22.194  17.514   3.816  0.00  0.00     0.250 A 
HETATM   28  C   UNK N   1      24.519  17.463   4.598  0.00  0.00     0.046 A 
HETATM   29  O   UNK N   1      22.011  16.352   4.149  0.00  0.00    -0.281 OA
HETATM   30  C   UNK N   1      21.088  18.342   3.309  0.00  0.00     0.299 A 
HETATM   31  N   UNK N   1      21.314  19.633   2.942  0.00  0.00    -0.286 N 
HETATM   32  O   UNK N   1      19.963  17.874   3.233  0.00  0.00    -0.264 OA
HETATM   33  H   UNK N   1      20.559  20.162   2.594  0.00  0.00     0.172 HD
HETATM   34  O   UNK N   1      22.670  21.392   2.706  0.00  0.00    -0.267 OA
ENDBRANCH   3  21
TORSDOF 8
ENDMDL
MODEL 9
REMARK VINA RESULT:      -7.5      7.811     15.131
REMARK  8 active torsions:
REMARK  status: ('A' for Active; 'I' for Inactive)
REMARK    1  A    between atoms: C_2  and  C_3 
REMARK    2  A    between atoms: C_3  and  O_4 
REMARK    3  A    between atoms: O_4  and  C_5 
REMARK    4  A    between atoms: C_10  and  N_11 
REMARK       I    between atoms: N_11  and  C_12 
REMARK    5  A    between atoms: C_12  and  C_14 
REMARK    6  A    between atoms: C_14  and  C_15 
REMARK    7  A    between atoms: C_15  and  C_16 
REMARK       I    between atoms: C_16  and  N_18 
REMARK    8  A    between atoms: N_18  and  C_19 
ROOT
HETATM    1  C   UNK N   1      25.373  17.177   4.359  0.00  0.00     0.222 C 
HETATM    2  O   UNK N   1      25.097  16.486   3.385  0.00  0.00    -0.273 OA
HETATM    3  N   UNK N   1      24.415  17.459   5.281  0.00  0.00    -0.327 N 
HETATM    4  H   UNK N   1      24.616  17.529   6.242  0.00  0.00     0.169 HD
ENDROOT
BRANCH   1   5
HETATM    5  C   UNK N   1      26.510  18.122   4.247  0.00  0.00     0.112 C 
BRANCH   5   6
HETATM    6  C   UNK N   1      26.249  19.419   4.960  0.00  0.00     0.112 C 
BRANCH   6   7
HETATM    7  C   UNK N   1      27.282  19.464   5.999  0.00  0.00     0.222 C 
HETATM    8  N   UNK N   1      27.613  18.314   6.647  0.00  0.00    -0.327 N 
HETATM    9  H   UNK N   1      27.062  17.517   6.474  0.00  0.00     0.169 HD
HETATM   10  O   UNK N   1      27.921  20.494   6.148  0.00  0.00    -0.273 OA
BRANCH   8  11
HETATM   11  C   UNK N   1      28.697  18.182   7.553  0.00  0.00     0.037 A 
HETATM   12  C   UNK N   1      28.563  18.657   8.862  0.00  0.00     0.029 A 
HETATM   13  C   UNK N   1      29.598  18.466   9.784  0.00  0.00     0.005 A 
HETATM   14  C   UNK N   1      30.765  17.794   9.400  0.00  0.00     0.037 A 
HETATM   15  C   UNK N   1      30.902  17.325   8.083  0.00  0.00     0.070 A 
HETATM   16  C   UNK N   1      29.873  17.526   7.179  0.00  0.00     0.066 A 
BRANCH  15  17
HETATM   17  O   UNK N   1      32.003  16.669   7.655  0.00  0.00    -0.349 OA
BRANCH  17  18
HETATM   18  C   UNK N   1      32.048  15.915   6.509  0.00  0.00     0.207 C 
BRANCH  18  19
HETATM   19  C   UNK N   1      32.443  14.497   6.872  0.00  0.00     0.248 C 
HETATM   20  F   UNK N   1      32.126  14.251   8.197  0.00  0.00    -0.253 F 
ENDBRANCH  18  19
ENDBRANCH  17  18
ENDBRANCH  15  17
ENDBRANCH   8  11
ENDBRANCH   6   7
ENDBRANCH   5   6
ENDBRANCH   1   5
BRANCH   3  21
HETATM   21  C   UNK N   1      23.123  17.645   4.772  0.00  0.00     0.035 A 
HETATM   22  C   UNK N   1      22.317  16.557   4.411  0.00  0.00     0.030 A 
HETATM   23  C   UNK N   1      21.294  16.743   3.467  0.00  0.00     0.020 A 
HETATM   24  C   UNK N   1      21.135  17.997   2.844  0.00  0.00     0.046 A 
HETATM   25  C   UNK N   1      21.937  19.073   3.240  0.00  0.00     0.038 A 
HETATM   26  C   UNK N   1      20.190  18.198   1.719  0.00  0.00     0.259 A 
HETATM   27  C   UNK N   1      21.833  20.362   2.552  0.00  0.00     0.250 A 
HETATM   28  C   UNK N   1      22.909  18.887   4.192  0.00  0.00     0.046 A 
HETATM   29  O   UNK N   1      22.530  21.310   2.883  0.00  0.00    -0.281 OA
HETATM   30  C   UNK N   1      20.909  20.460   1.412  0.00  0.00     0.299 A 
HETATM   31  N   UNK N   1      20.140  19.393   1.061  0.00  0.00    -0.286 N 
HETATM   32  O   UNK N   1      20.843  21.496   0.768  0.00  0.00    -0.264 OA
HETATM   33  H   UNK N   1      19.521  19.488   0.301  0.00  0.00     0.172 HD
HETATM   34  O   UNK N   1      19.488  17.275   1.340  0.00  0.00    -0.267 OA
ENDBRANCH   3  21
TORSDOF 8
ENDMDL
