MODEL 1
REMARK VINA RESULT:      -8.3      0.000      0.000
REMARK  6 active torsions:
REMARK  status: ('A' for Active; 'I' for Inactive)
REMARK    1  A    between atoms: C_11  and  C_10 
REMARK    2  A    between atoms: C_17  and  C_18 
REMARK    3  A    between atoms: O_19  and  C_18 
REMARK    4  A    between atoms: C_20  and  O_21 
REMARK    5  A    between atoms: C_22  and  O_23 
REMARK    6  A    between atoms: C_24  and  O_25 
ROOT
HETATM    1  C   UNK N   1      34.111  16.516   7.929  0.00  0.00     0.144 C 
HETATM    2  C   UNK N   1      34.425  15.225   8.641  0.00  0.00     0.105 C 
HETATM    3  N   UNK N   1      34.807  17.516   8.716  0.00  0.00    -0.290 N 
HETATM    4  O   UNK N   1      34.687  17.095  10.006  0.00  0.00    -0.241 OA
HETATM    5  C   UNK N   1      35.023  15.734   9.956  0.00  0.00     0.220 C 
HETATM    6  O   UNK N   1      36.446  15.656   9.959  0.00  0.00    -0.341 OA
HETATM    7  C   UNK N   1      36.925  14.320   9.960  0.00  0.00     0.180 C 
HETATM    8  C   UNK N   1      36.442  13.544  11.205  0.00  0.00     0.180 C 
HETATM    9  C   UNK N   1      34.909  13.556  11.222  0.00  0.00     0.183 C 
HETATM   10  C   UNK N   1      34.424  15.012  11.187  0.00  0.00     0.214 C 
HETATM   11  H   UNK N   1      35.283  18.354   8.377  0.00  0.00     0.188 HD
ENDROOT
BRANCH  10  12
HETATM   12  O   UNK N   1      33.026  15.060  11.162  0.00  0.00    -0.387 OA
HETATM   13  H   UNK N   1      32.571  15.721  10.620  0.00  0.00     0.210 HD
ENDBRANCH  10  12
BRANCH   7  14
HETATM   14  C   UNK N   1      38.451  14.353   9.876  0.00  0.00     0.198 C 
BRANCH  14  15
HETATM   15  O   UNK N   1      39.024  13.389  10.710  0.00  0.00    -0.398 OA
HETATM   16  H   UNK N   1      39.701  13.050  11.316  0.00  0.00     0.209 HD
ENDBRANCH  14  15
ENDBRANCH   7  14
BRANCH   1  17
HETATM   17  C   UNK N   1      32.647  16.879   7.915  0.00  0.00    -0.033 A 
HETATM   18  C   UNK N   1      31.802  16.192   7.033  0.00  0.00     0.021 A 
HETATM   19  C   UNK N   1      30.463  16.555   6.908  0.00  0.00    -0.025 A 
HETATM   20  C   UNK N   1      29.946  17.617   7.682  0.00  0.00    -0.026 A 
HETATM   21  C   UNK N   1      29.638  15.884   6.002  0.00  0.00     0.012 A 
HETATM   22  C   UNK N   1      30.779  18.291   8.581  0.00  0.00     0.013 A 
HETATM   23  C   UNK N   1      28.610  17.995   7.536  0.00  0.00     0.012 A 
HETATM   24  C   UNK N   1      32.125  17.927   8.695  0.00  0.00     0.010 A 
HETATM   25  C   UNK N   1      27.790  17.324   6.622  0.00  0.00     0.001 A 
HETATM   26  C   UNK N   1      28.303  16.269   5.858  0.00  0.00     0.001 A 
ENDBRANCH   1  17
BRANCH   9  27
HETATM   27  O   UNK N   1      34.434  12.911  12.368  0.00  0.00    -0.390 OA
HETATM   28  H   UNK N   1      34.855  12.161  12.817  0.00  0.00     0.210 HD
ENDBRANCH   9  27
BRANCH   8  29
HETATM   29  O   UNK N   1      36.934  14.137  12.375  0.00  0.00    -0.390 OA
HETATM   30  H   UNK N   1      37.179  14.163  13.313  0.00  0.00     0.210 HD
ENDBRANCH   8  29
TORSDOF 6
ENDMDL
MODEL 2
REMARK VINA RESULT:      -7.6      5.329      8.287
REMARK  6 active torsions:
REMARK  status: ('A' for Active; 'I' for Inactive)
REMARK    1  A    between atoms: C_11  and  C_10 
REMARK    2  A    between atoms: C_17  and  C_18 
REMARK    3  A    between atoms: O_19  and  C_18 
REMARK    4  A    between atoms: C_20  and  O_21 
REMARK    5  A    between atoms: C_22  and  O_23 
REMARK    6  A    between atoms: C_24  and  O_25 
ROOT
HETATM    1  C   UNK N   1      27.147  17.844   4.018  0.00  0.00     0.144 C 
HETATM    2  C   UNK N   1      27.338  17.431   5.455  0.00  0.00     0.105 C 
HETATM    3  N   UNK N   1      28.292  18.694   3.754  0.00  0.00    -0.290 N 
HETATM    4  O   UNK N   1      28.499  19.377   4.915  0.00  0.00    -0.241 OA
HETATM    5  C   UNK N   1      28.442  18.389   5.909  0.00  0.00     0.220 C 
HETATM    6  O   UNK N   1      29.719  17.756   5.939  0.00  0.00    -0.341 OA
HETATM    7  C   UNK N   1      29.816  16.759   6.944  0.00  0.00     0.180 C 
HETATM    8  C   UNK N   1      29.588  17.349   8.354  0.00  0.00     0.180 C 
HETATM    9  C   UNK N   1      28.202  18.003   8.390  0.00  0.00     0.183 C 
HETATM   10  C   UNK N   1      28.118  19.050   7.271  0.00  0.00     0.214 C 
HETATM   11  H   UNK N   1      28.827  18.766   2.887  0.00  0.00     0.188 HD
ENDROOT
BRANCH  10  12
HETATM   12  O   UNK N   1      26.850  19.640   7.249  0.00  0.00    -0.387 OA
HETATM   13  H   UNK N   1      26.095  19.159   6.877  0.00  0.00     0.210 HD
ENDBRANCH  10  12
BRANCH   7  14
HETATM   14  C   UNK N   1      31.186  16.089   6.832  0.00  0.00     0.198 C 
BRANCH  14  15
HETATM   15  O   UNK N   1      32.187  17.027   6.567  0.00  0.00    -0.398 OA
HETATM   16  H   UNK N   1      32.956  17.372   6.087  0.00  0.00     0.209 HD
ENDBRANCH  14  15
ENDBRANCH   7  14
BRANCH   1  17
HETATM   17  C   UNK N   1      25.902  18.657   3.766  0.00  0.00    -0.033 A 
HETATM   18  C   UNK N   1      24.675  18.148   4.211  0.00  0.00     0.021 A 
HETATM   19  C   UNK N   1      23.485  18.808   3.918  0.00  0.00    -0.025 A 
HETATM   20  C   UNK N   1      23.511  20.008   3.172  0.00  0.00    -0.026 A 
HETATM   21  C   UNK N   1      22.265  18.274   4.339  0.00  0.00     0.012 A 
HETATM   22  C   UNK N   1      24.734  20.534   2.745  0.00  0.00     0.013 A 
HETATM   23  C   UNK N   1      22.314  20.654   2.857  0.00  0.00     0.012 A 
HETATM   24  C   UNK N   1      25.925  19.860   3.036  0.00  0.00     0.010 A 
HETATM   25  C   UNK N   1      21.095  20.111   3.277  0.00  0.00     0.001 A 
HETATM   26  C   UNK N   1      21.071  18.924   4.018  0.00  0.00     0.001 A 
ENDBRANCH   1  17
BRANCH   9  27
HETATM   27  O   UNK N   1      27.981  18.599   9.634  0.00  0.00    -0.390 OA
HETATM   28  H   UNK N   1      27.511  19.433   9.793  0.00  0.00     0.210 HD
ENDBRANCH   9  27
BRANCH   8  29
HETATM   29  O   UNK N   1      30.569  18.303   8.652  0.00  0.00    -0.390 OA
HETATM   30  H   UNK N   1      30.898  19.185   8.887  0.00  0.00     0.210 HD
ENDBRANCH   8  29
TORSDOF 6
ENDMDL
MODEL 3
REMARK VINA RESULT:      -7.5      3.344      7.344
REMARK  6 active torsions:
REMARK  status: ('A' for Active; 'I' for Inactive)
REMARK    1  A    between atoms: C_11  and  C_10 
REMARK    2  A    between atoms: C_17  and  C_18 
REMARK    3  A    between atoms: O_19  and  C_18 
REMARK    4  A    between atoms: C_20  and  O_21 
REMARK    5  A    between atoms: C_22  and  O_23 
REMARK    6  A    between atoms: C_24  and  O_25 
ROOT
HETATM    1  C   UNK N   1      34.892  13.441   9.910  0.00  0.00     0.144 C 
HETATM    2  C   UNK N   1      35.274  14.656   9.104  0.00  0.00     0.105 C 
HETATM    3  N   UNK N   1      33.442  13.443   9.860  0.00  0.00    -0.290 N 
HETATM    4  O   UNK N   1      33.089  14.758   9.907  0.00  0.00    -0.241 OA
HETATM    5  C   UNK N   1      33.928  15.373   8.965  0.00  0.00     0.220 C 
HETATM    6  O   UNK N   1      33.340  15.159   7.684  0.00  0.00    -0.341 OA
HETATM    7  C   UNK N   1      34.068  15.777   6.634  0.00  0.00     0.180 C 
HETATM    8  C   UNK N   1      34.154  17.307   6.826  0.00  0.00     0.180 C 
HETATM    9  C   UNK N   1      34.827  17.592   8.174  0.00  0.00     0.183 C 
HETATM   10  C   UNK N   1      34.035  16.884   9.282  0.00  0.00     0.214 C 
HETATM   11  H   UNK N   1      32.821  12.635   9.803  0.00  0.00     0.188 HD
ENDROOT
BRANCH  10  12
HETATM   12  O   UNK N   1      34.645  17.091  10.524  0.00  0.00    -0.387 OA
HETATM   13  H   UNK N   1      35.611  17.098  10.597  0.00  0.00     0.210 HD
ENDBRANCH  10  12
BRANCH   7  14
HETATM   14  C   UNK N   1      33.404  15.414   5.306  0.00  0.00     0.198 C 
BRANCH  14  15
HETATM   15  O   UNK N   1      33.499  16.465   4.389  0.00  0.00    -0.398 OA
HETATM   16  H   UNK N   1      33.879  16.926   3.626  0.00  0.00     0.209 HD
ENDBRANCH  14  15
ENDBRANCH   7  14
BRANCH   1  17
HETATM   17  C   UNK N   1      35.302  13.503  11.360  0.00  0.00    -0.033 A 
HETATM   18  C   UNK N   1      34.804  12.526  12.233  0.00  0.00     0.021 A 
HETATM   19  C   UNK N   1      35.071  12.594  13.598  0.00  0.00    -0.025 A 
HETATM   20  C   UNK N   1      35.857  13.649  14.110  0.00  0.00    -0.026 A 
HETATM   21  C   UNK N   1      34.541  11.633  14.463  0.00  0.00     0.012 A 
HETATM   22  C   UNK N   1      36.378  14.613  13.241  0.00  0.00     0.013 A 
HETATM   23  C   UNK N   1      36.102  13.728  15.483  0.00  0.00     0.012 A 
HETATM   24  C   UNK N   1      36.098  14.544  11.872  0.00  0.00     0.010 A 
HETATM   25  C   UNK N   1      35.564  12.766  16.345  0.00  0.00     0.001 A 
HETATM   26  C   UNK N   1      34.787  11.719  15.836  0.00  0.00     0.001 A 
ENDBRANCH   1  17
BRANCH   9  27
HETATM   27  O   UNK N   1      34.871  18.969   8.410  0.00  0.00    -0.390 OA
HETATM   28  H   UNK N   1      34.694  19.409   9.256  0.00  0.00     0.210 HD
ENDBRANCH   9  27
BRANCH   8  29
HETATM   29  O   UNK N   1      32.876  17.878   6.804  0.00  0.00    -0.390 OA
HETATM   30  H   UNK N   1      32.237  18.608   6.792  0.00  0.00     0.210 HD
ENDBRANCH   8  29
TORSDOF 6
ENDMDL
MODEL 4
REMARK VINA RESULT:      -7.5      3.058      7.809
REMARK  6 active torsions:
REMARK  status: ('A' for Active; 'I' for Inactive)
REMARK    1  A    between atoms: C_11  and  C_10 
REMARK    2  A    between atoms: C_17  and  C_18 
REMARK    3  A    between atoms: O_19  and  C_18 
REMARK    4  A    between atoms: C_20  and  O_21 
REMARK    5  A    between atoms: C_22  and  O_23 
REMARK    6  A    between atoms: C_24  and  O_25 
ROOT
HETATM    1  C   UNK N   1      36.133  15.336  11.921  0.00  0.00     0.144 C 
HETATM    2  C   UNK N   1      34.794  15.469  11.242  0.00  0.00     0.105 C 
HETATM    3  N   UNK N   1      37.072  15.301  10.817  0.00  0.00    -0.290 N 
HETATM    4  O   UNK N   1      36.437  14.602   9.835  0.00  0.00    -0.241 OA
HETATM    5  C   UNK N   1      35.155  15.170   9.784  0.00  0.00     0.220 C 
HETATM    6  O   UNK N   1      35.258  16.361   9.007  0.00  0.00    -0.341 OA
HETATM    7  C   UNK N   1      34.011  17.015   8.833  0.00  0.00     0.180 C 
HETATM    8  C   UNK N   1      32.989  16.109   8.111  0.00  0.00     0.180 C 
HETATM    9  C   UNK N   1      32.804  14.830   8.937  0.00  0.00     0.183 C 
HETATM   10  C   UNK N   1      34.173  14.165   9.134  0.00  0.00     0.214 C 
HETATM   11  H   UNK N   1      38.007  15.710  10.782  0.00  0.00     0.188 HD
ENDROOT
BRANCH  10  12
HETATM   12  O   UNK N   1      34.047  13.014   9.919  0.00  0.00    -0.387 OA
HETATM   13  H   UNK N   1      34.256  12.144   9.544  0.00  0.00     0.210 HD
ENDBRANCH  10  12
BRANCH   7  14
HETATM   14  C   UNK N   1      34.250  18.315   8.064  0.00  0.00     0.198 C 
BRANCH  14  15
HETATM   15  O   UNK N   1      35.298  19.049   8.624  0.00  0.00    -0.398 OA
HETATM   16  H   UNK N   1      36.078  19.624   8.588  0.00  0.00     0.209 HD
ENDBRANCH  14  15
ENDBRANCH   7  14
BRANCH   1  17
HETATM   17  C   UNK N   1      36.305  14.062  12.712  0.00  0.00    -0.033 A 
HETATM   18  C   UNK N   1      35.729  13.990  13.987  0.00  0.00     0.021 A 
HETATM   19  C   UNK N   1      35.941  12.878  14.798  0.00  0.00    -0.025 A 
HETATM   20  C   UNK N   1      36.735  11.807  14.332  0.00  0.00    -0.026 A 
HETATM   21  C   UNK N   1      35.388  12.832  16.080  0.00  0.00     0.012 A 
HETATM   22  C   UNK N   1      37.293  11.863  13.050  0.00  0.00     0.013 A 
HETATM   23  C   UNK N   1      36.966  10.705  15.157  0.00  0.00     0.012 A 
HETATM   24  C   UNK N   1      37.083  12.987  12.245  0.00  0.00     0.010 A 
HETATM   25  C   UNK N   1      36.415  10.666  16.442  0.00  0.00     0.001 A 
HETATM   26  C   UNK N   1      35.627  11.727  16.903  0.00  0.00     0.001 A 
ENDBRANCH   1  17
BRANCH   9  27
HETATM   27  O   UNK N   1      31.927  13.958   8.286  0.00  0.00    -0.390 OA
HETATM   28  H   UNK N   1      31.247  13.411   8.709  0.00  0.00     0.210 HD
ENDBRANCH   9  27
BRANCH   8  29
HETATM   29  O   UNK N   1      33.442  15.783   6.827  0.00  0.00    -0.390 OA
HETATM   30  H   UNK N   1      33.999  15.878   6.039  0.00  0.00     0.210 HD
ENDBRANCH   8  29
TORSDOF 6
ENDMDL
MODEL 5
REMARK VINA RESULT:      -7.5      1.804      2.514
REMARK  6 active torsions:
REMARK  status: ('A' for Active; 'I' for Inactive)
REMARK    1  A    between atoms: C_11  and  C_10 
REMARK    2  A    between atoms: C_17  and  C_18 
REMARK    3  A    between atoms: O_19  and  C_18 
REMARK    4  A    between atoms: C_20  and  O_21 
REMARK    5  A    between atoms: C_22  and  O_23 
REMARK    6  A    between atoms: C_24  and  O_25 
ROOT
HETATM    1  C   UNK N   1      33.216  14.952   6.575  0.00  0.00     0.144 C 
HETATM    2  C   UNK N   1      33.532  14.903   8.048  0.00  0.00     0.105 C 
HETATM    3  N   UNK N   1      34.450  15.427   5.979  0.00  0.00    -0.290 N 
HETATM    4  O   UNK N   1      34.948  16.330   6.870  0.00  0.00    -0.241 OA
HETATM    5  C   UNK N   1      34.851  15.679   8.109  0.00  0.00     0.220 C 
HETATM    6  O   UNK N   1      35.976  14.809   8.210  0.00  0.00    -0.341 OA
HETATM    7  C   UNK N   1      36.029  14.119   9.449  0.00  0.00     0.180 C 
HETATM    8  C   UNK N   1      36.122  15.096  10.641  0.00  0.00     0.180 C 
HETATM    9  C   UNK N   1      34.903  16.026  10.606  0.00  0.00     0.183 C 
HETATM   10  C   UNK N   1      34.857  16.731   9.243  0.00  0.00     0.214 C 
HETATM   11  H   UNK N   1      34.857  15.147   5.085  0.00  0.00     0.188 HD
ENDROOT
BRANCH  10  12
HETATM   12  O   UNK N   1      33.733  17.560   9.161  0.00  0.00    -0.387 OA
HETATM   13  H   UNK N   1      33.105  17.458   8.430  0.00  0.00     0.210 HD
ENDBRANCH  10  12
BRANCH   7  14
HETATM   14  C   UNK N   1      37.217  13.157   9.417  0.00  0.00     0.198 C 
BRANCH  14  15
HETATM   15  O   UNK N   1      37.848  13.092  10.662  0.00  0.00    -0.398 OA
HETATM   16  H   UNK N   1      37.947  12.783  11.576  0.00  0.00     0.209 HD
ENDBRANCH  14  15
ENDBRANCH   7  14
BRANCH   1  17
HETATM   17  C   UNK N   1      32.123  15.924   6.206  0.00  0.00    -0.033 A 
HETATM   18  C   UNK N   1      31.248  16.352   7.213  0.00  0.00     0.021 A 
HETATM   19  C   UNK N   1      30.163  17.169   6.908  0.00  0.00    -0.025 A 
HETATM   20  C   UNK N   1      29.944  17.581   5.575  0.00  0.00    -0.026 A 
HETATM   21  C   UNK N   1      29.278  17.563   7.915  0.00  0.00     0.012 A 
HETATM   22  C   UNK N   1      30.828  17.177   4.569  0.00  0.00     0.013 A 
HETATM   23  C   UNK N   1      28.840  18.380   5.268  0.00  0.00     0.012 A 
HETATM   24  C   UNK N   1      31.911  16.348   4.881  0.00  0.00     0.010 A 
HETATM   25  C   UNK N   1      27.954  18.766   6.280  0.00  0.00     0.001 A 
HETATM   26  C   UNK N   1      28.173  18.359   7.601  0.00  0.00     0.001 A 
ENDBRANCH   1  17
BRANCH   9  27
HETATM   27  O   UNK N   1      34.981  16.964  11.639  0.00  0.00    -0.390 OA
HETATM   28  H   UNK N   1      34.393  17.726  11.764  0.00  0.00     0.210 HD
ENDBRANCH   9  27
BRANCH   8  29
HETATM   29  O   UNK N   1      37.298  15.853  10.566  0.00  0.00    -0.390 OA
HETATM   30  H   UNK N   1      38.167  16.162  10.865  0.00  0.00     0.210 HD
ENDBRANCH   8  29
TORSDOF 6
ENDMDL
MODEL 6
REMARK VINA RESULT:      -7.5      5.854      9.907
REMARK  6 active torsions:
REMARK  status: ('A' for Active; 'I' for Inactive)
REMARK    1  A    between atoms: C_11  and  C_10 
REMARK    2  A    between atoms: C_17  and  C_18 
REMARK    3  A    between atoms: O_19  and  C_18 
REMARK    4  A    between atoms: C_20  and  O_21 
REMARK    5  A    between atoms: C_22  and  O_23 
REMARK    6  A    between atoms: C_24  and  O_25 
ROOT
HETATM    1  C   UNK N   1      34.975  13.407  16.068  0.00  0.00     0.144 C 
HETATM    2  C   UNK N   1      35.118  12.802  14.695  0.00  0.00     0.105 C 
HETATM    3  N   UNK N   1      36.056  14.372  16.129  0.00  0.00    -0.290 N 
HETATM    4  O   UNK N   1      37.087  13.789  15.455  0.00  0.00    -0.241 OA
HETATM    5  C   UNK N   1      36.499  13.312  14.274  0.00  0.00     0.220 C 
HETATM    6  O   UNK N   1      36.408  14.417  13.379  0.00  0.00    -0.341 OA
HETATM    7  C   UNK N   1      35.871  14.060  12.115  0.00  0.00     0.180 C 
HETATM    8  C   UNK N   1      36.739  12.996  11.408  0.00  0.00     0.180 C 
HETATM    9  C   UNK N   1      36.827  11.761  12.313  0.00  0.00     0.183 C 
HETATM   10  C   UNK N   1      37.380  12.186  13.680  0.00  0.00     0.214 C 
HETATM   11  H   UNK N   1      36.047  15.288  16.579  0.00  0.00     0.188 HD
ENDROOT
BRANCH  10  12
HETATM   12  O   UNK N   1      37.437  11.089  14.546  0.00  0.00    -0.387 OA
HETATM   13  H   UNK N   1      36.835  10.340  14.423  0.00  0.00     0.210 HD
ENDBRANCH  10  12
BRANCH   7  14
HETATM   14  C   UNK N   1      35.738  15.327  11.269  0.00  0.00     0.198 C 
BRANCH  14  15
HETATM   15  O   UNK N   1      36.970  15.973  11.129  0.00  0.00    -0.398 OA
HETATM   16  H   UNK N   1      37.545  16.750  11.058  0.00  0.00     0.209 HD
ENDBRANCH  14  15
ENDBRANCH   7  14
BRANCH   1  17
HETATM   17  C   UNK N   1      35.167  12.429  17.201  0.00  0.00    -0.033 A 
HETATM   18  C   UNK N   1      35.130  11.059  16.909  0.00  0.00     0.021 A 
HETATM   19  C   UNK N   1      35.203  10.115  17.929  0.00  0.00    -0.025 A 
HETATM   20  C   UNK N   1      35.324  10.537  19.272  0.00  0.00    -0.026 A 
HETATM   21  C   UNK N   1      35.131   8.753  17.629  0.00  0.00     0.012 A 
HETATM   22  C   UNK N   1      35.386  11.902  19.568  0.00  0.00     0.013 A 
HETATM   23  C   UNK N   1      35.370   9.588  20.296  0.00  0.00     0.012 A 
HETATM   24  C   UNK N   1      35.303  12.846  18.538  0.00  0.00     0.010 A 
HETATM   25  C   UNK N   1      35.293   8.225  19.989  0.00  0.00     0.001 A 
HETATM   26  C   UNK N   1      35.175   7.808  18.658  0.00  0.00     0.001 A 
ENDBRANCH   1  17
BRANCH   9  27
HETATM   27  O   UNK N   1      37.654  10.795  11.732  0.00  0.00    -0.390 OA
HETATM   28  H   UNK N   1      37.444   9.853  11.626  0.00  0.00     0.210 HD
ENDBRANCH   9  27
BRANCH   8  29
HETATM   29  O   UNK N   1      38.024  13.494  11.160  0.00  0.00    -0.390 OA
HETATM   30  H   UNK N   1      38.953  13.679  11.370  0.00  0.00     0.210 HD
ENDBRANCH   8  29
TORSDOF 6
ENDMDL
MODEL 7
REMARK VINA RESULT:      -7.4      5.621     10.183
REMARK  6 active torsions:
REMARK  status: ('A' for Active; 'I' for Inactive)
REMARK    1  A    between atoms: C_11  and  C_10 
REMARK    2  A    between atoms: C_17  and  C_18 
REMARK    3  A    between atoms: O_19  and  C_18 
REMARK    4  A    between atoms: C_20  and  O_21 
REMARK    5  A    between atoms: C_22  and  O_23 
REMARK    6  A    between atoms: C_24  and  O_25 
ROOT
HETATM    1  C   UNK N   1      34.379  11.739  15.133  0.00  0.00     0.144 C 
HETATM    2  C   UNK N   1      35.026  11.725  13.772  0.00  0.00     0.105 C 
HETATM    3  N   UNK N   1      34.481  13.127  15.543  0.00  0.00    -0.290 N 
HETATM    4  O   UNK N   1      35.684  13.549  15.064  0.00  0.00    -0.241 OA
HETATM    5  C   UNK N   1      35.702  13.099  13.735  0.00  0.00     0.220 C 
HETATM    6  O   UNK N   1      34.955  14.040  12.968  0.00  0.00    -0.341 OA
HETATM    7  C   UNK N   1      34.933  13.728  11.583  0.00  0.00     0.180 C 
HETATM    8  C   UNK N   1      36.356  13.707  10.984  0.00  0.00     0.180 C 
HETATM    9  C   UNK N   1      37.191  12.670  11.746  0.00  0.00     0.183 C 
HETATM   10  C   UNK N   1      37.166  13.016  13.241  0.00  0.00     0.214 C 
HETATM   11  H   UNK N   1      33.799  13.670  16.076  0.00  0.00     0.188 HD
ENDROOT
BRANCH  10  12
HETATM   12  O   UNK N   1      37.887  12.066  13.973  0.00  0.00    -0.387 OA
HETATM   13  H   UNK N   1      37.833  12.054  14.940  0.00  0.00     0.210 HD
ENDBRANCH  10  12
BRANCH   7  14
HETATM   14  C   UNK N   1      34.040  14.745  10.872  0.00  0.00     0.198 C 
BRANCH  14  15
HETATM   15  O   UNK N   1      34.479  16.052  11.102  0.00  0.00    -0.398 OA
HETATM   16  H   UNK N   1      34.783  16.931  10.829  0.00  0.00     0.209 HD
ENDBRANCH  14  15
ENDBRANCH   7  14
BRANCH   1  17
HETATM   17  C   UNK N   1      35.089  10.901  16.167  0.00  0.00    -0.033 A 
HETATM   18  C   UNK N   1      35.129  11.369  17.487  0.00  0.00     0.021 A 
HETATM   19  C   UNK N   1      35.854  10.686  18.459  0.00  0.00    -0.025 A 
HETATM   20  C   UNK N   1      36.549   9.504  18.119  0.00  0.00    -0.026 A 
HETATM   21  C   UNK N   1      35.915  11.180  19.765  0.00  0.00     0.012 A 
HETATM   22  C   UNK N   1      36.493   9.018  16.809  0.00  0.00     0.013 A 
HETATM   23  C   UNK N   1      37.297   8.835  19.090  0.00  0.00     0.012 A 
HETATM   24  C   UNK N   1      35.770   9.715  15.835  0.00  0.00     0.010 A 
HETATM   25  C   UNK N   1      37.358   9.338  20.395  0.00  0.00     0.001 A 
HETATM   26  C   UNK N   1      36.667  10.508  20.731  0.00  0.00     0.001 A 
ENDBRANCH   1  17
BRANCH   9  27
HETATM   27  O   UNK N   1      38.504  12.662  11.268  0.00  0.00    -0.390 OA
HETATM   28  H   UNK N   1      39.164  13.362  11.399  0.00  0.00     0.210 HD
ENDBRANCH   9  27
BRANCH   8  29
HETATM   29  O   UNK N   1      36.955  14.968  11.091  0.00  0.00    -0.390 OA
HETATM   30  H   UNK N   1      37.464  15.731  10.776  0.00  0.00     0.210 HD
ENDBRANCH   8  29
TORSDOF 6
ENDMDL
MODEL 8
REMARK VINA RESULT:      -7.1      2.127      3.003
REMARK  6 active torsions:
REMARK  status: ('A' for Active; 'I' for Inactive)
REMARK    1  A    between atoms: C_11  and  C_10 
REMARK    2  A    between atoms: C_17  and  C_18 
REMARK    3  A    between atoms: O_19  and  C_18 
REMARK    4  A    between atoms: C_20  and  O_21 
REMARK    5  A    between atoms: C_22  and  O_23 
REMARK    6  A    between atoms: C_24  and  O_25 
ROOT
HETATM    1  C   UNK N   1      33.676  17.390   6.747  0.00  0.00     0.144 C 
HETATM    2  C   UNK N   1      34.166  16.096   7.344  0.00  0.00     0.105 C 
HETATM    3  N   UNK N   1      33.011  18.046   7.857  0.00  0.00    -0.290 N 
HETATM    4  O   UNK N   1      32.413  17.040   8.554  0.00  0.00    -0.241 OA
HETATM    5  C   UNK N   1      33.415  16.065   8.677  0.00  0.00     0.220 C 
HETATM    6  O   UNK N   1      34.246  16.459   9.766  0.00  0.00    -0.341 OA
HETATM    7  C   UNK N   1      35.281  15.526  10.035  0.00  0.00     0.180 C 
HETATM    8  C   UNK N   1      34.714  14.136  10.398  0.00  0.00     0.180 C 
HETATM    9  C   UNK N   1      33.848  13.644   9.232  0.00  0.00     0.183 C 
HETATM   10  C   UNK N   1      32.760  14.688   8.947  0.00  0.00     0.214 C 
HETATM   11  H   UNK N   1      32.994  19.044   8.070  0.00  0.00     0.188 HD
ENDROOT
BRANCH  10  12
HETATM   12  O   UNK N   1      31.974  14.289   7.861  0.00  0.00    -0.387 OA
HETATM   13  H   UNK N   1      32.295  13.607   7.252  0.00  0.00     0.210 HD
ENDBRANCH  10  12
BRANCH   7  14
HETATM   14  C   UNK N   1      36.158  16.085  11.156  0.00  0.00     0.198 C 
BRANCH  14  15
HETATM   15  O   UNK N   1      36.648  15.062  11.972  0.00  0.00    -0.398 OA
HETATM   16  H   UNK N   1      36.755  14.138  12.244  0.00  0.00     0.209 HD
ENDBRANCH  14  15
ENDBRANCH   7  14
BRANCH   1  17
HETATM   17  C   UNK N   1      32.664  17.221   5.640  0.00  0.00    -0.033 A 
HETATM   18  C   UNK N   1      31.307  17.157   5.986  0.00  0.00     0.021 A 
HETATM   19  C   UNK N   1      30.341  16.902   5.017  0.00  0.00    -0.025 A 
HETATM   20  C   UNK N   1      30.726  16.714   3.670  0.00  0.00    -0.026 A 
HETATM   21  C   UNK N   1      28.995  16.808   5.378  0.00  0.00     0.012 A 
HETATM   22  C   UNK N   1      32.076  16.801   3.316  0.00  0.00     0.013 A 
HETATM   23  C   UNK N   1      29.757  16.434   2.705  0.00  0.00     0.012 A 
HETATM   24  C   UNK N   1      33.042  17.048   4.296  0.00  0.00     0.010 A 
HETATM   25  C   UNK N   1      28.411  16.335   3.073  0.00  0.00     0.001 A 
HETATM   26  C   UNK N   1      28.031  16.523   4.408  0.00  0.00     0.001 A 
ENDBRANCH   1  17
BRANCH   9  27
HETATM   27  O   UNK N   1      33.270  12.411   9.548  0.00  0.00    -0.390 OA
HETATM   28  H   UNK N   1      32.834  12.182  10.385  0.00  0.00     0.210 HD
ENDBRANCH   9  27
BRANCH   8  29
HETATM   29  O   UNK N   1      33.942  14.209  11.564  0.00  0.00    -0.390 OA
HETATM   30  H   UNK N   1      33.667  14.582  12.416  0.00  0.00     0.210 HD
ENDBRANCH   8  29
TORSDOF 6
ENDMDL
MODEL 9
REMARK VINA RESULT:      -7.1      4.234      8.365
REMARK  6 active torsions:
REMARK  status: ('A' for Active; 'I' for Inactive)
REMARK    1  A    between atoms: C_11  and  C_10 
REMARK    2  A    between atoms: C_17  and  C_18 
REMARK    3  A    between atoms: O_19  and  C_18 
REMARK    4  A    between atoms: C_20  and  O_21 
REMARK    5  A    between atoms: C_22  and  O_23 
REMARK    6  A    between atoms: C_24  and  O_25 
ROOT
HETATM    1  C   UNK N   1      37.330  12.402  12.351  0.00  0.00     0.144 C 
HETATM    2  C   UNK N   1      36.911  13.604  11.542  0.00  0.00     0.105 C 
HETATM    3  N   UNK N   1      36.676  11.296  11.679  0.00  0.00    -0.290 N 
HETATM    4  O   UNK N   1      35.472  11.791  11.275  0.00  0.00    -0.241 OA
HETATM    5  C   UNK N   1      35.790  13.021  10.679  0.00  0.00     0.220 C 
HETATM    6  O   UNK N   1      36.231  12.738   9.353  0.00  0.00    -0.341 OA
HETATM    7  C   UNK N   1      36.540  13.910   8.614  0.00  0.00     0.180 C 
HETATM    8  C   UNK N   1      35.312  14.837   8.478  0.00  0.00     0.180 C 
HETATM    9  C   UNK N   1      34.827  15.211   9.884  0.00  0.00     0.183 C 
HETATM   10  C   UNK N   1      34.533  13.924  10.666  0.00  0.00     0.214 C 
HETATM   11  H   UNK N   1      37.037  10.351  11.539  0.00  0.00     0.188 HD
ENDROOT
BRANCH  10  12
HETATM   12  O   UNK N   1      34.124  14.228  11.969  0.00  0.00    -0.387 OA
HETATM   13  H   UNK N   1      34.601  14.895  12.485  0.00  0.00     0.210 HD
ENDBRANCH  10  12
BRANCH   7  14
HETATM   14  C   UNK N   1      37.081  13.491   7.246  0.00  0.00     0.198 C 
BRANCH  14  15
HETATM   15  O   UNK N   1      36.769  14.438   6.268  0.00  0.00    -0.398 OA
HETATM   16  H   UNK N   1      36.765  15.329   5.884  0.00  0.00     0.209 HD
ENDBRANCH  14  15
ENDBRANCH   7  14
BRANCH   1  17
HETATM   17  C   UNK N   1      36.852  12.418  13.782  0.00  0.00    -0.033 A 
HETATM   18  C   UNK N   1      36.994  11.250  14.542  0.00  0.00     0.021 A 
HETATM   19  C   UNK N   1      36.481  11.179  15.835  0.00  0.00    -0.025 A 
HETATM   20  C   UNK N   1      35.818  12.295  16.391  0.00  0.00    -0.026 A 
HETATM   21  C   UNK N   1      36.600   9.998  16.571  0.00  0.00     0.012 A 
HETATM   22  C   UNK N   1      35.695  13.472  15.646  0.00  0.00     0.013 A 
HETATM   23  C   UNK N   1      35.282  12.213  17.678  0.00  0.00     0.012 A 
HETATM   24  C   UNK N   1      36.205  13.533  14.345  0.00  0.00     0.010 A 
HETATM   25  C   UNK N   1      35.399  11.025  18.409  0.00  0.00     0.001 A 
HETATM   26  C   UNK N   1      36.059   9.921  17.857  0.00  0.00     0.001 A 
ENDBRANCH   1  17
BRANCH   9  27
HETATM   27  O   UNK N   1      33.679  16.006   9.803  0.00  0.00    -0.390 OA
HETATM   28  H   UNK N   1      32.834  15.836  10.248  0.00  0.00     0.210 HD
ENDBRANCH   9  27
BRANCH   8  29
HETATM   29  O   UNK N   1      34.285  14.193   7.778  0.00  0.00    -0.390 OA
HETATM   30  H   UNK N   1      33.500  13.631   7.685  0.00  0.00     0.210 HD
ENDBRANCH   8  29
TORSDOF 6
ENDMDL
