MODEL 1
REMARK VINA RESULT:      -5.2      0.000      0.000
REMARK  8 active torsions:
REMARK  status: ('A' for Active; 'I' for Inactive)
REMARK    1  A    between atoms: C_2  and  O_3 
REMARK       I    between atoms: C_2  and  N_6 
REMARK    2  A    between atoms: O_3  and  C_4 
REMARK    3  A    between atoms: N_6  and  C_7 
REMARK    4  A    between atoms: C_7  and  C_8 
REMARK    5  A    between atoms: C_8  and  C_9 
REMARK    6  A    between atoms: C_9  and  N_10 
REMARK       I    between atoms: N_10  and  C_11 
REMARK    7  A    between atoms: C_11  and  O_13 
REMARK    8  A    between atoms: O_13  and  C_14 
ROOT
HETATM    1  C   UNK N   1      36.054  15.770  10.388  0.00  0.00     0.039 C 
ENDROOT
BRANCH   1   2
HETATM    2  C   UNK N   1      35.458  14.995  11.541  0.00  0.00     0.126 C 
BRANCH   2   3
HETATM    3  N   UNK N   1      36.398  14.739  12.602  0.00  0.00    -0.337 N 
HETATM    4  C   UNK N   1      36.026  13.961  13.648  0.00  0.00     0.360 C 
HETATM    5  O   UNK N   1      34.899  13.481  13.686  0.00  0.00    -0.239 OA
HETATM    6  H   UNK N   1      37.302  15.126  12.568  0.00  0.00     0.164 HD
BRANCH   4   7
HETATM    7  O   UNK N   1      36.904  13.715  14.650  0.00  0.00    -0.304 OA
BRANCH   7   8
HETATM    8  C   UNK N   1      36.728  14.253  15.907  0.00  0.00     0.176 C 
HETATM    9  C   UNK N   1      37.445  15.580  16.004  0.00  0.00     0.034 C 
ENDBRANCH   7   8
ENDBRANCH   4   7
ENDBRANCH   2   3
ENDBRANCH   1   2
BRANCH   1  10
HETATM   10  C   UNK N   1      35.109  16.938  10.230  0.00  0.00     0.126 C 
BRANCH  10  11
HETATM   11  N   UNK N   1      34.486  16.997   8.933  0.00  0.00    -0.337 N 
HETATM   12  C   UNK N   1      34.640  18.107   8.169  0.00  0.00     0.360 C 
HETATM   13  O   UNK N   1      35.303  19.050   8.585  0.00  0.00    -0.239 OA
HETATM   14  H   UNK N   1      33.954  16.238   8.602  0.00  0.00     0.164 HD
BRANCH  12  15
HETATM   15  O   UNK N   1      34.058  18.170   6.948  0.00  0.00    -0.304 OA
BRANCH  15  16
HETATM   16  C   UNK N   1      34.097  17.102   6.078  0.00  0.00     0.176 C 
HETATM   17  C   UNK N   1      32.988  17.228   5.059  0.00  0.00     0.034 C 
ENDBRANCH  15  16
ENDBRANCH  12  15
ENDBRANCH  10  11
ENDBRANCH   1  10
TORSDOF 8
ENDMDL
MODEL 2
REMARK VINA RESULT:      -4.8      1.933      2.488
REMARK  8 active torsions:
REMARK  status: ('A' for Active; 'I' for Inactive)
REMARK    1  A    between atoms: C_2  and  O_3 
REMARK       I    between atoms: C_2  and  N_6 
REMARK    2  A    between atoms: O_3  and  C_4 
REMARK    3  A    between atoms: N_6  and  C_7 
REMARK    4  A    between atoms: C_7  and  C_8 
REMARK    5  A    between atoms: C_8  and  C_9 
REMARK    6  A    between atoms: C_9  and  N_10 
REMARK       I    between atoms: N_10  and  C_11 
REMARK    7  A    between atoms: C_11  and  O_13 
REMARK    8  A    between atoms: O_13  and  C_14 
ROOT
HETATM    1  C   UNK N   1      35.614  15.330  10.483  0.00  0.00     0.039 C 
ENDROOT
BRANCH   1   2
HETATM    2  C   UNK N   1      34.453  14.715  11.230  0.00  0.00     0.126 C 
BRANCH   2   3
HETATM    3  N   UNK N   1      34.642  13.319  11.528  0.00  0.00    -0.337 N 
HETATM    4  C   UNK N   1      35.033  12.950  12.773  0.00  0.00     0.360 C 
HETATM    5  O   UNK N   1      35.224  13.802  13.634  0.00  0.00    -0.239 OA
HETATM    6  H   UNK N   1      34.488  12.638  10.835  0.00  0.00     0.164 HD
BRANCH   4   7
HETATM    7  O   UNK N   1      35.213  11.640  13.061  0.00  0.00    -0.304 OA
BRANCH   7   8
HETATM    8  C   UNK N   1      34.146  10.774  13.164  0.00  0.00     0.176 C 
HETATM    9  C   UNK N   1      33.627  10.762  14.584  0.00  0.00     0.034 C 
ENDBRANCH   7   8
ENDBRANCH   4   7
ENDBRANCH   2   3
ENDBRANCH   1   2
BRANCH   1  10
HETATM   10  C   UNK N   1      35.258  16.799  10.437  0.00  0.00     0.126 C 
BRANCH  10  11
HETATM   11  N   UNK N   1      34.168  17.094   9.544  0.00  0.00    -0.337 N 
HETATM   12  C   UNK N   1      34.280  18.127   8.674  0.00  0.00     0.360 C 
HETATM   13  O   UNK N   1      35.303  18.802   8.651  0.00  0.00    -0.239 OA
HETATM   14  H   UNK N   1      33.348  16.549   9.565  0.00  0.00     0.164 HD
BRANCH  12  15
HETATM   15  O   UNK N   1      33.259  18.411   7.831  0.00  0.00    -0.304 OA
BRANCH  15  16
HETATM   16  C   UNK N   1      32.765  17.466   6.957  0.00  0.00     0.176 C 
HETATM   17  C   UNK N   1      33.712  17.299   5.791  0.00  0.00     0.034 C 
ENDBRANCH  15  16
ENDBRANCH  12  15
ENDBRANCH  10  11
ENDBRANCH   1  10
TORSDOF 8
ENDMDL
MODEL 3
REMARK VINA RESULT:      -4.7     15.825     19.199
REMARK  8 active torsions:
REMARK  status: ('A' for Active; 'I' for Inactive)
REMARK    1  A    between atoms: C_2  and  O_3 
REMARK       I    between atoms: C_2  and  N_6 
REMARK    2  A    between atoms: O_3  and  C_4 
REMARK    3  A    between atoms: N_6  and  C_7 
REMARK    4  A    between atoms: C_7  and  C_8 
REMARK    5  A    between atoms: C_8  and  C_9 
REMARK    6  A    between atoms: C_9  and  N_10 
REMARK       I    between atoms: N_10  and  C_11 
REMARK    7  A    between atoms: C_11  and  O_13 
REMARK    8  A    between atoms: O_13  and  C_14 
ROOT
HETATM    1  C   UNK N   1      28.054  24.289  -4.575  0.00  0.00     0.039 C 
ENDROOT
BRANCH   1   2
HETATM    2  C   UNK N   1      26.629  24.675  -4.251  0.00  0.00     0.126 C 
BRANCH   2   3
HETATM    3  N   UNK N   1      26.530  25.858  -3.436  0.00  0.00    -0.337 N 
HETATM    4  C   UNK N   1      25.844  26.932  -3.899  0.00  0.00     0.360 C 
HETATM    5  O   UNK N   1      25.315  26.891  -5.004  0.00  0.00    -0.239 OA
HETATM    6  H   UNK N   1      26.956  25.887  -2.549  0.00  0.00     0.164 HD
BRANCH   4   7
HETATM    7  O   UNK N   1      25.746  28.048  -3.138  0.00  0.00    -0.304 OA
BRANCH   7   8
HETATM    8  C   UNK N   1      26.385  29.217  -3.493  0.00  0.00     0.176 C 
HETATM    9  C   UNK N   1      27.627  29.400  -2.650  0.00  0.00     0.034 C 
ENDBRANCH   7   8
ENDBRANCH   4   7
ENDBRANCH   2   3
ENDBRANCH   1   2
BRANCH   1  10
HETATM   10  C   UNK N   1      28.575  23.750  -3.263  0.00  0.00     0.126 C 
BRANCH  10  11
HETATM   11  N   UNK N   1      29.848  23.087  -3.384  0.00  0.00    -0.337 N 
HETATM   12  C   UNK N   1      30.551  22.784  -2.265  0.00  0.00     0.360 C 
HETATM   13  O   UNK N   1      30.102  23.073  -1.162  0.00  0.00    -0.239 OA
HETATM   14  H   UNK N   1      30.205  22.856  -4.272  0.00  0.00     0.164 HD
BRANCH  12  15
HETATM   15  O   UNK N   1      31.748  22.161  -2.371  0.00  0.00    -0.304 OA
BRANCH  15  16
HETATM   16  C   UNK N   1      32.246  21.765  -3.593  0.00  0.00     0.176 C 
HETATM   17  C   UNK N   1      33.478  20.910  -3.395  0.00  0.00     0.034 C 
ENDBRANCH  15  16
ENDBRANCH  12  15
ENDBRANCH  10  11
ENDBRANCH   1  10
TORSDOF 8
ENDMDL
MODEL 4
REMARK VINA RESULT:      -4.6      4.169      6.381
REMARK  8 active torsions:
REMARK  status: ('A' for Active; 'I' for Inactive)
REMARK    1  A    between atoms: C_2  and  O_3 
REMARK       I    between atoms: C_2  and  N_6 
REMARK    2  A    between atoms: O_3  and  C_4 
REMARK    3  A    between atoms: N_6  and  C_7 
REMARK    4  A    between atoms: C_7  and  C_8 
REMARK    5  A    between atoms: C_8  and  C_9 
REMARK    6  A    between atoms: C_9  and  N_10 
REMARK       I    between atoms: N_10  and  C_11 
REMARK    7  A    between atoms: C_11  and  O_13 
REMARK    8  A    between atoms: O_13  and  C_14 
ROOT
HETATM    1  C   UNK N   1      30.821  18.062   8.703  0.00  0.00     0.039 C 
ENDROOT
BRANCH   1   2
HETATM    2  C   UNK N   1      32.119  17.633   8.060  0.00  0.00     0.126 C 
BRANCH   2   3
HETATM    3  N   UNK N   1      33.165  17.362   9.013  0.00  0.00    -0.337 N 
HETATM    4  C   UNK N   1      34.432  17.765   8.746  0.00  0.00     0.360 C 
HETATM    5  O   UNK N   1      34.680  18.354   7.700  0.00  0.00    -0.239 OA
HETATM    6  H   UNK N   1      32.962  16.888   9.852  0.00  0.00     0.164 HD
BRANCH   4   7
HETATM    7  O   UNK N   1      35.420  17.514   9.637  0.00  0.00    -0.304 OA
BRANCH   7   8
HETATM    8  C   UNK N   1      35.239  16.632  10.681  0.00  0.00     0.176 C 
HETATM    9  C   UNK N   1      36.288  15.544  10.623  0.00  0.00     0.034 C 
ENDBRANCH   7   8
ENDBRANCH   4   7
ENDBRANCH   2   3
ENDBRANCH   1   2
BRANCH   1  10
HETATM   10  C   UNK N   1      29.773  17.350   7.879  0.00  0.00     0.126 C 
BRANCH  10  11
HETATM   11  N   UNK N   1      28.901  18.247   7.165  0.00  0.00    -0.337 N 
HETATM   12  C   UNK N   1      28.831  18.174   5.813  0.00  0.00     0.360 C 
HETATM   13  O   UNK N   1      29.507  17.350   5.207  0.00  0.00    -0.239 OA
HETATM   14  H   UNK N   1      28.360  18.907   7.655  0.00  0.00     0.164 HD
BRANCH  12  15
HETATM   15  O   UNK N   1      28.014  19.015   5.135  0.00  0.00    -0.304 OA
BRANCH  15  16
HETATM   16  C   UNK N   1      26.881  19.540   5.719  0.00  0.00     0.176 C 
HETATM   17  C   UNK N   1      26.994  21.045   5.799  0.00  0.00     0.034 C 
ENDBRANCH  15  16
ENDBRANCH  12  15
ENDBRANCH  10  11
ENDBRANCH   1  10
TORSDOF 8
ENDMDL
MODEL 5
REMARK VINA RESULT:      -4.5      4.207      8.654
REMARK  8 active torsions:
REMARK  status: ('A' for Active; 'I' for Inactive)
REMARK    1  A    between atoms: C_2  and  O_3 
REMARK       I    between atoms: C_2  and  N_6 
REMARK    2  A    between atoms: O_3  and  C_4 
REMARK    3  A    between atoms: N_6  and  C_7 
REMARK    4  A    between atoms: C_7  and  C_8 
REMARK    5  A    between atoms: C_8  and  C_9 
REMARK    6  A    between atoms: C_9  and  N_10 
REMARK       I    between atoms: N_10  and  C_11 
REMARK    7  A    between atoms: C_11  and  O_13 
REMARK    8  A    between atoms: O_13  and  C_14 
ROOT
HETATM    1  C   UNK N   1      31.331  16.449   7.215  0.00  0.00     0.039 C 
ENDROOT
BRANCH   1   2
HETATM    2  C   UNK N   1      30.306  17.357   7.854  0.00  0.00     0.126 C 
BRANCH   2   3
HETATM    3  N   UNK N   1      29.339  17.873   6.920  0.00  0.00    -0.337 N 
HETATM    4  C   UNK N   1      28.310  18.631   7.374  0.00  0.00     0.360 C 
HETATM    5  O   UNK N   1      28.208  18.871   8.572  0.00  0.00    -0.239 OA
HETATM    6  H   UNK N   1      29.424  17.678   5.959  0.00  0.00     0.164 HD
BRANCH   4   7
HETATM    7  O   UNK N   1      27.398  19.120   6.502  0.00  0.00    -0.304 OA
BRANCH   7   8
HETATM    8  C   UNK N   1      27.696  20.175   5.666  0.00  0.00     0.176 C 
HETATM    9  C   UNK N   1      27.287  21.477   6.316  0.00  0.00     0.034 C 
ENDBRANCH   7   8
ENDBRANCH   4   7
ENDBRANCH   2   3
ENDBRANCH   1   2
BRANCH   1  10
HETATM   10  C   UNK N   1      32.590  17.284   7.229  0.00  0.00     0.126 C 
BRANCH  10  11
HETATM   11  N   UNK N   1      33.387  17.093   8.414  0.00  0.00    -0.337 N 
HETATM   12  C   UNK N   1      34.509  17.834   8.590  0.00  0.00     0.360 C 
HETATM   13  O   UNK N   1      34.837  18.660   7.745  0.00  0.00    -0.239 OA
HETATM   14  H   UNK N   1      33.120  16.429   9.090  0.00  0.00     0.164 HD
BRANCH  12  15
HETATM   15  O   UNK N   1      35.263  17.661   9.701  0.00  0.00    -0.304 OA
BRANCH  15  16
HETATM   16  C   UNK N   1      35.022  16.625  10.578  0.00  0.00     0.176 C 
HETATM   17  C   UNK N   1      36.225  15.710  10.637  0.00  0.00     0.034 C 
ENDBRANCH  15  16
ENDBRANCH  12  15
ENDBRANCH  10  11
ENDBRANCH   1  10
TORSDOF 8
ENDMDL
MODEL 6
REMARK VINA RESULT:      -4.5      2.361      3.354
REMARK  8 active torsions:
REMARK  status: ('A' for Active; 'I' for Inactive)
REMARK    1  A    between atoms: C_2  and  O_3 
REMARK       I    between atoms: C_2  and  N_6 
REMARK    2  A    between atoms: O_3  and  C_4 
REMARK    3  A    between atoms: N_6  and  C_7 
REMARK    4  A    between atoms: C_7  and  C_8 
REMARK    5  A    between atoms: C_8  and  C_9 
REMARK    6  A    between atoms: C_9  and  N_10 
REMARK       I    between atoms: N_10  and  C_11 
REMARK    7  A    between atoms: C_11  and  O_13 
REMARK    8  A    between atoms: O_13  and  C_14 
ROOT
HETATM    1  C   UNK N   1      31.455  16.284   9.026  0.00  0.00     0.039 C 
ENDROOT
BRANCH   1   2
HETATM    2  C   UNK N   1      32.441  15.140   9.060  0.00  0.00     0.126 C 
BRANCH   2   3
HETATM    3  N   UNK N   1      32.890  14.813  10.389  0.00  0.00    -0.337 N 
HETATM    4  C   UNK N   1      34.196  14.982  10.712  0.00  0.00     0.360 C 
HETATM    5  O   UNK N   1      34.985  15.410   9.877  0.00  0.00    -0.239 OA
HETATM    6  H   UNK N   1      32.254  14.469  11.057  0.00  0.00     0.164 HD
BRANCH   4   7
HETATM    7  O   UNK N   1      34.626  14.678  11.960  0.00  0.00    -0.304 OA
BRANCH   7   8
HETATM    8  C   UNK N   1      35.051  13.407  12.282  0.00  0.00     0.176 C 
HETATM    9  C   UNK N   1      35.671  13.406  13.661  0.00  0.00     0.034 C 
ENDBRANCH   7   8
ENDBRANCH   4   7
ENDBRANCH   2   3
ENDBRANCH   1   2
BRANCH   1  10
HETATM   10  C   UNK N   1      32.261  17.419   8.437  0.00  0.00     0.126 C 
BRANCH  10  11
HETATM   11  N   UNK N   1      32.514  17.267   7.027  0.00  0.00    -0.337 N 
HETATM   12  C   UNK N   1      33.690  17.701   6.510  0.00  0.00     0.360 C 
HETATM   13  O   UNK N   1      34.528  18.218   7.241  0.00  0.00    -0.239 OA
HETATM   14  H   UNK N   1      31.839  16.852   6.443  0.00  0.00     0.164 HD
BRANCH  12  15
HETATM   15  O   UNK N   1      33.936  17.561   5.186  0.00  0.00    -0.304 OA
BRANCH  15  16
HETATM   16  C   UNK N   1      32.915  17.590   4.259  0.00  0.00     0.176 C 
HETATM   17  C   UNK N   1      33.108  16.482   3.248  0.00  0.00     0.034 C 
ENDBRANCH  15  16
ENDBRANCH  12  15
ENDBRANCH  10  11
ENDBRANCH   1  10
TORSDOF 8
ENDMDL
MODEL 7
REMARK VINA RESULT:      -4.5      1.699      2.127
REMARK  8 active torsions:
REMARK  status: ('A' for Active; 'I' for Inactive)
REMARK    1  A    between atoms: C_2  and  O_3 
REMARK       I    between atoms: C_2  and  N_6 
REMARK    2  A    between atoms: O_3  and  C_4 
REMARK    3  A    between atoms: N_6  and  C_7 
REMARK    4  A    between atoms: C_7  and  C_8 
REMARK    5  A    between atoms: C_8  and  C_9 
REMARK    6  A    between atoms: C_9  and  N_10 
REMARK       I    between atoms: N_10  and  C_11 
REMARK    7  A    between atoms: C_11  and  O_13 
REMARK    8  A    between atoms: O_13  and  C_14 
ROOT
HETATM    1  C   UNK N   1      36.374  14.058  11.337  0.00  0.00     0.039 C 
ENDROOT
BRANCH   1   2
HETATM    2  C   UNK N   1      36.087  14.888  12.566  0.00  0.00     0.126 C 
BRANCH   2   3
HETATM    3  N   UNK N   1      36.639  14.330  13.774  0.00  0.00    -0.337 N 
HETATM    4  C   UNK N   1      35.860  13.555  14.567  0.00  0.00     0.360 C 
HETATM    5  O   UNK N   1      34.695  13.333  14.255  0.00  0.00    -0.239 OA
HETATM    6  H   UNK N   1      37.575  14.511  14.021  0.00  0.00     0.164 HD
BRANCH   4   7
HETATM    7  O   UNK N   1      36.372  13.027  15.704  0.00  0.00    -0.304 OA
BRANCH   7   8
HETATM    8  C   UNK N   1      35.597  12.859  16.831  0.00  0.00     0.176 C 
HETATM    9  C   UNK N   1      35.479  11.389  17.161  0.00  0.00     0.034 C 
ENDBRANCH   7   8
ENDBRANCH   4   7
ENDBRANCH   2   3
ENDBRANCH   1   2
BRANCH   1  10
HETATM   10  C   UNK N   1      36.579  15.096  10.257  0.00  0.00     0.126 C 
BRANCH  10  11
HETATM   11  N   UNK N   1      35.361  15.465   9.583  0.00  0.00    -0.337 N 
HETATM   12  C   UNK N   1      34.925  16.748   9.649  0.00  0.00     0.360 C 
HETATM   13  O   UNK N   1      35.567  17.582  10.278  0.00  0.00    -0.239 OA
HETATM   14  H   UNK N   1      34.848  14.793   9.079  0.00  0.00     0.164 HD
BRANCH  12  15
HETATM   15  O   UNK N   1      33.781  17.103   9.018  0.00  0.00    -0.304 OA
BRANCH  15  16
HETATM   16  C   UNK N   1      33.449  16.583   7.786  0.00  0.00     0.176 C 
HETATM   17  C   UNK N   1      33.653  17.630   6.714  0.00  0.00     0.034 C 
ENDBRANCH  15  16
ENDBRANCH  12  15
ENDBRANCH  10  11
ENDBRANCH   1  10
TORSDOF 8
ENDMDL
MODEL 8
REMARK VINA RESULT:      -4.5      1.746      7.824
REMARK  8 active torsions:
REMARK  status: ('A' for Active; 'I' for Inactive)
REMARK    1  A    between atoms: C_2  and  O_3 
REMARK       I    between atoms: C_2  and  N_6 
REMARK    2  A    between atoms: O_3  and  C_4 
REMARK    3  A    between atoms: N_6  and  C_7 
REMARK    4  A    between atoms: C_7  and  C_8 
REMARK    5  A    between atoms: C_8  and  C_9 
REMARK    6  A    between atoms: C_9  and  N_10 
REMARK       I    between atoms: N_10  and  C_11 
REMARK    7  A    between atoms: C_11  and  O_13 
REMARK    8  A    between atoms: O_13  and  C_14 
ROOT
HETATM    1  C   UNK N   1      35.499  15.407  10.140  0.00  0.00     0.039 C 
ENDROOT
BRANCH   1   2
HETATM    2  C   UNK N   1      35.216  16.885  10.004  0.00  0.00     0.126 C 
BRANCH   2   3
HETATM    3  N   UNK N   1      33.883  17.170   9.537  0.00  0.00    -0.337 N 
HETATM    4  C   UNK N   1      33.713  17.816   8.358  0.00  0.00     0.360 C 
HETATM    5  O   UNK N   1      34.689  18.154   7.697  0.00  0.00    -0.239 OA
HETATM    6  H   UNK N   1      33.102  16.898  10.071  0.00  0.00     0.164 HD
BRANCH   4   7
HETATM    7  O   UNK N   1      32.464  18.088   7.912  0.00  0.00    -0.304 OA
BRANCH   7   8
HETATM    8  C   UNK N   1      31.371  17.378   8.361  0.00  0.00     0.176 C 
HETATM    9  C   UNK N   1      30.297  17.360   7.298  0.00  0.00     0.034 C 
ENDBRANCH   7   8
ENDBRANCH   4   7
ENDBRANCH   2   3
ENDBRANCH   1   2
BRANCH   1  10
HETATM   10  C   UNK N   1      35.969  15.275  11.571  0.00  0.00     0.126 C 
BRANCH  10  11
HETATM   11  N   UNK N   1      35.242  14.283  12.320  0.00  0.00    -0.337 N 
HETATM   12  C   UNK N   1      35.637  13.978  13.581  0.00  0.00     0.360 C 
HETATM   13  O   UNK N   1      36.605  14.545  14.075  0.00  0.00    -0.239 OA
HETATM   14  H   UNK N   1      34.465  13.830  11.921  0.00  0.00     0.164 HD
BRANCH  12  15
HETATM   15  O   UNK N   1      34.959  13.047  14.292  0.00  0.00    -0.304 OA
BRANCH  15  16
HETATM   16  C   UNK N   1      34.899  13.097  15.668  0.00  0.00     0.176 C 
HETATM   17  C   UNK N   1      35.603  11.896  16.258  0.00  0.00     0.034 C 
ENDBRANCH  15  16
ENDBRANCH  12  15
ENDBRANCH  10  11
ENDBRANCH   1  10
TORSDOF 8
ENDMDL
MODEL 9
REMARK VINA RESULT:      -4.4     13.449     16.833
REMARK  8 active torsions:
REMARK  status: ('A' for Active; 'I' for Inactive)
REMARK    1  A    between atoms: C_2  and  O_3 
REMARK       I    between atoms: C_2  and  N_6 
REMARK    2  A    between atoms: O_3  and  C_4 
REMARK    3  A    between atoms: N_6  and  C_7 
REMARK    4  A    between atoms: C_7  and  C_8 
REMARK    5  A    between atoms: C_8  and  C_9 
REMARK    6  A    between atoms: C_9  and  N_10 
REMARK       I    between atoms: N_10  and  C_11 
REMARK    7  A    between atoms: C_11  and  O_13 
REMARK    8  A    between atoms: O_13  and  C_14 
ROOT
HETATM    1  C   UNK N   1      20.195  19.616   2.231  0.00  0.00     0.039 C 
ENDROOT
BRANCH   1   2
HETATM    2  C   UNK N   1      21.054  20.048   3.397  0.00  0.00     0.126 C 
BRANCH   2   3
HETATM    3  N   UNK N   1      22.362  19.445   3.396  0.00  0.00    -0.337 N 
HETATM    4  C   UNK N   1      23.451  20.213   3.145  0.00  0.00     0.360 C 
HETATM    5  O   UNK N   1      23.318  21.411   2.921  0.00  0.00    -0.239 OA
HETATM    6  H   UNK N   1      22.464  18.482   3.577  0.00  0.00     0.164 HD
BRANCH   4   7
HETATM    7  O   UNK N   1      24.683  19.652   3.143  0.00  0.00    -0.304 OA
BRANCH   7   8
HETATM    8  C   UNK N   1      25.812  20.400   2.883  0.00  0.00     0.176 C 
HETATM    9  C   UNK N   1      26.734  20.373   4.080  0.00  0.00     0.034 C 
ENDBRANCH   7   8
ENDBRANCH   4   7
ENDBRANCH   2   3
ENDBRANCH   1   2
BRANCH   1  10
HETATM   10  C   UNK N   1      19.468  18.404   2.767  0.00  0.00     0.126 C 
BRANCH  10  11
HETATM   11  N   UNK N   1      19.445  17.298   1.845  0.00  0.00    -0.337 N 
HETATM   12  C   UNK N   1      20.439  16.377   1.882  0.00  0.00     0.360 C 
HETATM   13  O   UNK N   1      21.348  16.489   2.698  0.00  0.00    -0.239 OA
HETATM   14  H   UNK N   1      18.713  17.212   1.191  0.00  0.00     0.164 HD
BRANCH  12  15
HETATM   15  O   UNK N   1      20.424  15.335   1.018  0.00  0.00    -0.304 OA
BRANCH  15  16
HETATM   16  C   UNK N   1      19.654  14.217   1.254  0.00  0.00     0.176 C 
HETATM   17  C   UNK N   1      18.528  14.145   0.249  0.00  0.00     0.034 C 
ENDBRANCH  15  16
ENDBRANCH  12  15
ENDBRANCH  10  11
ENDBRANCH   1  10
TORSDOF 8
ENDMDL
