MODEL 1
REMARK VINA RESULT:      -7.3      0.000      0.000
REMARK  6 active torsions:
REMARK  status: ('A' for Active; 'I' for Inactive)
REMARK    1  A    between atoms: C_8  and  C_7 
REMARK    2  A    between atoms: C_14  and  C_15 
REMARK    3  A    between atoms: O_16  and  C_15 
REMARK    4  A    between atoms: C_17  and  O_18 
REMARK    5  A    between atoms: C_19  and  O_20 
REMARK    6  A    between atoms: C_21  and  O_22 
ROOT
HETATM    1  C   UNK N   1      34.155  16.745   8.027  0.00  0.00     0.144 C 
HETATM    2  C   UNK N   1      34.516  15.407   8.614  0.00  0.00     0.105 C 
HETATM    3  N   UNK N   1      34.836  17.688   8.893  0.00  0.00    -0.290 N 
HETATM    4  O   UNK N   1      34.745  17.156  10.142  0.00  0.00    -0.241 OA
HETATM    5  C   UNK N   1      35.081  15.798   9.981  0.00  0.00     0.220 C 
HETATM    6  O   UNK N   1      36.504  15.712  10.011  0.00  0.00    -0.341 OA
HETATM    7  C   UNK N   1      36.981  14.376   9.936  0.00  0.00     0.180 C 
HETATM    8  C   UNK N   1      36.467  13.517  11.115  0.00  0.00     0.180 C 
HETATM    9  C   UNK N   1      34.933  13.520  11.106  0.00  0.00     0.183 C 
HETATM   10  C   UNK N   1      34.449  14.980  11.136  0.00  0.00     0.214 C 
HETATM   11  H   UNK N   1      35.288  18.562   8.623  0.00  0.00     0.188 HD
ENDROOT
BRANCH  10  12
HETATM   12  O   UNK N   1      33.053  15.031  11.090  0.00  0.00    -0.387 OA
HETATM   13  H   UNK N   1      32.526  14.321  11.489  0.00  0.00     0.210 HD
ENDBRANCH  10  12
BRANCH   7  14
HETATM   14  C   UNK N   1      38.509  14.406   9.895  0.00  0.00     0.198 C 
BRANCH  14  15
HETATM   15  O   UNK N   1      39.058  13.413  10.710  0.00  0.00    -0.398 OA
HETATM   16  H   UNK N   1      39.544  13.094  11.487  0.00  0.00     0.209 HD
ENDBRANCH  14  15
ENDBRANCH   7  14
BRANCH   1  17
HETATM   17  C   UNK N   1      32.676  17.061   8.052  0.00  0.00    -0.034 A 
HETATM   18  C   UNK N   1      31.796  16.227   7.346  0.00  0.00     0.010 A 
HETATM   19  C   UNK N   1      30.431  16.517   7.298  0.00  0.00     0.007 A 
HETATM   20  C   UNK N   1      29.933  17.645   7.953  0.00  0.00    -0.062 A 
HETATM   21  C   UNK N   1      30.798  18.476   8.670  0.00  0.00     0.007 A 
HETATM   22  C   UNK N   1      28.483  17.964   7.881  0.00  0.00     0.048 C 
HETATM   23  C   UNK N   1      32.165  18.185   8.722  0.00  0.00     0.010 A 
ENDBRANCH   1  17
BRANCH   9  24
HETATM   24  O   UNK N   1      34.461  12.867   9.964  0.00  0.00    -0.390 OA
HETATM   25  H   UNK N   1      33.930  12.760   9.158  0.00  0.00     0.210 HD
ENDBRANCH   9  24
BRANCH   8  26
HETATM   26  O   UNK N   1      36.924  14.034  12.333  0.00  0.00    -0.390 OA
HETATM   27  H   UNK N   1      36.895  14.199  13.289  0.00  0.00     0.210 HD
ENDBRANCH   8  26
TORSDOF 6
ENDMDL
MODEL 2
REMARK VINA RESULT:      -7.0      1.780      2.430
REMARK  6 active torsions:
REMARK  status: ('A' for Active; 'I' for Inactive)
REMARK    1  A    between atoms: C_8  and  C_7 
REMARK    2  A    between atoms: C_14  and  C_15 
REMARK    3  A    between atoms: O_16  and  C_15 
REMARK    4  A    between atoms: C_17  and  O_18 
REMARK    5  A    between atoms: C_19  and  O_20 
REMARK    6  A    between atoms: C_21  and  O_22 
ROOT
HETATM    1  C   UNK N   1      33.371  14.879   6.691  0.00  0.00     0.144 C 
HETATM    2  C   UNK N   1      33.605  14.779   8.175  0.00  0.00     0.105 C 
HETATM    3  N   UNK N   1      34.602  15.462   6.194  0.00  0.00    -0.290 N 
HETATM    4  O   UNK N   1      34.983  16.356   7.146  0.00  0.00    -0.241 OA
HETATM    5  C   UNK N   1      34.834  15.670   8.367  0.00  0.00     0.220 C 
HETATM    6  O   UNK N   1      36.020  14.902   8.563  0.00  0.00    -0.341 OA
HETATM    7  C   UNK N   1      36.036  14.214   9.806  0.00  0.00     0.180 C 
HETATM    8  C   UNK N   1      35.943  15.190  11.003  0.00  0.00     0.180 C 
HETATM    9  C   UNK N   1      34.653  16.011  10.882  0.00  0.00     0.183 C 
HETATM   10  C   UNK N   1      34.642  16.701   9.507  0.00  0.00     0.214 C 
HETATM   11  H   UNK N   1      35.081  15.247   5.319  0.00  0.00     0.188 HD
ENDROOT
BRANCH  10  12
HETATM   12  O   UNK N   1      33.462  17.432   9.338  0.00  0.00    -0.387 OA
HETATM   13  H   UNK N   1      32.763  17.391  10.010  0.00  0.00     0.210 HD
ENDBRANCH  10  12
BRANCH   7  14
HETATM   14  C   UNK N   1      37.306  13.366   9.877  0.00  0.00     0.198 C 
BRANCH  14  15
HETATM   15  O   UNK N   1      37.942  13.508  11.113  0.00  0.00    -0.398 OA
HETATM   16  H   UNK N   1      37.978  13.751  12.051  0.00  0.00     0.209 HD
ENDBRANCH  14  15
ENDBRANCH   7  14
BRANCH   1  17
HETATM   17  C   UNK N   1      32.225  15.784   6.298  0.00  0.00    -0.034 A 
HETATM   18  C   UNK N   1      31.169  15.967   7.204  0.00  0.00     0.010 A 
HETATM   19  C   UNK N   1      30.066  16.750   6.856  0.00  0.00     0.007 A 
HETATM   20  C   UNK N   1      30.006  17.354   5.599  0.00  0.00    -0.062 A 
HETATM   21  C   UNK N   1      31.058  17.189   4.693  0.00  0.00     0.007 A 
HETATM   22  C   UNK N   1      28.820  18.167   5.223  0.00  0.00     0.048 C 
HETATM   23  C   UNK N   1      32.165  16.408   5.041  0.00  0.00     0.010 A 
ENDBRANCH   1  17
BRANCH   9  24
HETATM   24  O   UNK N   1      33.541  15.176  11.023  0.00  0.00    -0.390 OA
HETATM   25  H   UNK N   1      32.598  14.959  11.099  0.00  0.00     0.210 HD
ENDBRANCH   9  24
BRANCH   8  26
HETATM   26  O   UNK N   1      37.043  16.055  11.015  0.00  0.00    -0.390 OA
HETATM   27  H   UNK N   1      37.986  16.285  11.036  0.00  0.00     0.210 HD
ENDBRANCH   8  26
TORSDOF 6
ENDMDL
MODEL 3
REMARK VINA RESULT:      -6.9      5.361      8.727
REMARK  6 active torsions:
REMARK  status: ('A' for Active; 'I' for Inactive)
REMARK    1  A    between atoms: C_8  and  C_7 
REMARK    2  A    between atoms: C_14  and  C_15 
REMARK    3  A    between atoms: O_16  and  C_15 
REMARK    4  A    between atoms: C_17  and  O_18 
REMARK    5  A    between atoms: C_19  and  O_20 
REMARK    6  A    between atoms: C_21  and  O_22 
ROOT
HETATM    1  C   UNK N   1      35.018  13.443  16.191  0.00  0.00     0.144 C 
HETATM    2  C   UNK N   1      35.139  12.850  14.813  0.00  0.00     0.105 C 
HETATM    3  N   UNK N   1      36.076  14.433  16.227  0.00  0.00    -0.290 N 
HETATM    4  O   UNK N   1      37.106  13.879  15.532  0.00  0.00    -0.241 OA
HETATM    5  C   UNK N   1      36.514  13.352  14.368  0.00  0.00     0.220 C 
HETATM    6  O   UNK N   1      36.410  14.421  13.430  0.00  0.00    -0.341 OA
HETATM    7  C   UNK N   1      35.895  14.008  12.172  0.00  0.00     0.180 C 
HETATM    8  C   UNK N   1      36.791  12.933  11.512  0.00  0.00     0.180 C 
HETATM    9  C   UNK N   1      36.899  11.725  12.450  0.00  0.00     0.183 C 
HETATM   10  C   UNK N   1      37.408  12.213  13.817  0.00  0.00     0.214 C 
HETATM   11  H   UNK N   1      36.053  15.349  16.676  0.00  0.00     0.188 HD
ENDROOT
BRANCH  10  12
HETATM   12  O   UNK N   1      37.485  11.146  14.717  0.00  0.00    -0.387 OA
HETATM   13  H   UNK N   1      36.678  10.693  15.006  0.00  0.00     0.210 HD
ENDBRANCH  10  12
BRANCH   7  14
HETATM   14  C   UNK N   1      35.751  15.238  11.276  0.00  0.00     0.198 C 
BRANCH  14  15
HETATM   15  O   UNK N   1      36.969  15.908  11.134  0.00  0.00    -0.398 OA
HETATM   16  H   UNK N   1      37.667  16.346  10.624  0.00  0.00     0.209 HD
ENDBRANCH  14  15
ENDBRANCH   7  14
BRANCH   1  17
HETATM   17  C   UNK N   1      35.249  12.460  17.318  0.00  0.00    -0.034 A 
HETATM   18  C   UNK N   1      35.254  12.936  18.638  0.00  0.00     0.010 A 
HETATM   19  C   UNK N   1      35.520  12.070  19.701  0.00  0.00     0.007 A 
HETATM   20  C   UNK N   1      35.786  10.722  19.455  0.00  0.00    -0.062 A 
HETATM   21  C   UNK N   1      35.770  10.234  18.145  0.00  0.00     0.007 A 
HETATM   22  C   UNK N   1      36.091   9.808  20.586  0.00  0.00     0.048 C 
HETATM   23  C   UNK N   1      35.501  11.099  17.079  0.00  0.00     0.010 A 
ENDBRANCH   1  17
BRANCH   9  24
HETATM   24  O   UNK N   1      35.650  11.109  12.580  0.00  0.00    -0.390 OA
HETATM   25  H   UNK N   1      34.991  10.514  12.972  0.00  0.00     0.210 HD
ENDBRANCH   9  24
BRANCH   8  26
HETATM   26  O   UNK N   1      38.070  13.445  11.268  0.00  0.00    -0.390 OA
HETATM   27  H   UNK N   1      38.820  13.724  10.718  0.00  0.00     0.210 HD
ENDBRANCH   8  26
TORSDOF 6
ENDMDL
MODEL 4
REMARK VINA RESULT:      -6.9      2.431      6.588
REMARK  6 active torsions:
REMARK  status: ('A' for Active; 'I' for Inactive)
REMARK    1  A    between atoms: C_8  and  C_7 
REMARK    2  A    between atoms: C_14  and  C_15 
REMARK    3  A    between atoms: O_16  and  C_15 
REMARK    4  A    between atoms: C_17  and  O_18 
REMARK    5  A    between atoms: C_19  and  O_20 
REMARK    6  A    between atoms: C_21  and  O_22 
ROOT
HETATM    1  C   UNK N   1      36.207  15.370  11.762  0.00  0.00     0.144 C 
HETATM    2  C   UNK N   1      34.801  15.527  11.245  0.00  0.00     0.105 C 
HETATM    3  N   UNK N   1      37.004  15.292  10.554  0.00  0.00    -0.290 N 
HETATM    4  O   UNK N   1      36.245  14.588   9.671  0.00  0.00    -0.241 OA
HETATM    5  C   UNK N   1      34.959  15.152   9.771  0.00  0.00     0.220 C 
HETATM    6  O   UNK N   1      34.938  16.301   8.926  0.00  0.00    -0.341 OA
HETATM    7  C   UNK N   1      33.664  16.927   8.872  0.00  0.00     0.180 C 
HETATM    8  C   UNK N   1      32.577  15.968   8.332  0.00  0.00     0.180 C 
HETATM    9  C   UNK N   1      32.507  14.729   9.234  0.00  0.00     0.183 C 
HETATM   10  C   UNK N   1      33.911  14.106   9.314  0.00  0.00     0.214 C 
HETATM   11  H   UNK N   1      37.934  15.683  10.399  0.00  0.00     0.188 HD
ENDROOT
BRANCH  10  12
HETATM   12  O   UNK N   1      33.902  12.992  10.160  0.00  0.00    -0.387 OA
HETATM   13  H   UNK N   1      34.630  12.849  10.784  0.00  0.00     0.210 HD
ENDBRANCH  10  12
BRANCH   7  14
HETATM   14  C   UNK N   1      33.774  18.184   8.009  0.00  0.00     0.198 C 
BRANCH  14  15
HETATM   15  O   UNK N   1      34.554  17.952   6.872  0.00  0.00    -0.398 OA
HETATM   16  H   UNK N   1      34.870  17.417   6.128  0.00  0.00     0.209 HD
ENDBRANCH  14  15
ENDBRANCH   7  14
BRANCH   1  17
HETATM   17  C   UNK N   1      36.440  14.111  12.567  0.00  0.00    -0.034 A 
HETATM   18  C   UNK N   1      36.090  14.104  13.926  0.00  0.00     0.010 A 
HETATM   19  C   UNK N   1      36.342  12.980  14.716  0.00  0.00     0.007 A 
HETATM   20  C   UNK N   1      36.949  11.855  14.157  0.00  0.00    -0.062 A 
HETATM   21  C   UNK N   1      37.291  11.846  12.801  0.00  0.00     0.007 A 
HETATM   22  C   UNK N   1      37.237  10.669  15.005  0.00  0.00     0.048 C 
HETATM   23  C   UNK N   1      37.037  12.969  12.008  0.00  0.00     0.010 A 
ENDBRANCH   1  17
BRANCH   9  24
HETATM   24  O   UNK N   1      32.056  15.091  10.507  0.00  0.00    -0.390 OA
HETATM   25  H   UNK N   1      31.397  15.313  11.185  0.00  0.00     0.210 HD
ENDBRANCH   9  24
BRANCH   8  26
HETATM   26  O   UNK N   1      32.880  15.571   7.024  0.00  0.00    -0.390 OA
HETATM   27  H   UNK N   1      33.039  14.936   6.308  0.00  0.00     0.210 HD
ENDBRANCH   8  26
TORSDOF 6
ENDMDL
MODEL 5
REMARK VINA RESULT:      -6.5      1.930      3.205
REMARK  6 active torsions:
REMARK  status: ('A' for Active; 'I' for Inactive)
REMARK    1  A    between atoms: C_8  and  C_7 
REMARK    2  A    between atoms: C_14  and  C_15 
REMARK    3  A    between atoms: O_16  and  C_15 
REMARK    4  A    between atoms: C_17  and  O_18 
REMARK    5  A    between atoms: C_19  and  O_20 
REMARK    6  A    between atoms: C_21  and  O_22 
ROOT
HETATM    1  C   UNK N   1      33.359  16.401   9.818  0.00  0.00     0.144 C 
HETATM    2  C   UNK N   1      34.755  15.995  10.210  0.00  0.00     0.105 C 
HETATM    3  N   UNK N   1      32.573  15.214  10.095  0.00  0.00    -0.290 N 
HETATM    4  O   UNK N   1      33.375  14.168   9.759  0.00  0.00    -0.241 OA
HETATM    5  C   UNK N   1      34.626  14.475  10.328  0.00  0.00     0.220 C 
HETATM    6  O   UNK N   1      34.583  14.050  11.688  0.00  0.00    -0.341 OA
HETATM    7  C   UNK N   1      35.819  14.232  12.365  0.00  0.00     0.180 C 
HETATM    8  C   UNK N   1      36.963  13.434  11.694  0.00  0.00     0.180 C 
HETATM    9  C   UNK N   1      37.100  13.887  10.235  0.00  0.00     0.183 C 
HETATM   10  C   UNK N   1      35.735  13.727   9.545  0.00  0.00     0.214 C 
HETATM   11  H   UNK N   1      31.623  15.173  10.464  0.00  0.00     0.188 HD
ENDROOT
BRANCH  10  12
HETATM   12  O   UNK N   1      35.805  14.166   8.219  0.00  0.00    -0.387 OA
HETATM   13  H   UNK N   1      35.265  14.915   7.924  0.00  0.00     0.210 HD
ENDBRANCH  10  12
BRANCH   7  14
HETATM   14  C   UNK N   1      35.639  13.821  13.827  0.00  0.00     0.198 C 
BRANCH  14  15
HETATM   15  O   UNK N   1      34.625  12.871  13.966  0.00  0.00    -0.398 OA
HETATM   16  H   UNK N   1      34.262  11.972  13.928  0.00  0.00     0.209 HD
ENDBRANCH  14  15
ENDBRANCH   7  14
BRANCH   1  17
HETATM   17  C   UNK N   1      33.196  16.747   8.355  0.00  0.00    -0.034 A 
HETATM   18  C   UNK N   1      31.910  16.719   7.794  0.00  0.00     0.010 A 
HETATM   19  C   UNK N   1      31.725  16.977   6.434  0.00  0.00     0.007 A 
HETATM   20  C   UNK N   1      32.823  17.263   5.622  0.00  0.00    -0.062 A 
HETATM   21  C   UNK N   1      34.108  17.306   6.172  0.00  0.00     0.007 A 
HETATM   22  C   UNK N   1      32.626  17.514   4.170  0.00  0.00     0.048 C 
HETATM   23  C   UNK N   1      34.294  17.051   7.534  0.00  0.00     0.010 A 
ENDBRANCH   1  17
BRANCH   9  24
HETATM   24  O   UNK N   1      37.525  15.218  10.187  0.00  0.00    -0.390 OA
HETATM   25  H   UNK N   1      37.590  16.116   9.823  0.00  0.00     0.210 HD
ENDBRANCH   9  24
BRANCH   8  26
HETATM   26  O   UNK N   1      36.689  12.062  11.730  0.00  0.00    -0.390 OA
HETATM   27  H   UNK N   1      36.316  11.245  12.097  0.00  0.00     0.210 HD
ENDBRANCH   8  26
TORSDOF 6
ENDMDL
MODEL 6
REMARK VINA RESULT:      -6.2      2.710      6.451
REMARK  6 active torsions:
REMARK  status: ('A' for Active; 'I' for Inactive)
REMARK    1  A    between atoms: C_8  and  C_7 
REMARK    2  A    between atoms: C_14  and  C_15 
REMARK    3  A    between atoms: O_16  and  C_15 
REMARK    4  A    between atoms: C_17  and  O_18 
REMARK    5  A    between atoms: C_19  and  O_20 
REMARK    6  A    between atoms: C_21  and  O_22 
ROOT
HETATM    1  C   UNK N   1      36.755  13.662  10.469  0.00  0.00     0.144 C 
HETATM    2  C   UNK N   1      36.007  14.886  10.014  0.00  0.00     0.105 C 
HETATM    3  N   UNK N   1      36.117  12.585   9.737  0.00  0.00    -0.290 N 
HETATM    4  O   UNK N   1      34.798  12.916   9.694  0.00  0.00    -0.241 OA
HETATM    5  C   UNK N   1      34.780  14.277   9.334  0.00  0.00     0.220 C 
HETATM    6  O   UNK N   1      34.877  14.336   7.912  0.00  0.00    -0.341 OA
HETATM    7  C   UNK N   1      34.792  15.660   7.404  0.00  0.00     0.180 C 
HETATM    8  C   UNK N   1      33.449  16.331   7.778  0.00  0.00     0.180 C 
HETATM    9  C   UNK N   1      33.307  16.352   9.305  0.00  0.00     0.183 C 
HETATM   10  C   UNK N   1      33.456  14.914   9.828  0.00  0.00     0.214 C 
HETATM   11  H   UNK N   1      36.561  11.757   9.340  0.00  0.00     0.188 HD
ENDROOT
BRANCH  10  12
HETATM   12  O   UNK N   1      33.371  14.891  11.223  0.00  0.00    -0.387 OA
HETATM   13  H   UNK N   1      33.962  14.321  11.739  0.00  0.00     0.210 HD
ENDBRANCH  10  12
BRANCH   7  14
HETATM   14  C   UNK N   1      34.987  15.614   5.889  0.00  0.00     0.198 C 
BRANCH  14  15
HETATM   15  O   UNK N   1      34.269  16.630   5.253  0.00  0.00    -0.398 OA
HETATM   16  H   UNK N   1      34.158  17.523   4.892  0.00  0.00     0.209 HD
ENDBRANCH  14  15
ENDBRANCH   7  14
BRANCH   1  17
HETATM   17  C   UNK N   1      36.634  13.368  11.948  0.00  0.00    -0.034 A 
HETATM   18  C   UNK N   1      36.894  12.066  12.401  0.00  0.00     0.010 A 
HETATM   19  C   UNK N   1      36.738  11.741  13.750  0.00  0.00     0.007 A 
HETATM   20  C   UNK N   1      36.317  12.714  14.659  0.00  0.00    -0.062 A 
HETATM   21  C   UNK N   1      36.067  14.018  14.221  0.00  0.00     0.007 A 
HETATM   22  C   UNK N   1      36.129  12.360  16.090  0.00  0.00     0.048 C 
HETATM   23  C   UNK N   1      36.226  14.345  12.871  0.00  0.00     0.010 A 
ENDBRANCH   1  17
BRANCH   9  24
HETATM   24  O   UNK N   1      34.283  17.184   9.864  0.00  0.00    -0.390 OA
HETATM   25  H   UNK N   1      35.182  17.510  10.028  0.00  0.00     0.210 HD
ENDBRANCH   9  24
BRANCH   8  26
HETATM   26  O   UNK N   1      32.377  15.624   7.223  0.00  0.00    -0.390 OA
HETATM   27  H   UNK N   1      31.781  14.865   7.113  0.00  0.00     0.210 HD
ENDBRANCH   8  26
TORSDOF 6
ENDMDL
MODEL 7
REMARK VINA RESULT:      -6.2      3.149      6.498
REMARK  6 active torsions:
REMARK  status: ('A' for Active; 'I' for Inactive)
REMARK    1  A    between atoms: C_8  and  C_7 
REMARK    2  A    between atoms: C_14  and  C_15 
REMARK    3  A    between atoms: O_16  and  C_15 
REMARK    4  A    between atoms: C_17  and  O_18 
REMARK    5  A    between atoms: C_19  and  O_20 
REMARK    6  A    between atoms: C_21  and  O_22 
ROOT
HETATM    1  C   UNK N   1      36.594  12.829  11.837  0.00  0.00     0.144 C 
HETATM    2  C   UNK N   1      36.355  14.059  11.002  0.00  0.00     0.105 C 
HETATM    3  N   UNK N   1      35.826  11.805  11.156  0.00  0.00    -0.290 N 
HETATM    4  O   UNK N   1      34.704  12.435  10.714  0.00  0.00    -0.241 OA
HETATM    5  C   UNK N   1      35.167  13.633  10.138  0.00  0.00     0.220 C 
HETATM    6  O   UNK N   1      35.565  13.330   8.803  0.00  0.00    -0.341 OA
HETATM    7  C   UNK N   1      35.984  14.475   8.074  0.00  0.00     0.180 C 
HETATM    8  C   UNK N   1      34.856  15.529   7.965  0.00  0.00     0.180 C 
HETATM    9  C   UNK N   1      34.419  15.943   9.376  0.00  0.00     0.183 C 
HETATM   10  C   UNK N   1      34.022  14.677  10.154  0.00  0.00     0.214 C 
HETATM   11  H   UNK N   1      36.075  10.823  11.034  0.00  0.00     0.188 HD
ENDROOT
BRANCH  10  12
HETATM   12  O   UNK N   1      33.652  15.006  11.462  0.00  0.00    -0.387 OA
HETATM   13  H   UNK N   1      32.809  14.691  11.823  0.00  0.00     0.210 HD
ENDBRANCH  10  12
BRANCH   7  14
HETATM   14  C   UNK N   1      36.461  14.027   6.693  0.00  0.00     0.198 C 
BRANCH  14  15
HETATM   15  O   UNK N   1      36.329  15.052   5.753  0.00  0.00    -0.398 OA
HETATM   16  H   UNK N   1      35.831  15.602   5.128  0.00  0.00     0.209 HD
ENDBRANCH  14  15
ENDBRANCH   7  14
BRANCH   1  17
HETATM   17  C   UNK N   1      36.092  12.931  13.260  0.00  0.00    -0.034 A 
HETATM   18  C   UNK N   1      36.720  13.832  14.135  0.00  0.00     0.010 A 
HETATM   19  C   UNK N   1      36.322  13.915  15.471  0.00  0.00     0.007 A 
HETATM   20  C   UNK N   1      35.296  13.097  15.947  0.00  0.00    -0.062 A 
HETATM   21  C   UNK N   1      34.655  12.205  15.082  0.00  0.00     0.007 A 
HETATM   22  C   UNK N   1      34.891  13.171  17.374  0.00  0.00     0.048 C 
HETATM   23  C   UNK N   1      35.050  12.123  13.743  0.00  0.00     0.010 A 
ENDBRANCH   1  17
BRANCH   9  24
HETATM   24  O   UNK N   1      35.464  16.612  10.022  0.00  0.00    -0.390 OA
HETATM   25  H   UNK N   1      36.073  16.812  10.751  0.00  0.00     0.210 HD
ENDBRANCH   9  24
BRANCH   8  26
HETATM   26  O   UNK N   1      33.758  15.001   7.276  0.00  0.00    -0.390 OA
HETATM   27  H   UNK N   1      32.946  14.481   7.177  0.00  0.00     0.210 HD
ENDBRANCH   8  26
TORSDOF 6
ENDMDL
MODEL 8
REMARK VINA RESULT:      -6.0      4.110      7.881
REMARK  6 active torsions:
REMARK  status: ('A' for Active; 'I' for Inactive)
REMARK    1  A    between atoms: C_8  and  C_7 
REMARK    2  A    between atoms: C_14  and  C_15 
REMARK    3  A    between atoms: O_16  and  C_15 
REMARK    4  A    between atoms: C_17  and  O_18 
REMARK    5  A    between atoms: C_19  and  O_20 
REMARK    6  A    between atoms: C_21  and  O_22 
ROOT
HETATM    1  C   UNK N   1      34.757  12.428  14.384  0.00  0.00     0.144 C 
HETATM    2  C   UNK N   1      34.949  12.633  12.905  0.00  0.00     0.105 C 
HETATM    3  N   UNK N   1      35.706  13.350  14.978  0.00  0.00    -0.290 N 
HETATM    4  O   UNK N   1      36.793  13.320  14.160  0.00  0.00    -0.241 OA
HETATM    5  C   UNK N   1      36.266  13.409  12.857  0.00  0.00     0.220 C 
HETATM    6  O   UNK N   1      36.056  14.793  12.585  0.00  0.00    -0.341 OA
HETATM    7  C   UNK N   1      35.595  15.035  11.263  0.00  0.00     0.180 C 
HETATM    8  C   UNK N   1      36.604  14.529  10.204  0.00  0.00     0.180 C 
HETATM    9  C   UNK N   1      36.832  13.027  10.406  0.00  0.00     0.183 C 
HETATM   10  C   UNK N   1      37.279  12.793  11.859  0.00  0.00     0.214 C 
HETATM   11  H   UNK N   1      35.584  13.903  15.827  0.00  0.00     0.188 HD
ENDROOT
BRANCH  10  12
HETATM   12  O   UNK N   1      37.462  11.428  12.099  0.00  0.00    -0.387 OA
HETATM   13  H   UNK N   1      37.658  11.112  12.995  0.00  0.00     0.210 HD
ENDBRANCH  10  12
BRANCH   7  14
HETATM   14  C   UNK N   1      35.328  16.532  11.106  0.00  0.00     0.198 C 
BRANCH  14  15
HETATM   15  O   UNK N   1      35.543  16.950   9.790  0.00  0.00    -0.398 OA
HETATM   16  H   UNK N   1      35.604  16.814   8.832  0.00  0.00     0.209 HD
ENDBRANCH  14  15
ENDBRANCH   7  14
BRANCH   1  17
HETATM   17  C   UNK N   1      35.083  11.033  14.870  0.00  0.00    -0.034 A 
HETATM   18  C   UNK N   1      35.432  10.852  16.217  0.00  0.00     0.010 A 
HETATM   19  C   UNK N   1      35.795   9.589  16.691  0.00  0.00     0.007 A 
HETATM   20  C   UNK N   1      35.815   8.496  15.823  0.00  0.00    -0.062 A 
HETATM   21  C   UNK N   1      35.458   8.662  14.482  0.00  0.00     0.007 A 
HETATM   22  C   UNK N   1      36.224   7.158  16.324  0.00  0.00     0.048 C 
HETATM   23  C   UNK N   1      35.091   9.925  14.006  0.00  0.00     0.010 A 
ENDBRANCH   1  17
BRANCH   9  24
HETATM   24  O   UNK N   1      35.654  12.324  10.133  0.00  0.00    -0.390 OA
HETATM   25  H   UNK N   1      35.115  11.549   9.908  0.00  0.00     0.210 HD
ENDBRANCH   9  24
BRANCH   8  26
HETATM   26  O   UNK N   1      37.824  15.204  10.328  0.00  0.00    -0.390 OA
HETATM   27  H   UNK N   1      38.708  15.369  10.691  0.00  0.00     0.210 HD
ENDBRANCH   8  26
TORSDOF 6
ENDMDL
MODEL 9
REMARK VINA RESULT:      -6.0      2.983      6.268
REMARK  6 active torsions:
REMARK  status: ('A' for Active; 'I' for Inactive)
REMARK    1  A    between atoms: C_8  and  C_7 
REMARK    2  A    between atoms: C_14  and  C_15 
REMARK    3  A    between atoms: O_16  and  C_15 
REMARK    4  A    between atoms: C_17  and  O_18 
REMARK    5  A    between atoms: C_19  and  O_20 
REMARK    6  A    between atoms: C_21  and  O_22 
ROOT
HETATM    1  C   UNK N   1      34.630  12.312   9.181  0.00  0.00     0.144 C 
HETATM    2  C   UNK N   1      34.963  13.778   9.107  0.00  0.00     0.105 C 
HETATM    3  N   UNK N   1      33.304  12.237   8.599  0.00  0.00    -0.290 N 
HETATM    4  O   UNK N   1      32.668  13.366   9.015  0.00  0.00    -0.241 OA
HETATM    5  C   UNK N   1      33.598  14.402   8.808  0.00  0.00     0.220 C 
HETATM    6  O   UNK N   1      33.485  14.799   7.443  0.00  0.00    -0.341 OA
HETATM    7  C   UNK N   1      34.322  15.900   7.114  0.00  0.00     0.180 C 
HETATM    8  C   UNK N   1      33.984  17.149   7.963  0.00  0.00     0.180 C 
HETATM    9  C   UNK N   1      34.142  16.804   9.448  0.00  0.00     0.183 C 
HETATM   10  C   UNK N   1      33.266  15.579   9.760  0.00  0.00     0.214 C 
HETATM   11  H   UNK N   1      32.929  11.498   8.004  0.00  0.00     0.188 HD
ENDROOT
BRANCH  10  12
HETATM   12  O   UNK N   1      33.410  15.205  11.099  0.00  0.00    -0.387 OA
HETATM   13  H   UNK N   1      34.195  14.713  11.387  0.00  0.00     0.210 HD
ENDBRANCH  10  12
BRANCH   7  14
HETATM   14  C   UNK N   1      34.182  16.189   5.620  0.00  0.00     0.198 C 
BRANCH  14  15
HETATM   15  O   UNK N   1      34.041  17.558   5.379  0.00  0.00    -0.398 OA
HETATM   16  H   UNK N   1      34.074  18.495   5.629  0.00  0.00     0.209 HD
ENDBRANCH  14  15
ENDBRANCH   7  14
BRANCH   1  17
HETATM   17  C   UNK N   1      34.563  11.756  10.586  0.00  0.00    -0.034 A 
HETATM   18  C   UNK N   1      33.840  10.574  10.810  0.00  0.00     0.010 A 
HETATM   19  C   UNK N   1      33.708  10.059  12.102  0.00  0.00     0.007 A 
HETATM   20  C   UNK N   1      34.293  10.722  13.182  0.00  0.00    -0.062 A 
HETATM   21  C   UNK N   1      35.027  11.893  12.969  0.00  0.00     0.007 A 
HETATM   22  C   UNK N   1      34.132  10.185  14.558  0.00  0.00     0.048 C 
HETATM   23  C   UNK N   1      35.163  12.408  11.676  0.00  0.00     0.010 A 
ENDBRANCH   1  17
BRANCH   9  24
HETATM   24  O   UNK N   1      35.484  16.537   9.736  0.00  0.00    -0.390 OA
HETATM   25  H   UNK N   1      36.234  16.245  10.279  0.00  0.00     0.210 HD
ENDBRANCH   9  24
BRANCH   8  26
HETATM   26  O   UNK N   1      32.669  17.564   7.721  0.00  0.00    -0.390 OA
HETATM   27  H   UNK N   1      31.734  17.707   7.938  0.00  0.00     0.210 HD
ENDBRANCH   8  26
TORSDOF 6
ENDMDL
