REMARK  6 active torsions:
REMARK  status: ('A' for Active; 'I' for Inactive)
REMARK    1  A    between atoms: C_8  and  C_7 
REMARK    2  A    between atoms: C_14  and  C_15 
REMARK    3  A    between atoms: O_16  and  C_15 
REMARK    4  A    between atoms: C_17  and  O_18 
REMARK    5  A    between atoms: C_19  and  O_20 
REMARK    6  A    between atoms: C_21  and  O_22 
ROOT
HETATM    1  C   UNK N   1      -1.335   0.780  -0.871  0.00  0.00     0.144 C 
HETATM    2  C   UNK N   1       0.110   0.411  -1.078  0.00  0.00     0.105 C 
HETATM    3  N   UNK N   1      -1.299   1.644   0.293  0.00  0.00    -0.290 N 
HETATM    4  O   UNK N   1      -0.341   1.114   1.101  0.00  0.00    -0.241 OA
HETATM    5  C   UNK N   1       0.744   0.844   0.245  0.00  0.00     0.220 C 
HETATM    6  O   UNK N   1       1.481   2.057   0.108  0.00  0.00    -0.341 OA
HETATM    7  C   UNK N   1       2.657   1.906  -0.675  0.00  0.00     0.180 C 
HETATM    8  C   UNK N   1       3.628   0.872  -0.057  0.00  0.00     0.180 C 
HETATM    9  C   UNK N   1       2.911  -0.478   0.066  0.00  0.00     0.183 C 
HETATM   10  C   UNK N   1       1.618  -0.271   0.873  0.00  0.00     0.214 C 
HETATM   11  H   UNK N   1      -1.869   2.472   0.468  0.00  0.00     0.188 HD
ENDROOT
BRANCH  10  12
HETATM   12  O   UNK N   1       0.911  -1.473   0.977  0.00  0.00    -0.387 OA
HETATM   13  H   UNK N   1      -0.056  -1.465   1.049  0.00  0.00     0.210 HD
ENDBRANCH  10  12
BRANCH   7  14
HETATM   14  C   UNK N   1       3.323   3.274  -0.823  0.00  0.00     0.198 C 
BRANCH  14  15
HETATM   15  O   UNK N   1       3.570   3.856   0.423  0.00  0.00    -0.398 OA
HETATM   16  H   UNK N   1       4.005   3.910   1.288  0.00  0.00     0.209 HD
ENDBRANCH  14  15
ENDBRANCH   7  14
BRANCH   1  17
HETATM   17  C   UNK N   1      -2.242  -0.391  -0.565  0.00  0.00    -0.034 A 
HETATM   18  C   UNK N   1      -3.597  -0.143  -0.296  0.00  0.00     0.010 A 
HETATM   19  C   UNK N   1      -4.454  -1.191   0.046  0.00  0.00     0.007 A 
HETATM   20  C   UNK N   1      -3.965  -2.496   0.126  0.00  0.00    -0.062 A 
HETATM   21  C   UNK N   1      -2.620  -2.757  -0.152  0.00  0.00     0.007 A 
HETATM   22  C   UNK N   1      -4.874  -3.606   0.513  0.00  0.00     0.048 C 
HETATM   23  C   UNK N   1      -1.761  -1.709  -0.498  0.00  0.00     0.010 A 
ENDBRANCH   1  17
BRANCH   9  24
HETATM   24  O   UNK N   1       2.623  -0.983  -1.206  0.00  0.00    -0.390 OA
HETATM   25  H   UNK N   1       2.220  -0.986  -2.089  0.00  0.00     0.210 HD
ENDBRANCH   9  24
BRANCH   8  26
HETATM   26  O   UNK N   1       4.047   1.291   1.211  0.00  0.00    -0.390 OA
HETATM   27  H   UNK N   1       4.444   1.184   2.090  0.00  0.00     0.210 HD
ENDBRANCH   8  26
TORSDOF 6
