REMARK  6 active torsions:
REMARK  status: ('A' for Active; 'I' for Inactive)
REMARK    1  A    between atoms: C_4  and  C_12 
REMARK    2  A    between atoms: C_15  and  C_18 
REMARK    3  A    between atoms: C_18  and  C_19 
REMARK    4  A    between atoms: C_18  and  C_22 
REMARK    5  A    between atoms: C_19  and  C_20 
REMARK    6  A    between atoms: C_19  and  N_23 
REMARK       I    between atoms: C_20  and  N_21 
REMARK       I    between atoms: C_22  and  N_26 
ROOT
HETATM    1  C   UNK N   1      -0.439  -1.578   0.270  0.00  0.00     0.142 C 
ENDROOT
BRANCH   1   2
HETATM    2  C   UNK N   1       0.166  -0.310  -0.343  0.00  0.00    -0.043 C 
HETATM    3  C   UNK N   1       1.305  -0.331  -1.177  0.00  0.00     0.009 C 
HETATM    4  C   UNK N   1       1.948   0.865  -1.519  0.00  0.00     0.013 C 
HETATM    5  C   UNK N   1       1.411   2.089  -1.090  0.00  0.00    -0.025 C 
HETATM    6  C   UNK N   1       0.206   2.102  -0.392  0.00  0.00     0.013 C 
HETATM    7  C   UNK N   1      -0.391   0.925  -0.011  0.00  0.00     0.009 C 
BRANCH   5   8
HETATM    8  C   UNK N   1       2.242   3.297  -0.988  0.00  0.00    -0.008 A 
HETATM    9  C   UNK N   1       3.642   3.225  -1.192  0.00  0.00     0.017 A 
HETATM   10  C   UNK N   1       4.480   4.248  -0.711  0.00  0.00     0.051 A 
HETATM   11  C   UNK N   1       3.874   5.294  -0.019  0.00  0.00     0.127 A 
HETATM   12  N   UNK N   1       2.554   5.358   0.129  0.00  0.00    -0.249 N 
HETATM   13  N   UNK N   1       4.476   6.327   0.592  0.00  0.00    -0.336 N 
HETATM   14  C   UNK N   1       1.707   4.415  -0.320  0.00  0.00     0.130 A 
HETATM   15  N   UNK N   1       2.254   6.425   0.836  0.00  0.00    -0.288 N 
HETATM   16  C   UNK N   1       3.435   7.025   1.124  0.00  0.00     0.199 A 
ATOM     17  HN  UNK N   1       1.323   6.737   1.111  1.00  0.00     0.188 HD
ATOM     18  HN  UNK N   1       5.472   6.537   0.646  1.00  0.00     0.168 HD
ENDBRANCH   5   8
ENDBRANCH   1   2
BRANCH   1  19
HETATM   19  C   UNK N   1      -1.993  -1.532   0.103  0.00  0.00     0.185 C 
BRANCH  19  20
HETATM   20  C   UNK N   1      -2.804  -2.751   0.489  0.00  0.00     0.243 C 
HETATM   21  N   UNK N   1      -4.163  -2.727   0.335  0.00  0.00    -0.348 N 
HETATM   22  C   UNK N   1      -4.996  -3.862   0.599  0.00  0.00     0.162 C 
HETATM   23  C   UNK N   1      -4.865  -1.565  -0.140  0.00  0.00     0.129 C 
HETATM   24  C   UNK N   1      -6.413  -3.359   0.366  0.00  0.00     0.189 C 
HETATM   25  C   UNK N   1      -6.297  -2.008  -0.326  0.00  0.00     0.058 C 
HETATM   26  F   UNK N   1      -7.114  -4.232  -0.442  0.00  0.00    -0.248 F 
HETATM   27  O   UNK N   1      -2.254  -3.753   0.927  0.00  0.00    -0.271 OA
ENDBRANCH  19  20
BRANCH  19  28
HETATM   28  N   UNK N   1      -2.512  -0.434   0.916  0.00  0.00    -0.418 N 
HETATM   29  H   UNK N   1      -2.029   0.263   1.483  0.00  0.00     0.150 HD
HETATM   30  H   UNK N   1      -3.529  -0.350   0.916  0.00  0.00     0.150 HD
ENDBRANCH  19  28
ENDBRANCH   1  19
BRANCH   1  31
HETATM   31  C   UNK N   1       0.281  -2.828  -0.246  0.00  0.00     0.230 C 
HETATM   32  O   UNK N   1      -0.322  -3.618  -0.959  0.00  0.00    -0.273 OA
HETATM   33  N   UNK N   1       1.589  -3.078   0.087  0.00  0.00    -0.360 N 
HETATM   34  C   UNK N   1       2.330  -2.203   0.966  0.00  0.00     0.152 C 
HETATM   35  C   UNK N   1       2.258  -4.256  -0.404  0.00  0.00     0.152 C 
ENDBRANCH   1  31
TORSDOF 6
