MODEL 1
REMARK VINA RESULT:      -8.7      0.000      0.000
REMARK  6 active torsions:
REMARK  status: ('A' for Active; 'I' for Inactive)
REMARK    1  A    between atoms: C_4  and  C_12 
REMARK    2  A    between atoms: C_15  and  C_18 
REMARK    3  A    between atoms: C_18  and  C_19 
REMARK    4  A    between atoms: C_18  and  C_22 
REMARK    5  A    between atoms: C_19  and  C_20 
REMARK    6  A    between atoms: C_19  and  N_23 
REMARK       I    between atoms: C_20  and  N_21 
REMARK       I    between atoms: C_22  and  N_26 
ROOT
HETATM    1  C   UNK N   1      35.268  14.124  10.705  0.00  0.00     0.142 C 
ENDROOT
BRANCH   1   2
HETATM    2  C   UNK N   1      35.477  13.539  12.106  0.00  0.00    -0.043 C 
HETATM    3  C   UNK N   1      35.030  12.251  12.473  0.00  0.00     0.009 C 
HETATM    4  C   UNK N   1      35.040  11.860  13.817  0.00  0.00     0.013 C 
HETATM    5  C   UNK N   1      35.566  12.726  14.789  0.00  0.00    -0.025 C 
HETATM    6  C   UNK N   1      36.137  13.933  14.393  0.00  0.00     0.013 C 
HETATM    7  C   UNK N   1      36.075  14.337  13.082  0.00  0.00     0.009 C 
BRANCH   5   8
HETATM    8  C   UNK N   1      35.187  12.611  16.204  0.00  0.00    -0.008 A 
HETATM    9  C   UNK N   1      35.158  13.758  17.035  0.00  0.00     0.017 A 
HETATM   10  C   UNK N   1      35.200  13.618  18.435  0.00  0.00     0.051 A 
HETATM   11  C   UNK N   1      35.296  12.325  18.942  0.00  0.00     0.127 A 
HETATM   12  N   UNK N   1      35.286  11.261  18.143  0.00  0.00    -0.249 N 
HETATM   13  N   UNK N   1      35.429  11.958  20.227  0.00  0.00    -0.336 N 
HETATM   14  C   UNK N   1      35.236  11.337  16.802  0.00  0.00     0.130 A 
HETATM   15  N   UNK N   1      35.412  10.176  18.874  0.00  0.00    -0.288 N 
HETATM   16  C   UNK N   1      35.501  10.600  20.159  0.00  0.00     0.199 A 
ATOM     17  HN  UNK N   1      35.438   9.212  18.542  1.00  0.00     0.188 HD
ATOM     18  HN  UNK N   1      35.469  12.553  21.054  1.00  0.00     0.168 HD
ENDBRANCH   5   8
ENDBRANCH   1   2
BRANCH   1  19
HETATM   19  C   UNK N   1      34.470  15.464  10.826  0.00  0.00     0.185 C 
BRANCH  19  20
HETATM   20  C   UNK N   1      34.760  16.576   9.841  0.00  0.00     0.243 C 
HETATM   21  N   UNK N   1      34.288  16.476   8.561  0.00  0.00    -0.348 N 
HETATM   22  C   UNK N   1      34.447  17.517   7.590  0.00  0.00     0.162 C 
HETATM   23  C   UNK N   1      33.561  15.327   8.095  0.00  0.00     0.129 C 
HETATM   24  C   UNK N   1      33.843  16.947   6.315  0.00  0.00     0.189 C 
HETATM   25  C   UNK N   1      33.082  15.688   6.708  0.00  0.00     0.058 C 
HETATM   26  F   UNK N   1      32.972  17.851   5.740  0.00  0.00    -0.248 F 
HETATM   27  O   UNK N   1      35.401  17.561  10.183  0.00  0.00    -0.271 OA
ENDBRANCH  19  20
BRANCH  19  28
HETATM   28  N   UNK N   1      33.046  15.167  10.686  0.00  0.00    -0.418 N 
HETATM   29  H   UNK N   1      32.525  14.747   9.916  0.00  0.00     0.150 HD
HETATM   30  H   UNK N   1      32.478  15.421  11.494  0.00  0.00     0.150 HD
ENDBRANCH  19  28
ENDBRANCH   1  19
BRANCH   1  31
HETATM   31  C   UNK N   1      36.590  14.168   9.932  0.00  0.00     0.230 C 
HETATM   32  O   UNK N   1      37.444  14.984  10.247  0.00  0.00    -0.273 OA
HETATM   33  N   UNK N   1      36.825  13.311   8.886  0.00  0.00    -0.360 N 
HETATM   34  C   UNK N   1      35.830  12.362   8.442  0.00  0.00     0.152 C 
HETATM   35  C   UNK N   1      38.072  13.359   8.165  0.00  0.00     0.152 C 
ENDBRANCH   1  31
TORSDOF 6
ENDMDL
MODEL 2
REMARK VINA RESULT:      -8.6     12.603     15.371
REMARK  6 active torsions:
REMARK  status: ('A' for Active; 'I' for Inactive)
REMARK    1  A    between atoms: C_4  and  C_12 
REMARK    2  A    between atoms: C_15  and  C_18 
REMARK    3  A    between atoms: C_18  and  C_19 
REMARK    4  A    between atoms: C_18  and  C_22 
REMARK    5  A    between atoms: C_19  and  C_20 
REMARK    6  A    between atoms: C_19  and  N_23 
REMARK       I    between atoms: C_20  and  N_21 
REMARK       I    between atoms: C_22  and  N_26 
ROOT
HETATM    1  C   UNK N   1      21.291  14.326   2.869  0.00  0.00     0.142 C 
ENDROOT
BRANCH   1   2
HETATM    2  C   UNK N   1      21.283  13.974   4.360  0.00  0.00    -0.043 C 
HETATM    3  C   UNK N   1      20.630  14.766   5.331  0.00  0.00     0.009 C 
HETATM    4  C   UNK N   1      20.847  14.528   6.693  0.00  0.00     0.013 C 
HETATM    5  C   UNK N   1      21.657  13.452   7.090  0.00  0.00    -0.025 C 
HETATM    6  C   UNK N   1      22.175  12.592   6.125  0.00  0.00     0.013 C 
HETATM    7  C   UNK N   1      22.007  12.861   4.789  0.00  0.00     0.009 C 
BRANCH   5   8
HETATM    8  C   UNK N   1      22.305  13.426   8.409  0.00  0.00    -0.008 A 
HETATM    9  C   UNK N   1      23.716  13.492   8.518  0.00  0.00     0.017 A 
HETATM   10  C   UNK N   1      24.355  13.068   9.698  0.00  0.00     0.051 A 
HETATM   11  C   UNK N   1      23.545  12.568  10.715  0.00  0.00     0.127 A 
HETATM   12  N   UNK N   1      22.220  12.549  10.604  0.00  0.00    -0.249 N 
HETATM   13  N   UNK N   1      23.936  12.038  11.885  0.00  0.00    -0.336 N 
HETATM   14  C   UNK N   1      21.558  12.952   9.505  0.00  0.00     0.130 A 
HETATM   15  N   UNK N   1      21.708  12.010  11.688  0.00  0.00    -0.288 N 
HETATM   16  C   UNK N   1      22.761  11.693  12.480  0.00  0.00     0.199 A 
ATOM     17  HN  UNK N   1      20.719  11.861  11.890  1.00  0.00     0.188 HD
ATOM     18  HN  UNK N   1      24.884  11.921  12.241  1.00  0.00     0.168 HD
ENDBRANCH   5   8
ENDBRANCH   1   2
BRANCH   1  19
HETATM   19  C   UNK N   1      20.102  15.296   2.569  0.00  0.00     0.185 C 
BRANCH  19  20
HETATM   20  C   UNK N   1      20.349  16.502   1.686  0.00  0.00     0.243 C 
HETATM   21  N   UNK N   1      20.502  17.733   2.262  0.00  0.00    -0.348 N 
HETATM   22  C   UNK N   1      20.818  18.910   1.510  0.00  0.00     0.162 C 
HETATM   23  C   UNK N   1      20.391  17.940   3.681  0.00  0.00     0.129 C 
HETATM   24  C   UNK N   1      20.817  20.032   2.537  0.00  0.00     0.189 C 
HETATM   25  C   UNK N   1      20.793  19.378   3.911  0.00  0.00     0.058 C 
HETATM   26  F   UNK N   1      21.954  20.806   2.415  0.00  0.00    -0.248 F 
HETATM   27  O   UNK N   1      20.420  16.380   0.470  0.00  0.00    -0.271 OA
ENDBRANCH  19  20
BRANCH  19  28
HETATM   28  N   UNK N   1      19.039  14.535   1.916  0.00  0.00    -0.418 N 
HETATM   29  H   UNK N   1      18.796  14.439   0.930  0.00  0.00     0.150 HD
HETATM   30  H   UNK N   1      18.439  14.010   2.553  0.00  0.00     0.150 HD
ENDBRANCH  19  28
ENDBRANCH   1  19
BRANCH   1  31
HETATM   31  C   UNK N   1      22.686  14.776   2.423  0.00  0.00     0.230 C 
HETATM   32  O   UNK N   1      23.274  15.637   3.064  0.00  0.00    -0.273 OA
HETATM   33  N   UNK N   1      23.282  14.233   1.313  0.00  0.00    -0.360 N 
HETATM   34  C   UNK N   1      22.611  13.250   0.493  0.00  0.00     0.152 C 
HETATM   35  C   UNK N   1      24.596  14.662   0.902  0.00  0.00     0.152 C 
ENDBRANCH   1  31
TORSDOF 6
ENDMDL
MODEL 3
REMARK VINA RESULT:      -8.4      6.031      9.383
REMARK  6 active torsions:
REMARK  status: ('A' for Active; 'I' for Inactive)
REMARK    1  A    between atoms: C_4  and  C_12 
REMARK    2  A    between atoms: C_15  and  C_18 
REMARK    3  A    between atoms: C_18  and  C_19 
REMARK    4  A    between atoms: C_18  and  C_22 
REMARK    5  A    between atoms: C_19  and  C_20 
REMARK    6  A    between atoms: C_19  and  N_23 
REMARK       I    between atoms: C_20  and  N_21 
REMARK       I    between atoms: C_22  and  N_26 
ROOT
HETATM    1  C   UNK N   1      28.254  15.680   5.372  0.00  0.00     0.142 C 
ENDROOT
BRANCH   1   2
HETATM    2  C   UNK N   1      29.625  15.899   6.020  0.00  0.00    -0.043 C 
HETATM    3  C   UNK N   1      30.644  14.922   6.005  0.00  0.00     0.009 C 
HETATM    4  C   UNK N   1      31.783  15.082   6.804  0.00  0.00     0.013 C 
HETATM    5  C   UNK N   1      31.941  16.253   7.561  0.00  0.00    -0.025 C 
HETATM    6  C   UNK N   1      30.998  17.273   7.452  0.00  0.00     0.013 C 
HETATM    7  C   UNK N   1      29.856  17.088   6.712  0.00  0.00     0.009 C 
BRANCH   5   8
HETATM    8  C   UNK N   1      32.814  16.290   8.743  0.00  0.00    -0.008 A 
HETATM    9  C   UNK N   1      33.853  17.248   8.839  0.00  0.00     0.017 A 
HETATM   10  C   UNK N   1      34.921  17.046   9.733  0.00  0.00     0.051 A 
HETATM   11  C   UNK N   1      34.912  15.870  10.479  0.00  0.00     0.127 A 
HETATM   12  N   UNK N   1      33.907  15.003  10.398  0.00  0.00    -0.249 N 
HETATM   13  N   UNK N   1      35.857  15.433  11.327  0.00  0.00    -0.336 N 
HETATM   14  C   UNK N   1      32.858  15.152   9.571  0.00  0.00     0.130 A 
HETATM   15  N   UNK N   1      34.162  13.979  11.183  0.00  0.00    -0.288 N 
HETATM   16  C   UNK N   1      35.362  14.239  11.757  0.00  0.00     0.199 A 
ATOM     17  HN  UNK N   1      33.575  13.158  11.330  1.00  0.00     0.188 HD
ATOM     18  HN  UNK N   1      36.733  15.884  11.584  1.00  0.00     0.168 HD
ENDBRANCH   5   8
ENDBRANCH   1   2
BRANCH   1  19
HETATM   19  C   UNK N   1      27.233  16.693   5.986  0.00  0.00     0.185 C 
BRANCH  19  20
HETATM   20  C   UNK N   1      26.032  17.108   5.162  0.00  0.00     0.243 C 
HETATM   21  N   UNK N   1      26.022  18.340   4.567  0.00  0.00    -0.348 N 
HETATM   22  C   UNK N   1      24.964  18.779   3.707  0.00  0.00     0.162 C 
HETATM   23  C   UNK N   1      27.094  19.284   4.731  0.00  0.00     0.129 C 
HETATM   24  C   UNK N   1      25.335  20.210   3.344  0.00  0.00     0.189 C 
HETATM   25  C   UNK N   1      26.776  20.421   3.788  0.00  0.00     0.058 C 
HETATM   26  F   UNK N   1      25.239  20.408   1.981  0.00  0.00    -0.248 F 
HETATM   27  O   UNK N   1      25.082  16.350   5.020  0.00  0.00    -0.271 OA
ENDBRANCH  19  20
BRANCH  19  28
HETATM   28  N   UNK N   1      26.693  16.116   7.215  0.00  0.00    -0.418 N 
HETATM   29  H   UNK N   1      26.350  15.177   7.417  0.00  0.00     0.150 HD
HETATM   30  H   UNK N   1      26.653  16.761   8.005  0.00  0.00     0.150 HD
ENDBRANCH  19  28
ENDBRANCH   1  19
BRANCH   1  31
HETATM   31  C   UNK N   1      28.373  15.651   3.844  0.00  0.00     0.230 C 
HETATM   32  O   UNK N   1      28.885  16.597   3.263  0.00  0.00    -0.273 OA
HETATM   33  N   UNK N   1      27.906  14.582   3.120  0.00  0.00    -0.360 N 
HETATM   34  C   UNK N   1      27.248  13.463   3.754  0.00  0.00     0.152 C 
HETATM   35  C   UNK N   1      28.024  14.563   1.684  0.00  0.00     0.152 C 
ENDBRANCH   1  31
TORSDOF 6
ENDMDL
MODEL 4
REMARK VINA RESULT:      -8.2     18.644     21.808
REMARK  6 active torsions:
REMARK  status: ('A' for Active; 'I' for Inactive)
REMARK    1  A    between atoms: C_4  and  C_12 
REMARK    2  A    between atoms: C_15  and  C_18 
REMARK    3  A    between atoms: C_18  and  C_19 
REMARK    4  A    between atoms: C_18  and  C_22 
REMARK    5  A    between atoms: C_19  and  C_20 
REMARK    6  A    between atoms: C_19  and  N_23 
REMARK       I    between atoms: C_20  and  N_21 
REMARK       I    between atoms: C_22  and  N_26 
ROOT
HETATM    1  C   UNK N   1      27.826  23.613  -6.806  0.00  0.00     0.142 C 
ENDROOT
BRANCH   1   2
HETATM    2  C   UNK N   1      28.724  22.661  -6.008  0.00  0.00    -0.043 C 
HETATM    3  C   UNK N   1      29.089  22.898  -4.665  0.00  0.00     0.009 C 
HETATM    4  C   UNK N   1      30.089  22.125  -4.061  0.00  0.00     0.013 C 
HETATM    5  C   UNK N   1      30.673  21.067  -4.773  0.00  0.00    -0.025 C 
HETATM    6  C   UNK N   1      30.200  20.752  -6.045  0.00  0.00     0.013 C 
HETATM    7  C   UNK N   1      29.260  21.547  -6.654  0.00  0.00     0.009 C 
BRANCH   5   8
HETATM    8  C   UNK N   1      32.001  20.545  -4.419  0.00  0.00    -0.008 A 
HETATM    9  C   UNK N   1      32.761  21.154  -3.390  0.00  0.00     0.017 A 
HETATM   10  C   UNK N   1      34.150  20.941  -3.317  0.00  0.00     0.051 A 
HETATM   11  C   UNK N   1      34.724  20.140  -4.302  0.00  0.00     0.127 A 
HETATM   12  N   UNK N   1      33.985  19.550  -5.237  0.00  0.00    -0.249 N 
HETATM   13  N   UNK N   1      36.026  19.867  -4.476  0.00  0.00    -0.336 N 
HETATM   14  C   UNK N   1      32.654  19.710  -5.346  0.00  0.00     0.130 A 
HETATM   15  N   UNK N   1      34.774  18.879  -6.046  0.00  0.00    -0.288 N 
HETATM   16  C   UNK N   1      36.033  19.072  -5.582  0.00  0.00     0.199 A 
ATOM     17  HN  UNK N   1      34.496  18.327  -6.857  1.00  0.00     0.188 HD
ATOM     18  HN  UNK N   1      36.819  20.180  -3.917  1.00  0.00     0.168 HD
ENDBRANCH   5   8
ENDBRANCH   1   2
BRANCH   1  19
HETATM   19  C   UNK N   1      26.529  23.898  -5.981  0.00  0.00     0.185 C 
BRANCH  19  20
HETATM   20  C   UNK N   1      25.822  25.224  -6.170  0.00  0.00     0.243 C 
HETATM   21  N   UNK N   1      25.867  26.155  -5.168  0.00  0.00    -0.348 N 
HETATM   22  C   UNK N   1      25.296  27.462  -5.295  0.00  0.00     0.162 C 
HETATM   23  C   UNK N   1      26.525  25.906  -3.914  0.00  0.00     0.129 C 
HETATM   24  C   UNK N   1      25.517  28.110  -3.936  0.00  0.00     0.189 C 
HETATM   25  C   UNK N   1      26.493  27.224  -3.175  0.00  0.00     0.058 C 
HETATM   26  F   UNK N   1      26.056  29.373  -4.079  0.00  0.00    -0.248 F 
HETATM   27  O   UNK N   1      25.222  25.469  -7.208  0.00  0.00    -0.271 OA
ENDBRANCH  19  20
BRANCH  19  28
HETATM   28  N   UNK N   1      25.541  22.870  -6.305  0.00  0.00    -0.418 N 
HETATM   29  H   UNK N   1      24.671  22.610  -5.839  0.00  0.00     0.150 HD
HETATM   30  H   UNK N   1      25.758  22.321  -7.137  0.00  0.00     0.150 HD
ENDBRANCH  19  28
ENDBRANCH   1  19
BRANCH   1  31
HETATM   31  C   UNK N   1      28.621  24.826  -7.297  0.00  0.00     0.230 C 
HETATM   32  O   UNK N   1      29.288  25.471  -6.500  0.00  0.00    -0.273 OA
HETATM   33  N   UNK N   1      28.589  25.205  -8.616  0.00  0.00    -0.360 N 
HETATM   34  C   UNK N   1      27.779  24.508  -9.588  0.00  0.00     0.152 C 
HETATM   35  C   UNK N   1      29.341  26.348  -9.069  0.00  0.00     0.152 C 
ENDBRANCH   1  31
TORSDOF 6
ENDMDL
MODEL 5
REMARK VINA RESULT:      -8.1     18.268     21.616
REMARK  6 active torsions:
REMARK  status: ('A' for Active; 'I' for Inactive)
REMARK    1  A    between atoms: C_4  and  C_12 
REMARK    2  A    between atoms: C_15  and  C_18 
REMARK    3  A    between atoms: C_18  and  C_19 
REMARK    4  A    between atoms: C_18  and  C_22 
REMARK    5  A    between atoms: C_19  and  C_20 
REMARK    6  A    between atoms: C_19  and  N_23 
REMARK       I    between atoms: C_20  and  N_21 
REMARK       I    between atoms: C_22  and  N_26 
ROOT
HETATM    1  C   UNK N   1      27.934  25.674  -5.550  0.00  0.00     0.142 C 
ENDROOT
BRANCH   1   2
HETATM    2  C   UNK N   1      28.558  24.364  -5.054  0.00  0.00    -0.043 C 
HETATM    3  C   UNK N   1      28.690  24.050  -3.684  0.00  0.00     0.009 C 
HETATM    4  C   UNK N   1      29.468  22.956  -3.286  0.00  0.00     0.013 C 
HETATM    5  C   UNK N   1      30.054  22.130  -4.258  0.00  0.00    -0.025 C 
HETATM    6  C   UNK N   1      29.793  22.366  -5.606  0.00  0.00     0.013 C 
HETATM    7  C   UNK N   1      29.076  23.472  -5.993  0.00  0.00     0.009 C 
BRANCH   5   8
HETATM    8  C   UNK N   1      31.226  21.298  -3.952  0.00  0.00    -0.008 A 
HETATM    9  C   UNK N   1      32.075  21.624  -2.866  0.00  0.00     0.017 A 
HETATM   10  C   UNK N   1      33.382  21.105  -2.810  0.00  0.00     0.051 A 
HETATM   11  C   UNK N   1      33.791  20.294  -3.866  0.00  0.00     0.127 A 
HETATM   12  N   UNK N   1      32.964  19.973  -4.857  0.00  0.00    -0.249 N 
HETATM   13  N   UNK N   1      35.006  19.759  -4.063  0.00  0.00    -0.336 N 
HETATM   14  C   UNK N   1      31.703  20.431  -4.954  0.00  0.00     0.130 A 
HETATM   15  N   UNK N   1      33.607  19.224  -5.725  0.00  0.00    -0.288 N 
HETATM   16  C   UNK N   1      34.866  19.090  -5.240  0.00  0.00     0.199 A 
ATOM     17  HN  UNK N   1      33.235  18.826  -6.586  1.00  0.00     0.188 HD
ATOM     18  HN  UNK N   1      35.834  19.836  -3.473  1.00  0.00     0.168 HD
ENDBRANCH   5   8
ENDBRANCH   1   2
BRANCH   1  19
HETATM   19  C   UNK N   1      26.795  25.341  -6.568  0.00  0.00     0.185 C 
BRANCH  19  20
HETATM   20  C   UNK N   1      25.867  24.182  -6.271  0.00  0.00     0.243 C 
HETATM   21  N   UNK N   1      25.808  23.131  -7.144  0.00  0.00    -0.348 N 
HETATM   22  C   UNK N   1      25.020  21.960  -6.900  0.00  0.00     0.162 C 
HETATM   23  C   UNK N   1      26.563  23.102  -8.368  0.00  0.00     0.129 C 
HETATM   24  C   UNK N   1      25.200  21.110  -8.149  0.00  0.00     0.189 C 
HETATM   25  C   UNK N   1      26.350  21.720  -8.939  0.00  0.00     0.058 C 
HETATM   26  F   UNK N   1      25.511  19.808  -7.813  0.00  0.00    -0.248 F 
HETATM   27  O   UNK N   1      25.181  24.176  -5.257  0.00  0.00    -0.271 OA
ENDBRANCH  19  20
BRANCH  19  28
HETATM   28  N   UNK N   1      25.936  26.516  -6.699  0.00  0.00    -0.418 N 
HETATM   29  H   UNK N   1      24.979  26.681  -6.388  0.00  0.00     0.150 HD
HETATM   30  H   UNK N   1      26.367  27.305  -7.182  0.00  0.00     0.150 HD
ENDBRANCH  19  28
ENDBRANCH   1  19
BRANCH   1  31
HETATM   31  C   UNK N   1      27.573  26.584  -4.372  0.00  0.00     0.230 C 
HETATM   32  O   UNK N   1      26.567  26.350  -3.717  0.00  0.00    -0.273 OA
HETATM   33  N   UNK N   1      28.357  27.662  -4.046  0.00  0.00    -0.360 N 
HETATM   34  C   UNK N   1      29.528  28.012  -4.817  0.00  0.00     0.152 C 
HETATM   35  C   UNK N   1      28.010  28.512  -2.936  0.00  0.00     0.152 C 
ENDBRANCH   1  31
TORSDOF 6
ENDMDL
MODEL 6
REMARK VINA RESULT:      -8.1      8.384     10.965
REMARK  6 active torsions:
REMARK  status: ('A' for Active; 'I' for Inactive)
REMARK    1  A    between atoms: C_4  and  C_12 
REMARK    2  A    between atoms: C_15  and  C_18 
REMARK    3  A    between atoms: C_18  and  C_19 
REMARK    4  A    between atoms: C_18  and  C_22 
REMARK    5  A    between atoms: C_19  and  C_20 
REMARK    6  A    between atoms: C_19  and  N_23 
REMARK       I    between atoms: C_20  and  N_21 
REMARK       I    between atoms: C_22  and  N_26 
ROOT
HETATM    1  C   UNK N   1      28.058  15.511   4.411  0.00  0.00     0.142 C 
ENDROOT
BRANCH   1   2
HETATM    2  C   UNK N   1      26.882  15.129   5.318  0.00  0.00    -0.043 C 
HETATM    3  C   UNK N   1      26.713  15.658   6.616  0.00  0.00     0.009 C 
HETATM    4  C   UNK N   1      25.760  15.106   7.481  0.00  0.00     0.013 C 
HETATM    5  C   UNK N   1      24.924  14.075   7.025  0.00  0.00    -0.025 C 
HETATM    6  C   UNK N   1      25.003  13.664   5.697  0.00  0.00     0.013 C 
HETATM    7  C   UNK N   1      25.976  14.169   4.869  0.00  0.00     0.009 C 
BRANCH   5   8
HETATM    8  C   UNK N   1      24.268  13.150   7.961  0.00  0.00    -0.008 A 
HETATM    9  C   UNK N   1      22.947  12.699   7.718  0.00  0.00     0.017 A 
HETATM   10  C   UNK N   1      22.179  12.164   8.768  0.00  0.00     0.051 A 
HETATM   11  C   UNK N   1      22.765  12.127  10.031  0.00  0.00     0.127 A 
HETATM   12  N   UNK N   1      24.020  12.523  10.228  0.00  0.00    -0.249 N 
HETATM   13  N   UNK N   1      22.199  11.738  11.185  0.00  0.00    -0.336 N 
HETATM   14  C   UNK N   1      24.802  13.031   9.258  0.00  0.00     0.130 A 
HETATM   15  N   UNK N   1      24.310  12.406  11.504  0.00  0.00    -0.288 N 
HETATM   16  C   UNK N   1      23.191  11.923  12.098  0.00  0.00     0.199 A 
ATOM     17  HN  UNK N   1      25.196  12.633  11.955  1.00  0.00     0.188 HD
ATOM     18  HN  UNK N   1      21.254  11.389  11.339  1.00  0.00     0.168 HD
ENDBRANCH   5   8
ENDBRANCH   1   2
BRANCH   1  19
HETATM   19  C   UNK N   1      28.625  16.894   4.869  0.00  0.00     0.185 C 
BRANCH  19  20
HETATM   20  C   UNK N   1      30.121  17.049   5.038  0.00  0.00     0.243 C 
HETATM   21  N   UNK N   1      30.642  17.186   6.296  0.00  0.00    -0.348 N 
HETATM   22  C   UNK N   1      32.050  17.256   6.551  0.00  0.00     0.162 C 
HETATM   23  C   UNK N   1      29.816  17.235   7.472  0.00  0.00     0.129 C 
HETATM   24  C   UNK N   1      32.156  17.476   8.053  0.00  0.00     0.189 C 
HETATM   25  C   UNK N   1      30.775  17.216   8.639  0.00  0.00     0.058 C 
HETATM   26  F   UNK N   1      33.066  16.600   8.611  0.00  0.00    -0.248 F 
HETATM   27  O   UNK N   1      30.863  17.044   4.065  0.00  0.00    -0.271 OA
ENDBRANCH  19  20
BRANCH  19  28
HETATM   28  N   UNK N   1      28.228  17.903   3.889  0.00  0.00    -0.418 N 
HETATM   29  H   UNK N   1      27.845  18.841   4.014  0.00  0.00     0.150 HD
HETATM   30  H   UNK N   1      28.356  17.623   2.917  0.00  0.00     0.150 HD
ENDBRANCH  19  28
ENDBRANCH   1  19
BRANCH   1  31
HETATM   31  C   UNK N   1      29.054  14.353   4.296  0.00  0.00     0.230 C 
HETATM   32  O   UNK N   1      29.538  13.873   5.311  0.00  0.00    -0.273 OA
HETATM   33  N   UNK N   1      29.416  13.853   3.070  0.00  0.00    -0.360 N 
HETATM   34  C   UNK N   1      28.912  14.417   1.839  0.00  0.00     0.152 C 
HETATM   35  C   UNK N   1      30.353  12.762   2.971  0.00  0.00     0.152 C 
ENDBRANCH   1  31
TORSDOF 6
ENDMDL
MODEL 7
REMARK VINA RESULT:      -8.1      5.740     11.302
REMARK  6 active torsions:
REMARK  status: ('A' for Active; 'I' for Inactive)
REMARK    1  A    between atoms: C_4  and  C_12 
REMARK    2  A    between atoms: C_15  and  C_18 
REMARK    3  A    between atoms: C_18  and  C_19 
REMARK    4  A    between atoms: C_18  and  C_22 
REMARK    5  A    between atoms: C_19  and  C_20 
REMARK    6  A    between atoms: C_19  and  N_23 
REMARK       I    between atoms: C_20  and  N_21 
REMARK       I    between atoms: C_22  and  N_26 
ROOT
HETATM    1  C   UNK N   1      35.128  10.310  20.743  0.00  0.00     0.142 C 
ENDROOT
BRANCH   1   2
HETATM    2  C   UNK N   1      35.021  10.984  19.370  0.00  0.00    -0.043 C 
HETATM    3  C   UNK N   1      34.837  10.258  18.173  0.00  0.00     0.009 C 
HETATM    4  C   UNK N   1      34.976  10.897  16.935  0.00  0.00     0.013 C 
HETATM    5  C   UNK N   1      35.225  12.278  16.891  0.00  0.00    -0.025 C 
HETATM    6  C   UNK N   1      35.258  13.007  18.077  0.00  0.00     0.013 C 
HETATM    7  C   UNK N   1      35.177  12.368  19.290  0.00  0.00     0.009 C 
BRANCH   5   8
HETATM    8  C   UNK N   1      35.842  12.908  15.715  0.00  0.00    -0.008 A 
HETATM    9  C   UNK N   1      36.649  14.064  15.860  0.00  0.00     0.017 A 
HETATM   10  C   UNK N   1      36.901  14.894  14.752  0.00  0.00     0.051 A 
HETATM   11  C   UNK N   1      36.307  14.539  13.544  0.00  0.00     0.127 A 
HETATM   12  N   UNK N   1      35.583  13.430  13.423  0.00  0.00    -0.249 N 
HETATM   13  N   UNK N   1      36.341  15.217  12.385  0.00  0.00    -0.336 N 
HETATM   14  C   UNK N   1      35.321  12.596  14.445  0.00  0.00     0.130 A 
HETATM   15  N   UNK N   1      35.124  13.349  12.194  0.00  0.00    -0.288 N 
HETATM   16  C   UNK N   1      35.589  14.449  11.551  0.00  0.00     0.199 A 
ATOM     17  HN  UNK N   1      34.539  12.611  11.804  1.00  0.00     0.188 HD
ATOM     18  HN  UNK N   1      36.815  16.096  12.181  1.00  0.00     0.168 HD
ENDBRANCH   5   8
ENDBRANCH   1   2
BRANCH   1  19
HETATM   19  C   UNK N   1      33.691  10.118  21.329  0.00  0.00     0.185 C 
BRANCH  19  20
HETATM   20  C   UNK N   1      33.353   8.811  22.014  0.00  0.00     0.243 C 
HETATM   21  N   UNK N   1      32.415   7.986  21.456  0.00  0.00    -0.348 N 
HETATM   22  C   UNK N   1      32.093   6.698  21.994  0.00  0.00     0.162 C 
HETATM   23  C   UNK N   1      31.698   8.332  20.258  0.00  0.00     0.129 C 
HETATM   24  C   UNK N   1      30.969   6.183  21.107  0.00  0.00     0.189 C 
HETATM   25  C   UNK N   1      30.905   7.099  19.893  0.00  0.00     0.058 C 
HETATM   26  F   UNK N   1      31.226   4.890  20.695  0.00  0.00    -0.248 F 
HETATM   27  O   UNK N   1      33.914   8.487  23.052  0.00  0.00    -0.271 OA
ENDBRANCH  19  20
BRANCH  19  28
HETATM   28  N   UNK N   1      33.455  11.162  22.323  0.00  0.00    -0.418 N 
HETATM   29  H   UNK N   1      34.014  11.462  23.122  0.00  0.00     0.150 HD
HETATM   30  H   UNK N   1      32.585  11.680  22.197  0.00  0.00     0.150 HD
ENDBRANCH  19  28
ENDBRANCH   1  19
BRANCH   1  31
HETATM   31  C   UNK N   1      36.024   9.069  20.670  0.00  0.00     0.230 C 
HETATM   32  O   UNK N   1      35.622   8.071  20.088  0.00  0.00    -0.273 OA
HETATM   33  N   UNK N   1      37.265   9.058  21.256  0.00  0.00    -0.360 N 
HETATM   34  C   UNK N   1      37.765  10.193  21.998  0.00  0.00     0.152 C 
HETATM   35  C   UNK N   1      38.100   7.886  21.182  0.00  0.00     0.152 C 
ENDBRANCH   1  31
TORSDOF 6
ENDMDL
MODEL 8
REMARK VINA RESULT:      -8.0      3.960      8.972
REMARK  6 active torsions:
REMARK  status: ('A' for Active; 'I' for Inactive)
REMARK    1  A    between atoms: C_4  and  C_12 
REMARK    2  A    between atoms: C_15  and  C_18 
REMARK    3  A    between atoms: C_18  and  C_19 
REMARK    4  A    between atoms: C_18  and  C_22 
REMARK    5  A    between atoms: C_19  and  C_20 
REMARK    6  A    between atoms: C_19  and  N_23 
REMARK       I    between atoms: C_20  and  N_21 
REMARK       I    between atoms: C_22  and  N_26 
ROOT
HETATM    1  C   UNK N   1      36.087  13.539   9.215  0.00  0.00     0.142 C 
ENDROOT
BRANCH   1   2
HETATM    2  C   UNK N   1      35.194  14.709   8.787  0.00  0.00    -0.043 C 
HETATM    3  C   UNK N   1      34.888  15.791   9.641  0.00  0.00     0.009 C 
HETATM    4  C   UNK N   1      33.892  16.708   9.284  0.00  0.00     0.013 C 
HETATM    5  C   UNK N   1      33.252  16.589   8.040  0.00  0.00    -0.025 C 
HETATM    6  C   UNK N   1      33.667  15.604   7.147  0.00  0.00     0.013 C 
HETATM    7  C   UNK N   1      34.605  14.673   7.523  0.00  0.00     0.009 C 
BRANCH   5   8
HETATM    8  C   UNK N   1      31.925  17.175   7.802  0.00  0.00    -0.008 A 
HETATM    9  C   UNK N   1      31.376  18.106   8.717  0.00  0.00     0.017 A 
HETATM   10  C   UNK N   1      29.991  18.355   8.726  0.00  0.00     0.051 A 
HETATM   11  C   UNK N   1      29.209  17.636   7.826  0.00  0.00     0.127 A 
HETATM   12  N   UNK N   1      29.752  16.794   6.951  0.00  0.00    -0.249 N 
HETATM   13  N   UNK N   1      27.872  17.651   7.711  0.00  0.00    -0.336 N 
HETATM   14  C   UNK N   1      31.069  16.527   6.892  0.00  0.00     0.130 A 
HETATM   15  N   UNK N   1      28.795  16.236   6.244  0.00  0.00    -0.288 N 
HETATM   16  C   UNK N   1      27.634  16.760   6.709  0.00  0.00     0.199 A 
ATOM     17  HN  UNK N   1      28.903  15.549   5.498  1.00  0.00     0.188 HD
ATOM     18  HN  UNK N   1      27.197  18.195   8.246  1.00  0.00     0.168 HD
ENDBRANCH   5   8
ENDBRANCH   1   2
BRANCH   1  19
HETATM   19  C   UNK N   1      36.940  13.976  10.450  0.00  0.00     0.185 C 
BRANCH  19  20
HETATM   20  C   UNK N   1      37.394  12.918  11.434  0.00  0.00     0.243 C 
HETATM   21  N   UNK N   1      36.910  12.943  12.713  0.00  0.00    -0.348 N 
HETATM   22  C   UNK N   1      37.224  11.936  13.683  0.00  0.00     0.162 C 
HETATM   23  C   UNK N   1      36.016  13.968  13.181  0.00  0.00     0.129 C 
HETATM   24  C   UNK N   1      36.538  12.406  14.958  0.00  0.00     0.189 C 
HETATM   25  C   UNK N   1      35.596  13.535  14.565  0.00  0.00     0.058 C 
HETATM   26  F   UNK N   1      35.814  11.379  15.529  0.00  0.00    -0.248 F 
HETATM   27  O   UNK N   1      38.178  12.043  11.091  0.00  0.00    -0.271 OA
ENDBRANCH  19  20
BRANCH  19  28
HETATM   28  N   UNK N   1      38.160  14.617   9.964  0.00  0.00    -0.418 N 
HETATM   29  H   UNK N   1      39.071  14.742  10.407  0.00  0.00     0.150 HD
HETATM   30  H   UNK N   1      38.090  15.005   9.023  0.00  0.00     0.150 HD
ENDBRANCH  19  28
ENDBRANCH   1  19
BRANCH   1  31
HETATM   31  C   UNK N   1      35.266  12.253   9.355  0.00  0.00     0.230 C 
HETATM   32  O   UNK N   1      34.275  12.246  10.072  0.00  0.00    -0.273 OA
HETATM   33  N   UNK N   1      35.632  11.106   8.694  0.00  0.00    -0.360 N 
HETATM   34  C   UNK N   1      36.821  11.047   7.876  0.00  0.00     0.152 C 
HETATM   35  C   UNK N   1      34.853   9.901   8.831  0.00  0.00     0.152 C 
ENDBRANCH   1  31
TORSDOF 6
ENDMDL
MODEL 9
REMARK VINA RESULT:      -7.8      6.258     11.977
REMARK  6 active torsions:
REMARK  status: ('A' for Active; 'I' for Inactive)
REMARK    1  A    between atoms: C_4  and  C_12 
REMARK    2  A    between atoms: C_15  and  C_18 
REMARK    3  A    between atoms: C_18  and  C_19 
REMARK    4  A    between atoms: C_18  and  C_22 
REMARK    5  A    between atoms: C_19  and  C_20 
REMARK    6  A    between atoms: C_19  and  N_23 
REMARK       I    between atoms: C_20  and  N_21 
REMARK       I    between atoms: C_22  and  N_26 
ROOT
HETATM    1  C   UNK N   1      34.455   9.660  21.423  0.00  0.00     0.142 C 
ENDROOT
BRANCH   1   2
HETATM    2  C   UNK N   1      34.800  10.107  19.998  0.00  0.00    -0.043 C 
HETATM    3  C   UNK N   1      35.293  11.396  19.699  0.00  0.00     0.009 C 
HETATM    4  C   UNK N   1      35.373  11.827  18.369  0.00  0.00     0.013 C 
HETATM    5  C   UNK N   1      35.030  10.945  17.332  0.00  0.00    -0.025 C 
HETATM    6  C   UNK N   1      34.686   9.630  17.636  0.00  0.00     0.013 C 
HETATM    7  C   UNK N   1      34.555   9.228  18.943  0.00  0.00     0.009 C 
BRANCH   5   8
HETATM    8  C   UNK N   1      34.631  11.438  16.006  0.00  0.00    -0.008 A 
HETATM    9  C   UNK N   1      34.029  10.566  15.066  0.00  0.00     0.017 A 
HETATM   10  C   UNK N   1      34.017  10.899  13.699  0.00  0.00     0.051 A 
HETATM   11  C   UNK N   1      34.639  12.089  13.329  0.00  0.00     0.127 A 
HETATM   12  N   UNK N   1      35.166  12.909  14.233  0.00  0.00    -0.249 N 
HETATM   13  N   UNK N   1      34.819  12.565  12.087  0.00  0.00    -0.336 N 
HETATM   14  C   UNK N   1      35.194  12.646  15.552  0.00  0.00     0.130 A 
HETATM   15  N   UNK N   1      35.704  13.938  13.616  0.00  0.00    -0.288 N 
HETATM   16  C   UNK N   1      35.493  13.730  12.293  0.00  0.00     0.199 A 
ATOM     17  HN  UNK N   1      36.182  14.730  14.045  1.00  0.00     0.188 HD
ATOM     18  HN  UNK N   1      34.523  12.154  11.202  1.00  0.00     0.168 HD
ENDBRANCH   5   8
ENDBRANCH   1   2
BRANCH   1  19
HETATM   19  C   UNK N   1      32.901   9.545  21.557  0.00  0.00     0.185 C 
BRANCH  19  20
HETATM   20  C   UNK N   1      32.317   8.329  22.246  0.00  0.00     0.243 C 
HETATM   21  N   UNK N   1      31.849   7.291  21.488  0.00  0.00    -0.348 N 
HETATM   22  C   UNK N   1      31.356   6.073  22.058  0.00  0.00     0.162 C 
HETATM   23  C   UNK N   1      31.847   7.325  20.050  0.00  0.00     0.129 C 
HETATM   24  C   UNK N   1      30.886   5.255  20.864  0.00  0.00     0.189 C 
HETATM   25  C   UNK N   1      31.421   5.942  19.616  0.00  0.00     0.058 C 
HETATM   26  F   UNK N   1      31.380   3.967  20.929  0.00  0.00    -0.248 F 
HETATM   27  O   UNK N   1      32.269   8.268  23.467  0.00  0.00    -0.271 OA
ENDBRANCH  19  20
BRANCH  19  28
HETATM   28  N   UNK N   1      32.416  10.700  22.309  0.00  0.00    -0.418 N 
HETATM   29  H   UNK N   1      32.635  11.693  22.222  0.00  0.00     0.150 HD
HETATM   30  H   UNK N   1      31.745  10.477  23.044  0.00  0.00     0.150 HD
ENDBRANCH  19  28
ENDBRANCH   1  19
BRANCH   1  31
HETATM   31  C   UNK N   1      35.282   8.434  21.823  0.00  0.00     0.230 C 
HETATM   32  O   UNK N   1      35.405   7.508  21.033  0.00  0.00    -0.273 OA
HETATM   33  N   UNK N   1      35.878   8.356  23.057  0.00  0.00    -0.360 N 
HETATM   34  C   UNK N   1      35.722   9.399  24.044  0.00  0.00     0.152 C 
HETATM   35  C   UNK N   1      36.655   7.199  23.424  0.00  0.00     0.152 C 
ENDBRANCH   1  31
TORSDOF 6
ENDMDL
