MODEL 1
REMARK VINA RESULT:      -6.5      0.000      0.000
REMARK  13 active torsions:
REMARK  status: ('A' for Active; 'I' for Inactive)
REMARK    1  A    between atoms: C_7  and  C_8 
REMARK    2  A    between atoms: C_8  and  C_9 
REMARK    3  A    between atoms: C_9  and  C_10 
REMARK    4  A    between atoms: C_9  and  N_14 
REMARK    5  A    between atoms: C_10  and  O_12 
REMARK       I    between atoms: N_14  and  C_15 
REMARK    6  A    between atoms: C_15  and  C_17 
REMARK    7  A    between atoms: C_17  and  C_18 
REMARK    8  A    between atoms: C_18  and  C_19 
REMARK    9  A    between atoms: C_19  and  C_20 
REMARK   10  A    between atoms: C_20  and  C_21 
REMARK   11  A    between atoms: C_21  and  C_22 
REMARK   12  A    between atoms: C_22  and  C_23 
REMARK       I    between atoms: C_23  and  N_25 
REMARK   13  A    between atoms: N_25  and  O_26 
ROOT
HETATM    1  N   UNK N   1      28.633  18.551   4.727  0.00  0.00    -0.347 N 
HETATM    2  C   UNK N   1      28.743  17.360   4.085  0.00  0.00     0.218 C 
HETATM    3  O   UNK N   1      27.752  16.709   3.791  0.00  0.00    -0.274 OA
HETATM    4  H   UNK N   1      29.464  19.045   4.911  0.00  0.00     0.163 HD
ENDROOT
BRANCH   1   5
HETATM    5  C   UNK N   1      27.391  19.152   5.162  0.00  0.00     0.188 C 
BRANCH   5   6
HETATM    6  C   UNK N   1      26.877  20.010   3.999  0.00  0.00     0.074 C 
BRANCH   6   7
HETATM    7  C   UNK N   1      25.413  19.811   3.772  0.00  0.00    -0.056 A 
HETATM    8  C   UNK N   1      24.688  20.682   2.951  0.00  0.00     0.008 A 
HETATM    9  C   UNK N   1      23.311  20.515   2.794  0.00  0.00     0.019 A 
HETATM   10  C   UNK N   1      22.655  19.476   3.460  0.00  0.00     0.011 A 
HETATM   11 Br   UNK N   1      20.772  19.269   3.274  0.00  0.00    -0.051 Br
HETATM   12  C   UNK N   1      23.378  18.598   4.272  0.00  0.00     0.019 A 
HETATM   13  C   UNK N   1      24.756  18.764   4.426  0.00  0.00     0.008 A 
ENDBRANCH   6   7
ENDBRANCH   5   6
BRANCH   5  14
HETATM   14  C   UNK N   1      27.587  19.956   6.438  0.00  0.00     0.281 C 
HETATM   15  O   UNK N   1      28.091  19.438   7.427  0.00  0.00    -0.263 OA
BRANCH  14  16
HETATM   16  O   UNK N   1      27.224  21.261   6.468  0.00  0.00    -0.325 OA
HETATM   17  C   UNK N   1      26.146  21.711   7.195  0.00  0.00     0.213 C 
ENDBRANCH  14  16
ENDBRANCH   5  14
ENDBRANCH   1   5
BRANCH   2  18
HETATM   18  C   UNK N   1      30.100  16.855   3.712  0.00  0.00     0.103 C 
BRANCH  18  19
HETATM   19  C   UNK N   1      31.157  17.416   4.658  0.00  0.00     0.009 C 
BRANCH  19  20
HETATM   20  C   UNK N   1      32.528  17.563   4.014  0.00  0.00     0.000 C 
BRANCH  20  21
HETATM   21  C   UNK N   1      33.666  17.164   4.946  0.00  0.00     0.000 C 
BRANCH  21  22
HETATM   22  C   UNK N   1      33.338  17.499   6.397  0.00  0.00     0.009 C 
BRANCH  22  23
HETATM   23  C   UNK N   1      34.367  16.945   7.379  0.00  0.00     0.105 C 
BRANCH  23  24
HETATM   24  C   UNK N   1      34.617  17.872   8.533  0.00  0.00     0.240 C 
HETATM   25  O   UNK N   1      34.969  19.024   8.322  0.00  0.00    -0.271 OA
HETATM   26  N   UNK N   1      34.454  17.449   9.805  0.00  0.00    -0.237 N 
HETATM   27  H   UNK N   1      34.616  18.073  10.549  0.00  0.00     0.197 HD
BRANCH  26  28
HETATM   28  O   UNK N   1      34.074  16.189  10.068  0.00  0.00    -0.287 OA
HETATM   29  H   UNK N   1      33.226  15.731  10.172  0.00  0.00     0.244 HD
ENDBRANCH  26  28
ENDBRANCH  23  24
ENDBRANCH  22  23
ENDBRANCH  21  22
ENDBRANCH  20  21
ENDBRANCH  19  20
ENDBRANCH  18  19
ENDBRANCH   2  18
TORSDOF 13
ENDMDL
MODEL 2
REMARK VINA RESULT:      -6.5      5.167      8.597
REMARK  13 active torsions:
REMARK  status: ('A' for Active; 'I' for Inactive)
REMARK    1  A    between atoms: C_7  and  C_8 
REMARK    2  A    between atoms: C_8  and  C_9 
REMARK    3  A    between atoms: C_9  and  C_10 
REMARK    4  A    between atoms: C_9  and  N_14 
REMARK    5  A    between atoms: C_10  and  O_12 
REMARK       I    between atoms: N_14  and  C_15 
REMARK    6  A    between atoms: C_15  and  C_17 
REMARK    7  A    between atoms: C_17  and  C_18 
REMARK    8  A    between atoms: C_18  and  C_19 
REMARK    9  A    between atoms: C_19  and  C_20 
REMARK   10  A    between atoms: C_20  and  C_21 
REMARK   11  A    between atoms: C_21  and  C_22 
REMARK   12  A    between atoms: C_22  and  C_23 
REMARK       I    between atoms: C_23  and  N_25 
REMARK   13  A    between atoms: N_25  and  O_26 
ROOT
HETATM    1  N   UNK N   1      34.033  16.068   9.700  0.00  0.00    -0.347 N 
HETATM    2  C   UNK N   1      35.097  16.573  10.375  0.00  0.00     0.218 C 
HETATM    3  O   UNK N   1      35.471  17.721  10.193  0.00  0.00    -0.274 OA
HETATM    4  H   UNK N   1      33.759  15.146   9.911  0.00  0.00     0.163 HD
ENDROOT
BRANCH   1   5
HETATM    5  C   UNK N   1      33.270  16.776   8.695  0.00  0.00     0.188 C 
BRANCH   5   6
HETATM    6  C   UNK N   1      31.958  16.004   8.502  0.00  0.00     0.074 C 
BRANCH   6   7
HETATM    7  C   UNK N   1      30.839  16.910   8.099  0.00  0.00    -0.056 A 
HETATM    8  C   UNK N   1      30.280  16.834   6.818  0.00  0.00     0.008 A 
HETATM    9  C   UNK N   1      29.273  17.725   6.439  0.00  0.00     0.019 A 
HETATM   10  C   UNK N   1      28.826  18.695   7.341  0.00  0.00     0.011 A 
HETATM   11 Br   UNK N   1      27.478  19.932   6.813  0.00  0.00    -0.051 Br
HETATM   12  C   UNK N   1      29.375  18.766   8.623  0.00  0.00     0.019 A 
HETATM   13  C   UNK N   1      30.380  17.873   9.003  0.00  0.00     0.008 A 
ENDBRANCH   6   7
ENDBRANCH   5   6
BRANCH   5  14
HETATM   14  C   UNK N   1      34.059  16.918   7.403  0.00  0.00     0.281 C 
HETATM   15  O   UNK N   1      34.553  17.996   7.094  0.00  0.00    -0.263 OA
BRANCH  14  16
HETATM   16  O   UNK N   1      34.236  15.838   6.606  0.00  0.00    -0.325 OA
HETATM   17  C   UNK N   1      35.382  15.078   6.637  0.00  0.00     0.213 C 
ENDBRANCH  14  16
ENDBRANCH   5  14
ENDBRANCH   1   5
BRANCH   2  18
HETATM   18  C   UNK N   1      35.802  15.713  11.375  0.00  0.00     0.103 C 
BRANCH  18  19
HETATM   19  C   UNK N   1      35.091  14.371  11.519  0.00  0.00     0.009 C 
BRANCH  19  20
HETATM   20  C   UNK N   1      35.524  13.587  12.750  0.00  0.00     0.000 C 
BRANCH  20  21
HETATM   21  C   UNK N   1      36.329  14.428  13.734  0.00  0.00     0.000 C 
BRANCH  21  22
HETATM   22  C   UNK N   1      36.810  13.592  14.914  0.00  0.00     0.009 C 
BRANCH  22  23
HETATM   23  C   UNK N   1      36.136  13.980  16.228  0.00  0.00     0.105 C 
BRANCH  23  24
HETATM   24  C   UNK N   1      36.814  15.137  16.901  0.00  0.00     0.240 C 
HETATM   25  O   UNK N   1      37.792  15.655  16.382  0.00  0.00    -0.271 OA
HETATM   26  N   UNK N   1      36.354  15.616  18.077  0.00  0.00    -0.237 N 
HETATM   27  H   UNK N   1      36.808  16.380  18.502  0.00  0.00     0.197 HD
BRANCH  26  28
HETATM   28  O   UNK N   1      35.287  15.065  18.675  0.00  0.00    -0.287 OA
HETATM   29  H   UNK N   1      34.407  15.375  18.940  0.00  0.00     0.244 HD
ENDBRANCH  26  28
ENDBRANCH  23  24
ENDBRANCH  22  23
ENDBRANCH  21  22
ENDBRANCH  20  21
ENDBRANCH  19  20
ENDBRANCH  18  19
ENDBRANCH   2  18
TORSDOF 13
ENDMDL
MODEL 3
REMARK VINA RESULT:      -6.3     10.444     12.322
REMARK  13 active torsions:
REMARK  status: ('A' for Active; 'I' for Inactive)
REMARK    1  A    between atoms: C_7  and  C_8 
REMARK    2  A    between atoms: C_8  and  C_9 
REMARK    3  A    between atoms: C_9  and  C_10 
REMARK    4  A    between atoms: C_9  and  N_14 
REMARK    5  A    between atoms: C_10  and  O_12 
REMARK       I    between atoms: N_14  and  C_15 
REMARK    6  A    between atoms: C_15  and  C_17 
REMARK    7  A    between atoms: C_17  and  C_18 
REMARK    8  A    between atoms: C_18  and  C_19 
REMARK    9  A    between atoms: C_19  and  C_20 
REMARK   10  A    between atoms: C_20  and  C_21 
REMARK   11  A    between atoms: C_21  and  C_22 
REMARK   12  A    between atoms: C_22  and  C_23 
REMARK       I    between atoms: C_23  and  N_25 
REMARK   13  A    between atoms: N_25  and  O_26 
ROOT
HETATM    1  N   UNK N   1      27.322  25.535  -4.214  0.00  0.00    -0.347 N 
HETATM    2  C   UNK N   1      27.591  24.461  -3.428  0.00  0.00     0.218 C 
HETATM    3  O   UNK N   1      26.698  23.867  -2.845  0.00  0.00    -0.274 OA
HETATM    4  H   UNK N   1      28.079  25.954  -4.683  0.00  0.00     0.163 HD
ENDROOT
BRANCH   1   5
HETATM    5  C   UNK N   1      26.010  26.110  -4.419  0.00  0.00     0.188 C 
BRANCH   5   6
HETATM    6  C   UNK N   1      25.825  26.277  -5.933  0.00  0.00     0.074 C 
BRANCH   6   7
HETATM    7  C   UNK N   1      26.195  25.033  -6.674  0.00  0.00    -0.056 A 
HETATM    8  C   UNK N   1      25.605  23.805  -6.354  0.00  0.00     0.008 A 
HETATM    9  C   UNK N   1      26.002  22.642  -7.019  0.00  0.00     0.019 A 
HETATM   10  C   UNK N   1      26.992  22.707  -8.004  0.00  0.00     0.011 A 
HETATM   11 Br   UNK N   1      27.558  21.117  -8.886  0.00  0.00    -0.051 Br
HETATM   12  C   UNK N   1      27.574  23.933  -8.333  0.00  0.00     0.019 A 
HETATM   13  C   UNK N   1      27.175  25.096  -7.670  0.00  0.00     0.008 A 
ENDBRANCH   6   7
ENDBRANCH   5   6
BRANCH   5  14
HETATM   14  C   UNK N   1      25.861  27.421  -3.665  0.00  0.00     0.281 C 
HETATM   15  O   UNK N   1      25.901  27.440  -2.440  0.00  0.00    -0.263 OA
BRANCH  14  16
HETATM   16  O   UNK N   1      25.709  28.576  -4.356  0.00  0.00    -0.325 OA
HETATM   17  C   UNK N   1      26.472  29.693  -4.104  0.00  0.00     0.213 C 
ENDBRANCH  14  16
ENDBRANCH   5  14
ENDBRANCH   1   5
BRANCH   2  18
HETATM   18  C   UNK N   1      29.004  23.989  -3.298  0.00  0.00     0.103 C 
BRANCH  18  19
HETATM   19  C   UNK N   1      29.861  24.552  -4.427  0.00  0.00     0.009 C 
BRANCH  19  20
HETATM   20  C   UNK N   1      30.520  23.477  -5.279  0.00  0.00     0.000 C 
BRANCH  20  21
HETATM   21  C   UNK N   1      29.579  22.325  -5.609  0.00  0.00     0.000 C 
BRANCH  21  22
HETATM   22  C   UNK N   1      30.251  20.976  -5.376  0.00  0.00     0.009 C 
BRANCH  22  23
HETATM   23  C   UNK N   1      30.955  20.892  -4.024  0.00  0.00     0.105 C 
BRANCH  23  24
HETATM   24  C   UNK N   1      32.387  20.459  -4.149  0.00  0.00     0.240 C 
HETATM   25  O   UNK N   1      32.791  19.990  -5.203  0.00  0.00    -0.271 OA
HETATM   26  N   UNK N   1      33.238  20.585  -3.107  0.00  0.00    -0.237 N 
HETATM   27  H   UNK N   1      34.176  20.302  -3.209  0.00  0.00     0.197 HD
BRANCH  26  28
HETATM   28  O   UNK N   1      32.822  21.090  -1.936  0.00  0.00    -0.287 OA
HETATM   29  H   UNK N   1      32.333  20.749  -1.171  0.00  0.00     0.244 HD
ENDBRANCH  26  28
ENDBRANCH  23  24
ENDBRANCH  22  23
ENDBRANCH  21  22
ENDBRANCH  20  21
ENDBRANCH  19  20
ENDBRANCH  18  19
ENDBRANCH   2  18
TORSDOF 13
ENDMDL
MODEL 4
REMARK VINA RESULT:      -6.3      4.119      5.826
REMARK  13 active torsions:
REMARK  status: ('A' for Active; 'I' for Inactive)
REMARK    1  A    between atoms: C_7  and  C_8 
REMARK    2  A    between atoms: C_8  and  C_9 
REMARK    3  A    between atoms: C_9  and  C_10 
REMARK    4  A    between atoms: C_9  and  N_14 
REMARK    5  A    between atoms: C_10  and  O_12 
REMARK       I    between atoms: N_14  and  C_15 
REMARK    6  A    between atoms: C_15  and  C_17 
REMARK    7  A    between atoms: C_17  and  C_18 
REMARK    8  A    between atoms: C_18  and  C_19 
REMARK    9  A    between atoms: C_19  and  C_20 
REMARK   10  A    between atoms: C_20  and  C_21 
REMARK   11  A    between atoms: C_21  and  C_22 
REMARK   12  A    between atoms: C_22  and  C_23 
REMARK       I    between atoms: C_23  and  N_25 
REMARK   13  A    between atoms: N_25  and  O_26 
ROOT
HETATM    1  N   UNK N   1      30.665  17.545   7.580  0.00  0.00    -0.347 N 
HETATM    2  C   UNK N   1      31.651  17.125   8.413  0.00  0.00     0.218 C 
HETATM    3  O   UNK N   1      31.438  16.277   9.265  0.00  0.00    -0.274 OA
HETATM    4  H   UNK N   1      30.905  18.208   6.893  0.00  0.00     0.163 HD
ENDROOT
BRANCH   1   5
HETATM    5  C   UNK N   1      29.291  17.093   7.619  0.00  0.00     0.188 C 
BRANCH   5   6
HETATM    6  C   UNK N   1      28.866  16.824   6.170  0.00  0.00     0.074 C 
BRANCH   6   7
HETATM    7  C   UNK N   1      30.004  16.307   5.349  0.00  0.00    -0.056 A 
HETATM    8  C   UNK N   1      30.498  15.012   5.543  0.00  0.00     0.008 A 
HETATM    9  C   UNK N   1      31.597  14.564   4.806  0.00  0.00     0.019 A 
HETATM   10  C   UNK N   1      32.204  15.412   3.875  0.00  0.00     0.011 A 
HETATM   11 Br   UNK N   1      33.723  14.814   2.896  0.00  0.00    -0.051 Br
HETATM   12  C   UNK N   1      31.705  16.701   3.672  0.00  0.00     0.019 A 
HETATM   13  C   UNK N   1      30.605  17.148   4.407  0.00  0.00     0.008 A 
ENDBRANCH   6   7
ENDBRANCH   5   6
BRANCH   5  14
HETATM   14  C   UNK N   1      28.398  18.111   8.309  0.00  0.00     0.281 C 
HETATM   15  O   UNK N   1      27.700  17.780   9.261  0.00  0.00    -0.263 OA
BRANCH  14  16
HETATM   16  O   UNK N   1      28.396  19.397   7.883  0.00  0.00    -0.325 OA
HETATM   17  C   UNK N   1      27.358  19.932   7.156  0.00  0.00     0.213 C 
ENDBRANCH  14  16
ENDBRANCH   5  14
ENDBRANCH   1   5
BRANCH   2  18
HETATM   18  C   UNK N   1      33.025  17.697   8.264  0.00  0.00     0.103 C 
BRANCH  18  19
HETATM   19  C   UNK N   1      33.474  17.633   6.808  0.00  0.00     0.009 C 
BRANCH  19  20
HETATM   20  C   UNK N   1      34.479  16.524   6.533  0.00  0.00     0.000 C 
BRANCH  20  21
HETATM   21  C   UNK N   1      34.199  15.260   7.338  0.00  0.00     0.000 C 
BRANCH  21  22
HETATM   22  C   UNK N   1      35.484  14.671   7.909  0.00  0.00     0.009 C 
BRANCH  22  23
HETATM   23  C   UNK N   1      35.359  14.299   9.384  0.00  0.00     0.105 C 
BRANCH  23  24
HETATM   24  C   UNK N   1      35.241  15.504  10.272  0.00  0.00     0.240 C 
HETATM   25  O   UNK N   1      36.154  16.315  10.320  0.00  0.00    -0.271 OA
HETATM   26  N   UNK N   1      34.133  15.703  11.018  0.00  0.00    -0.237 N 
HETATM   27  H   UNK N   1      34.071  16.503  11.591  0.00  0.00     0.197 HD
BRANCH  26  28
HETATM   28  O   UNK N   1      33.118  14.827  10.991  0.00  0.00    -0.287 OA
HETATM   29  H   UNK N   1      33.040  13.861  10.954  0.00  0.00     0.244 HD
ENDBRANCH  26  28
ENDBRANCH  23  24
ENDBRANCH  22  23
ENDBRANCH  21  22
ENDBRANCH  20  21
ENDBRANCH  19  20
ENDBRANCH  18  19
ENDBRANCH   2  18
TORSDOF 13
ENDMDL
MODEL 5
REMARK VINA RESULT:      -6.2     12.434     14.641
REMARK  13 active torsions:
REMARK  status: ('A' for Active; 'I' for Inactive)
REMARK    1  A    between atoms: C_7  and  C_8 
REMARK    2  A    between atoms: C_8  and  C_9 
REMARK    3  A    between atoms: C_9  and  C_10 
REMARK    4  A    between atoms: C_9  and  N_14 
REMARK    5  A    between atoms: C_10  and  O_12 
REMARK       I    between atoms: N_14  and  C_15 
REMARK    6  A    between atoms: C_15  and  C_17 
REMARK    7  A    between atoms: C_17  and  C_18 
REMARK    8  A    between atoms: C_18  and  C_19 
REMARK    9  A    between atoms: C_19  and  C_20 
REMARK   10  A    between atoms: C_20  and  C_21 
REMARK   11  A    between atoms: C_21  and  C_22 
REMARK   12  A    between atoms: C_22  and  C_23 
REMARK       I    between atoms: C_23  and  N_25 
REMARK   13  A    between atoms: N_25  and  O_26 
ROOT
HETATM    1  N   UNK N   1      27.092  26.488  -4.097  0.00  0.00    -0.347 N 
HETATM    2  C   UNK N   1      27.174  25.187  -3.717  0.00  0.00     0.218 C 
HETATM    3  O   UNK N   1      26.253  24.644  -3.127  0.00  0.00    -0.274 OA
HETATM    4  H   UNK N   1      27.852  26.862  -4.596  0.00  0.00     0.163 HD
ENDROOT
BRANCH   1   5
HETATM    5  C   UNK N   1      25.975  27.367  -3.826  0.00  0.00     0.188 C 
BRANCH   5   6
HETATM    6  C   UNK N   1      25.225  27.558  -5.150  0.00  0.00     0.074 C 
BRANCH   6   7
HETATM    7  C   UNK N   1      26.120  27.341  -6.328  0.00  0.00    -0.056 A 
HETATM    8  C   UNK N   1      27.247  28.145  -6.531  0.00  0.00     0.008 A 
HETATM    9  C   UNK N   1      28.042  27.964  -7.665  0.00  0.00     0.019 A 
HETATM   10  C   UNK N   1      27.709  26.980  -8.599  0.00  0.00     0.011 A 
HETATM   11 Br   UNK N   1      28.771  26.757 -10.163  0.00  0.00    -0.051 Br
HETATM   12  C   UNK N   1      26.590  26.168  -8.393  0.00  0.00     0.019 A 
HETATM   13  C   UNK N   1      25.797  26.347  -7.258  0.00  0.00     0.008 A 
ENDBRANCH   6   7
ENDBRANCH   5   6
BRANCH   5  14
HETATM   14  C   UNK N   1      26.443  28.683  -3.226  0.00  0.00     0.281 C 
HETATM   15  O   UNK N   1      26.101  29.748  -3.724  0.00  0.00    -0.263 OA
BRANCH  14  16
HETATM   16  O   UNK N   1      27.223  28.672  -2.118  0.00  0.00    -0.325 OA
HETATM   17  C   UNK N   1      28.115  29.679  -1.833  0.00  0.00     0.213 C 
ENDBRANCH  14  16
ENDBRANCH   5  14
ENDBRANCH   1   5
BRANCH   2  18
HETATM   18  C   UNK N   1      28.403  24.405  -4.053  0.00  0.00     0.103 C 
BRANCH  18  19
HETATM   19  C   UNK N   1      29.344  25.236  -4.918  0.00  0.00     0.009 C 
BRANCH  19  20
HETATM   20  C   UNK N   1      29.461  24.725  -6.347  0.00  0.00     0.000 C 
BRANCH  20  21
HETATM   21  C   UNK N   1      29.007  23.278  -6.497  0.00  0.00     0.000 C 
BRANCH  21  22
HETATM   22  C   UNK N   1      27.981  23.131  -7.614  0.00  0.00     0.009 C 
BRANCH  22  23
HETATM   23  C   UNK N   1      26.981  22.007  -7.355  0.00  0.00     0.105 C 
BRANCH  23  24
HETATM   24  C   UNK N   1      25.601  22.522  -7.067  0.00  0.00     0.240 C 
HETATM   25  O   UNK N   1      25.391  23.160  -6.045  0.00  0.00    -0.271 OA
HETATM   26  N   UNK N   1      24.586  22.291  -7.927  0.00  0.00    -0.237 N 
HETATM   27  H   UNK N   1      23.688  22.642  -7.724  0.00  0.00     0.197 HD
BRANCH  26  28
HETATM   28  O   UNK N   1      24.783  21.589  -9.053  0.00  0.00    -0.287 OA
HETATM   29  H   UNK N   1      25.493  21.524  -9.711  0.00  0.00     0.244 HD
ENDBRANCH  26  28
ENDBRANCH  23  24
ENDBRANCH  22  23
ENDBRANCH  21  22
ENDBRANCH  20  21
ENDBRANCH  19  20
ENDBRANCH  18  19
ENDBRANCH   2  18
TORSDOF 13
ENDMDL
MODEL 6
REMARK VINA RESULT:      -6.2      6.028      8.698
REMARK  13 active torsions:
REMARK  status: ('A' for Active; 'I' for Inactive)
REMARK    1  A    between atoms: C_7  and  C_8 
REMARK    2  A    between atoms: C_8  and  C_9 
REMARK    3  A    between atoms: C_9  and  C_10 
REMARK    4  A    between atoms: C_9  and  N_14 
REMARK    5  A    between atoms: C_10  and  O_12 
REMARK       I    between atoms: N_14  and  C_15 
REMARK    6  A    between atoms: C_15  and  C_17 
REMARK    7  A    between atoms: C_17  and  C_18 
REMARK    8  A    between atoms: C_18  and  C_19 
REMARK    9  A    between atoms: C_19  and  C_20 
REMARK   10  A    between atoms: C_20  and  C_21 
REMARK   11  A    between atoms: C_21  and  C_22 
REMARK   12  A    between atoms: C_22  and  C_23 
REMARK       I    between atoms: C_23  and  N_25 
REMARK   13  A    between atoms: N_25  and  O_26 
ROOT
HETATM    1  N   UNK N   1      20.988  16.530   5.755  0.00  0.00    -0.347 N 
HETATM    2  C   UNK N   1      21.423  17.812   5.843  0.00  0.00     0.218 C 
HETATM    3  O   UNK N   1      21.274  18.459   6.869  0.00  0.00    -0.274 OA
HETATM    4  H   UNK N   1      21.163  16.049   4.914  0.00  0.00     0.163 HD
ENDROOT
BRANCH   1   5
HETATM    5  C   UNK N   1      20.288  15.813   6.798  0.00  0.00     0.188 C 
BRANCH   5   6
HETATM    6  C   UNK N   1      20.580  14.321   6.591  0.00  0.00     0.074 C 
BRANCH   6   7
HETATM    7  C   UNK N   1      21.162  13.697   7.818  0.00  0.00    -0.056 A 
HETATM    8  C   UNK N   1      20.699  14.049   9.091  0.00  0.00     0.008 A 
HETATM    9  C   UNK N   1      21.292  13.498  10.229  0.00  0.00     0.019 A 
HETATM   10  C   UNK N   1      22.350  12.595  10.096  0.00  0.00     0.011 A 
HETATM   11 Br   UNK N   1      23.181  11.871  11.648  0.00  0.00    -0.051 Br
HETATM   12  C   UNK N   1      22.807  12.234   8.826  0.00  0.00     0.019 A 
HETATM   13  C   UNK N   1      22.212  12.783   7.688  0.00  0.00     0.008 A 
ENDBRANCH   6   7
ENDBRANCH   5   6
BRANCH   5  14
HETATM   14  C   UNK N   1      18.800  16.124   6.776  0.00  0.00     0.281 C 
HETATM   15  O   UNK N   1      18.159  16.017   5.737  0.00  0.00    -0.263 OA
BRANCH  14  16
HETATM   16  O   UNK N   1      18.178  16.497   7.921  0.00  0.00    -0.325 OA
HETATM   17  C   UNK N   1      18.794  17.267   8.879  0.00  0.00     0.213 C 
ENDBRANCH  14  16
ENDBRANCH   5  14
ENDBRANCH   1   5
BRANCH   2  18
HETATM   18  C   UNK N   1      22.118  18.430   4.672  0.00  0.00     0.103 C 
BRANCH  18  19
HETATM   19  C   UNK N   1      23.600  18.064   4.678  0.00  0.00     0.009 C 
BRANCH  19  20
HETATM   20  C   UNK N   1      24.510  19.227   4.312  0.00  0.00     0.000 C 
BRANCH  20  21
HETATM   21  C   UNK N   1      25.987  18.906   4.508  0.00  0.00     0.000 C 
BRANCH  21  22
HETATM   22  C   UNK N   1      26.858  20.135   4.270  0.00  0.00     0.009 C 
BRANCH  22  23
HETATM   23  C   UNK N   1      27.142  20.916   5.550  0.00  0.00     0.105 C 
BRANCH  23  24
HETATM   24  C   UNK N   1      27.513  20.022   6.698  0.00  0.00     0.240 C 
HETATM   25  O   UNK N   1      28.398  19.191   6.559  0.00  0.00    -0.271 OA
HETATM   26  N   UNK N   1      26.880  20.129   7.886  0.00  0.00    -0.237 N 
HETATM   27  H   UNK N   1      27.141  19.539   8.630  0.00  0.00     0.197 HD
BRANCH  26  28
HETATM   28  O   UNK N   1      25.901  21.028   8.066  0.00  0.00    -0.287 OA
HETATM   29  H   UNK N   1      25.810  21.862   8.552  0.00  0.00     0.244 HD
ENDBRANCH  26  28
ENDBRANCH  23  24
ENDBRANCH  22  23
ENDBRANCH  21  22
ENDBRANCH  20  21
ENDBRANCH  19  20
ENDBRANCH  18  19
ENDBRANCH   2  18
TORSDOF 13
ENDMDL
MODEL 7
REMARK VINA RESULT:      -6.2      3.334      5.289
REMARK  13 active torsions:
REMARK  status: ('A' for Active; 'I' for Inactive)
REMARK    1  A    between atoms: C_7  and  C_8 
REMARK    2  A    between atoms: C_8  and  C_9 
REMARK    3  A    between atoms: C_9  and  C_10 
REMARK    4  A    between atoms: C_9  and  N_14 
REMARK    5  A    between atoms: C_10  and  O_12 
REMARK       I    between atoms: N_14  and  C_15 
REMARK    6  A    between atoms: C_15  and  C_17 
REMARK    7  A    between atoms: C_17  and  C_18 
REMARK    8  A    between atoms: C_18  and  C_19 
REMARK    9  A    between atoms: C_19  and  C_20 
REMARK   10  A    between atoms: C_20  and  C_21 
REMARK   11  A    between atoms: C_21  and  C_22 
REMARK   12  A    between atoms: C_22  and  C_23 
REMARK       I    between atoms: C_23  and  N_25 
REMARK   13  A    between atoms: N_25  and  O_26 
ROOT
HETATM    1  N   UNK N   1      28.672  18.277   7.294  0.00  0.00    -0.347 N 
HETATM    2  C   UNK N   1      28.611  18.069   8.634  0.00  0.00     0.218 C 
HETATM    3  O   UNK N   1      27.544  17.873   9.194  0.00  0.00    -0.274 OA
HETATM    4  H   UNK N   1      29.563  18.399   6.895  0.00  0.00     0.163 HD
ENDROOT
BRANCH   1   5
HETATM    5  C   UNK N   1      27.531  18.332   6.406  0.00  0.00     0.188 C 
BRANCH   5   6
HETATM    6  C   UNK N   1      27.703  17.202   5.384  0.00  0.00     0.074 C 
BRANCH   6   7
HETATM    7  C   UNK N   1      29.136  16.802   5.241  0.00  0.00    -0.056 A 
HETATM    8  C   UNK N   1      30.044  17.618   4.555  0.00  0.00     0.008 A 
HETATM    9  C   UNK N   1      31.366  17.203   4.382  0.00  0.00     0.019 A 
HETATM   10  C   UNK N   1      31.782  15.971   4.893  0.00  0.00     0.011 A 
HETATM   11 Br   UNK N   1      33.576  15.390   4.627  0.00  0.00    -0.051 Br
HETATM   12  C   UNK N   1      30.881  15.160   5.587  0.00  0.00     0.019 A 
HETATM   13  C   UNK N   1      29.560  15.576   5.762  0.00  0.00     0.008 A 
ENDBRANCH   6   7
ENDBRANCH   5   6
BRANCH   5  14
HETATM   14  C   UNK N   1      27.410  19.699   5.750  0.00  0.00     0.281 C 
HETATM   15  O   UNK N   1      27.731  20.711   6.362  0.00  0.00    -0.263 OA
BRANCH  14  16
HETATM   16  O   UNK N   1      26.971  19.790   4.472  0.00  0.00    -0.325 OA
HETATM   17  C   UNK N   1      25.703  20.219   4.156  0.00  0.00     0.213 C 
ENDBRANCH  14  16
ENDBRANCH   5  14
ENDBRANCH   1   5
BRANCH   2  18
HETATM   18  C   UNK N   1      29.878  18.056   9.429  0.00  0.00     0.103 C 
BRANCH  18  19
HETATM   19  C   UNK N   1      31.008  17.427   8.619  0.00  0.00     0.009 C 
BRANCH  19  20
HETATM   20  C   UNK N   1      32.279  18.264   8.605  0.00  0.00     0.000 C 
BRANCH  20  21
HETATM   21  C   UNK N   1      33.233  17.874   7.482  0.00  0.00     0.000 C 
BRANCH  21  22
HETATM   22  C   UNK N   1      34.623  17.557   8.020  0.00  0.00     0.009 C 
BRANCH  22  23
HETATM   23  C   UNK N   1      34.671  16.247   8.803  0.00  0.00     0.105 C 
BRANCH  23  24
HETATM   24  C   UNK N   1      35.030  16.453  10.246  0.00  0.00     0.240 C 
HETATM   25  O   UNK N   1      35.923  17.233  10.545  0.00  0.00    -0.271 OA
HETATM   26  N   UNK N   1      34.373  15.788  11.221  0.00  0.00    -0.237 N 
HETATM   27  H   UNK N   1      34.618  15.940  12.162  0.00  0.00     0.197 HD
BRANCH  26  28
HETATM   28  O   UNK N   1      33.393  14.922  10.923  0.00  0.00    -0.287 OA
HETATM   29  H   UNK N   1      32.529  14.700  11.303  0.00  0.00     0.244 HD
ENDBRANCH  26  28
ENDBRANCH  23  24
ENDBRANCH  22  23
ENDBRANCH  21  22
ENDBRANCH  20  21
ENDBRANCH  19  20
ENDBRANCH  18  19
ENDBRANCH   2  18
TORSDOF 13
ENDMDL
MODEL 8
REMARK VINA RESULT:      -6.2      7.643      9.196
REMARK  13 active torsions:
REMARK  status: ('A' for Active; 'I' for Inactive)
REMARK    1  A    between atoms: C_7  and  C_8 
REMARK    2  A    between atoms: C_8  and  C_9 
REMARK    3  A    between atoms: C_9  and  C_10 
REMARK    4  A    between atoms: C_9  and  N_14 
REMARK    5  A    between atoms: C_10  and  O_12 
REMARK       I    between atoms: N_14  and  C_15 
REMARK    6  A    between atoms: C_15  and  C_17 
REMARK    7  A    between atoms: C_17  and  C_18 
REMARK    8  A    between atoms: C_18  and  C_19 
REMARK    9  A    between atoms: C_19  and  C_20 
REMARK   10  A    between atoms: C_20  and  C_21 
REMARK   11  A    between atoms: C_21  and  C_22 
REMARK   12  A    between atoms: C_22  and  C_23 
REMARK       I    between atoms: C_23  and  N_25 
REMARK   13  A    between atoms: N_25  and  O_26 
ROOT
HETATM    1  N   UNK N   1      20.991  16.111   7.131  0.00  0.00    -0.347 N 
HETATM    2  C   UNK N   1      19.877  15.886   7.874  0.00  0.00     0.218 C 
HETATM    3  O   UNK N   1      18.765  16.131   7.432  0.00  0.00    -0.274 OA
HETATM    4  H   UNK N   1      21.858  15.865   7.528  0.00  0.00     0.163 HD
ENDROOT
BRANCH   1   5
HETATM    5  C   UNK N   1      21.006  16.683   5.802  0.00  0.00     0.188 C 
BRANCH   5   6
HETATM    6  C   UNK N   1      21.965  15.833   4.959  0.00  0.00     0.074 C 
BRANCH   6   7
HETATM    7  C   UNK N   1      21.254  15.151   3.835  0.00  0.00    -0.056 A 
HETATM    8  C   UNK N   1      19.913  14.770   3.960  0.00  0.00     0.008 A 
HETATM    9  C   UNK N   1      19.280  14.083   2.921  0.00  0.00     0.019 A 
HETATM   10  C   UNK N   1      19.988  13.776   1.756  0.00  0.00     0.011 A 
HETATM   11 Br   UNK N   1      19.135  12.810   0.355  0.00  0.00    -0.051 Br
HETATM   12  C   UNK N   1      21.323  14.165   1.625  0.00  0.00     0.019 A 
HETATM   13  C   UNK N   1      21.955  14.853   2.663  0.00  0.00     0.008 A 
ENDBRANCH   6   7
ENDBRANCH   5   6
BRANCH   5  14
HETATM   14  C   UNK N   1      21.405  18.150   5.839  0.00  0.00     0.281 C 
HETATM   15  O   UNK N   1      21.343  18.783   6.886  0.00  0.00    -0.263 OA
BRANCH  14  16
HETATM   16  O   UNK N   1      21.857  18.748   4.711  0.00  0.00    -0.325 OA
HETATM   17  C   UNK N   1      21.028  19.437   3.857  0.00  0.00     0.213 C 
ENDBRANCH  14  16
ENDBRANCH   5  14
ENDBRANCH   1   5
BRANCH   2  18
HETATM   18  C   UNK N   1      20.019  15.304   9.244  0.00  0.00     0.103 C 
BRANCH  18  19
HETATM   19  C   UNK N   1      21.104  14.230   9.258  0.00  0.00     0.009 C 
BRANCH  19  20
HETATM   20  C   UNK N   1      20.848  13.126  10.273  0.00  0.00     0.000 C 
BRANCH  20  21
HETATM   21  C   UNK N   1      22.050  12.210  10.466  0.00  0.00     0.000 C 
BRANCH  21  22
HETATM   22  C   UNK N   1      22.703  11.863   9.133  0.00  0.00     0.009 C 
BRANCH  22  23
HETATM   23  C   UNK N   1      24.217  11.700   9.240  0.00  0.00     0.105 C 
BRANCH  23  24
HETATM   24  C   UNK N   1      24.927  13.014   9.392  0.00  0.00     0.240 C 
HETATM   25  O   UNK N   1      25.018  13.770   8.436  0.00  0.00    -0.271 OA
HETATM   26  N   UNK N   1      25.466  13.372  10.578  0.00  0.00    -0.237 N 
HETATM   27  H   UNK N   1      25.923  14.241  10.660  0.00  0.00     0.197 HD
BRANCH  26  28
HETATM   28  O   UNK N   1      25.388  12.562  11.643  0.00  0.00    -0.287 OA
HETATM   29  H   UNK N   1      25.998  12.281  12.343  0.00  0.00     0.244 HD
ENDBRANCH  26  28
ENDBRANCH  23  24
ENDBRANCH  22  23
ENDBRANCH  21  22
ENDBRANCH  20  21
ENDBRANCH  19  20
ENDBRANCH  18  19
ENDBRANCH   2  18
TORSDOF 13
ENDMDL
MODEL 9
REMARK VINA RESULT:      -6.2     11.104     13.174
REMARK  13 active torsions:
REMARK  status: ('A' for Active; 'I' for Inactive)
REMARK    1  A    between atoms: C_7  and  C_8 
REMARK    2  A    between atoms: C_8  and  C_9 
REMARK    3  A    between atoms: C_9  and  C_10 
REMARK    4  A    between atoms: C_9  and  N_14 
REMARK    5  A    between atoms: C_10  and  O_12 
REMARK       I    between atoms: N_14  and  C_15 
REMARK    6  A    between atoms: C_15  and  C_17 
REMARK    7  A    between atoms: C_17  and  C_18 
REMARK    8  A    between atoms: C_18  and  C_19 
REMARK    9  A    between atoms: C_19  and  C_20 
REMARK   10  A    between atoms: C_20  and  C_21 
REMARK   11  A    between atoms: C_21  and  C_22 
REMARK   12  A    between atoms: C_22  and  C_23 
REMARK       I    between atoms: C_23  and  N_25 
REMARK   13  A    between atoms: N_25  and  O_26 
ROOT
HETATM    1  N   UNK N   1      27.203  22.102  -7.464  0.00  0.00    -0.347 N 
HETATM    2  C   UNK N   1      28.343  22.112  -8.200  0.00  0.00     0.218 C 
HETATM    3  O   UNK N   1      28.687  23.110  -8.815  0.00  0.00    -0.274 OA
HETATM    4  H   UNK N   1      26.993  21.280  -6.965  0.00  0.00     0.163 HD
ENDROOT
BRANCH   1   5
HETATM    5  C   UNK N   1      26.272  23.204  -7.352  0.00  0.00     0.188 C 
BRANCH   5   6
HETATM    6  C   UNK N   1      25.799  23.246  -5.894  0.00  0.00     0.074 C 
BRANCH   6   7
HETATM    7  C   UNK N   1      25.867  24.629  -5.331  0.00  0.00    -0.056 A 
HETATM    8  C   UNK N   1      25.341  25.717  -6.036  0.00  0.00     0.008 A 
HETATM    9  C   UNK N   1      25.462  27.010  -5.521  0.00  0.00     0.019 A 
HETATM   10  C   UNK N   1      26.112  27.216  -4.302  0.00  0.00     0.011 A 
HETATM   11 Br   UNK N   1      26.308  28.982  -3.617  0.00  0.00    -0.051 Br
HETATM   12  C   UNK N   1      26.629  26.130  -3.590  0.00  0.00     0.019 A 
HETATM   13  C   UNK N   1      26.505  24.837  -4.104  0.00  0.00     0.008 A 
ENDBRANCH   6   7
ENDBRANCH   5   6
BRANCH   5  14
HETATM   14  C   UNK N   1      25.121  23.054  -8.335  0.00  0.00     0.281 C 
HETATM   15  O   UNK N   1      24.202  22.278  -8.099  0.00  0.00    -0.263 OA
BRANCH  14  16
HETATM   16  O   UNK N   1      25.103  23.803  -9.463  0.00  0.00    -0.325 OA
HETATM   17  C   UNK N   1      25.819  24.971  -9.585  0.00  0.00     0.213 C 
ENDBRANCH  14  16
ENDBRANCH   5  14
ENDBRANCH   1   5
BRANCH   2  18
HETATM   18  C   UNK N   1      29.201  20.888  -8.235  0.00  0.00     0.103 C 
BRANCH  18  19
HETATM   19  C   UNK N   1      29.548  20.440  -6.818  0.00  0.00     0.009 C 
BRANCH  19  20
HETATM   20  C   UNK N   1      30.806  21.097  -6.269  0.00  0.00     0.000 C 
BRANCH  20  21
HETATM   21  C   UNK N   1      31.083  20.724  -4.817  0.00  0.00     0.000 C 
BRANCH  21  22
HETATM   22  C   UNK N   1      30.109  21.415  -3.871  0.00  0.00     0.009 C 
BRANCH  22  23
HETATM   23  C   UNK N   1      29.891  22.886  -4.216  0.00  0.00     0.105 C 
BRANCH  23  24
HETATM   24  C   UNK N   1      30.349  23.807  -3.123  0.00  0.00     0.240 C 
HETATM   25  O   UNK N   1      30.674  23.347  -2.037  0.00  0.00    -0.271 OA
HETATM   26  N   UNK N   1      30.410  25.140  -3.326  0.00  0.00    -0.237 N 
HETATM   27  H   UNK N   1      30.719  25.729  -2.599  0.00  0.00     0.197 HD
BRANCH  26  28
HETATM   28  O   UNK N   1      30.055  25.674  -4.504  0.00  0.00    -0.287 OA
HETATM   29  H   UNK N   1      29.515  26.429  -4.785  0.00  0.00     0.244 HD
ENDBRANCH  26  28
ENDBRANCH  23  24
ENDBRANCH  22  23
ENDBRANCH  21  22
ENDBRANCH  20  21
ENDBRANCH  19  20
ENDBRANCH  18  19
ENDBRANCH   2  18
TORSDOF 13
ENDMDL
