REMARK  13 active torsions:
REMARK  status: ('A' for Active; 'I' for Inactive)
REMARK    1  A    between atoms: C_7  and  C_8 
REMARK    2  A    between atoms: C_8  and  C_9 
REMARK    3  A    between atoms: C_9  and  C_10 
REMARK    4  A    between atoms: C_9  and  N_14 
REMARK    5  A    between atoms: C_10  and  O_12 
REMARK       I    between atoms: N_14  and  C_15 
REMARK    6  A    between atoms: C_15  and  C_17 
REMARK    7  A    between atoms: C_17  and  C_18 
REMARK    8  A    between atoms: C_18  and  C_19 
REMARK    9  A    between atoms: C_19  and  C_20 
REMARK   10  A    between atoms: C_20  and  C_21 
REMARK   11  A    between atoms: C_21  and  C_22 
REMARK   12  A    between atoms: C_22  and  C_23 
REMARK       I    between atoms: C_23  and  N_25 
REMARK   13  A    between atoms: N_25  and  O_26 
ROOT
HETATM    1  N   UNK N   1      -3.380  -3.323  -0.024  0.00  0.00    -0.347 N 
HETATM    2  C   UNK N   1      -2.318  -3.581  -0.829  0.00  0.00     0.218 C 
HETATM    3  O   UNK N   1      -2.395  -4.402  -1.730  0.00  0.00    -0.274 OA
HETATM    4  H   UNK N   1      -3.268  -2.629   0.665  0.00  0.00     0.163 HD
ENDROOT
BRANCH   1   5
HETATM    5  C   UNK N   1      -4.664  -3.986  -0.099  0.00  0.00     0.188 C 
BRANCH   5   6
HETATM    6  C   UNK N   1      -5.618  -3.221   0.827  0.00  0.00     0.074 C 
BRANCH   6   7
HETATM    7  C   UNK N   1      -7.049  -3.515   0.509  0.00  0.00    -0.056 A 
HETATM    8  C   UNK N   1      -7.655  -4.696   0.953  0.00  0.00     0.008 A 
HETATM    9  C   UNK N   1      -8.976  -4.981   0.600  0.00  0.00     0.019 A 
HETATM   10  C   UNK N   1      -9.692  -4.086  -0.199  0.00  0.00     0.011 A 
HETATM   11 Br   UNK N   1     -11.481  -4.491  -0.709  0.00  0.00    -0.051 Br
HETATM   12  C   UNK N   1      -9.093  -2.901  -0.634  0.00  0.00     0.019 A 
HETATM   13  C   UNK N   1      -7.773  -2.615  -0.279  0.00  0.00     0.008 A 
ENDBRANCH   6   7
ENDBRANCH   5   6
BRANCH   5  14
HETATM   14  C   UNK N   1      -4.546  -5.456   0.271  0.00  0.00     0.281 C 
HETATM   15  O   UNK N   1      -5.069  -5.882   1.294  0.00  0.00    -0.263 OA
BRANCH  14  16
HETATM   16  O   UNK N   1      -3.880  -6.301  -0.552  0.00  0.00    -0.325 OA
HETATM   17  C   UNK N   1      -3.811  -7.655  -0.321  0.00  0.00     0.213 C 
ENDBRANCH  14  16
ENDBRANCH   5  14
ENDBRANCH   1   5
BRANCH   2  18
HETATM   18  C   UNK N   1      -1.044  -2.826  -0.621  0.00  0.00     0.103 C 
BRANCH  18  19
HETATM   19  C   UNK N   1      -0.625  -2.881   0.845  0.00  0.00     0.009 C 
BRANCH  19  20
HETATM   20  C   UNK N   1       0.415  -3.953   1.136  0.00  0.00     0.000 C 
BRANCH  20  21
HETATM   21  C   UNK N   1      -0.147  -5.366   1.034  0.00  0.00     0.000 C 
BRANCH  21  22
HETATM   22  C   UNK N   1      -0.058  -5.897  -0.392  0.00  0.00     0.009 C 
BRANCH  22  23
HETATM   23  C   UNK N   1       1.352  -6.342  -0.771  0.00  0.00     0.105 C 
BRANCH  23  24
HETATM   24  C   UNK N   1       2.304  -5.188  -0.897  0.00  0.00     0.240 C 
HETATM   25  O   UNK N   1       2.067  -4.288  -1.690  0.00  0.00    -0.271 OA
HETATM   26  N   UNK N   1       3.421  -5.131  -0.140  0.00  0.00    -0.237 N 
HETATM   27  H   UNK N   1       4.031  -4.363  -0.232  0.00  0.00     0.197 HD
BRANCH  26  28
HETATM   28  O   UNK N   1       3.711  -6.106   0.734  0.00  0.00    -0.287 OA
HETATM   29  H   UNK N   1       3.205  -6.640   1.366  0.00  0.00     0.244 HD
ENDBRANCH  26  28
ENDBRANCH  23  24
ENDBRANCH  22  23
ENDBRANCH  21  22
ENDBRANCH  20  21
ENDBRANCH  19  20
ENDBRANCH  18  19
ENDBRANCH   2  18
TORSDOF 13
