MODEL 1
REMARK VINA RESULT:      -6.2      0.000      0.000
REMARK  13 active torsions:
REMARK  status: ('A' for Active; 'I' for Inactive)
REMARK    1  A    between atoms: P_2  and  O_3 
REMARK    2  A    between atoms: P_2  and  C_4 
REMARK    3  A    between atoms: P_2  and  C_7 
REMARK    4  A    between atoms: C_4  and  N_5 
REMARK    5  A    between atoms: C_8  and  C_7 
REMARK    6  A    between atoms: C_8  and  C_16 
REMARK    7  A    between atoms: C_8  and  C_9 
REMARK    8  A    between atoms: C_10  and  C_9 
REMARK       I    between atoms: C_16  and  N_18 
REMARK    9  A    between atoms: C_19  and  N_18 
REMARK   10  A    between atoms: C_19  and  C_23 
REMARK   11  A    between atoms: C_20  and  C_19 
REMARK   12  A    between atoms: C_20  and  O_22 
REMARK   13  A    between atoms: C_23  and  C_24 
ROOT
HETATM    1  C   UNK N   1      28.552  24.384  -6.786  0.00  0.00     0.091 C 
ENDROOT
BRANCH   1   2
HETATM    2  C   UNK N   1      28.228  24.108  -8.263  0.00  0.00     0.110 C 
BRANCH   2   3
HETATM    3  P   UNK N   1      26.568  23.271  -8.562  0.00  0.00     0.121 P 
HETATM    4  O   UNK N   1      26.593  22.681  -9.996  0.00  0.00    -0.672 OA
BRANCH   3   5
HETATM    5  O   UNK N   1      25.306  24.457  -8.697  0.00  0.00    -0.348 OA
HETATM    6  H   UNK N   1      25.267  25.260  -8.155  0.00  0.00     0.218 HD
ENDBRANCH   3   5
BRANCH   3   7
HETATM    7  C   UNK N   1      25.969  21.920  -7.434  0.00  0.00     0.153 C 
HETATM    8  C   UNK N   1      25.571  20.710  -8.252  0.00  0.00     0.042 C 
BRANCH   7   9
HETATM    9  N   UNK N   1      24.825  22.384  -6.674  0.00  0.00    -0.419 N 
HETATM   10  H   UNK N   1      24.527  21.957  -5.797  0.00  0.00     0.150 HD
HETATM   11  H   UNK N   1      24.293  23.176  -7.034  0.00  0.00     0.150 HD
ENDBRANCH   7   9
ENDBRANCH   3   7
ENDBRANCH   2   3
ENDBRANCH   1   2
BRANCH   1  12
HETATM   12  C   UNK N   1      29.004  23.195  -5.935  0.00  0.00     0.223 C 
HETATM   13  N   UNK N   1      28.888  23.070  -4.585  0.00  0.00    -0.346 N 
HETATM   14  H   UNK N   1      29.053  22.159  -4.249  0.00  0.00     0.163 HD
HETATM   15  O   UNK N   1      29.551  22.268  -6.530  0.00  0.00    -0.273 OA
BRANCH  13  16
HETATM   16  C   UNK N   1      28.567  24.036  -3.546  0.00  0.00     0.186 C 
BRANCH  16  17
HETATM   17  C   UNK N   1      27.036  24.198  -3.489  0.00  0.00     0.074 C 
BRANCH  17  18
HETATM   18  C   UNK N   1      26.390  25.477  -3.973  0.00  0.00    -0.056 A 
HETATM   19  C   UNK N   1      26.362  26.653  -3.207  0.00  0.00     0.007 A 
HETATM   20  C   UNK N   1      25.691  27.788  -3.671  0.00  0.00     0.001 A 
HETATM   21  C   UNK N   1      25.049  27.760  -4.912  0.00  0.00     0.000 A 
HETATM   22  C   UNK N   1      25.080  26.599  -5.687  0.00  0.00     0.001 A 
HETATM   23  C   UNK N   1      25.741  25.459  -5.214  0.00  0.00     0.007 A 
ENDBRANCH  17  18
ENDBRANCH  16  17
BRANCH  16  24
HETATM   24  C   UNK N   1      29.091  23.446  -2.266  0.00  0.00     0.163 C 
HETATM   25  O   UNK N   1      28.325  22.926  -1.468  0.00  0.00    -0.648 OA
BRANCH  24  26
HETATM   26  O   UNK N   1      30.410  23.485  -1.993  0.00  0.00    -0.775 OA
HETATM   27  H   UNK N   1      31.234  23.209  -2.344  0.00  0.00     0.167 HD
ENDBRANCH  24  26
ENDBRANCH  16  24
ENDBRANCH  13  16
ENDBRANCH   1  12
BRANCH   1  28
HETATM   28  C   UNK N   1      29.657  25.456  -6.722  0.00  0.00     0.053 C 
BRANCH  28  29
HETATM   29  C   UNK N   1      29.214  26.834  -6.359  0.00  0.00    -0.057 A 
HETATM   30  C   UNK N   1      28.392  27.570  -7.222  0.00  0.00     0.007 A 
HETATM   31  C   UNK N   1      27.938  28.837  -6.845  0.00  0.00     0.001 A 
HETATM   32  C   UNK N   1      28.296  29.366  -5.600  0.00  0.00     0.000 A 
HETATM   33  C   UNK N   1      29.109  28.629  -4.735  0.00  0.00     0.001 A 
HETATM   34  C   UNK N   1      29.565  27.363  -5.113  0.00  0.00     0.007 A 
ENDBRANCH  28  29
ENDBRANCH   1  28
TORSDOF 13
ENDMDL
MODEL 2
REMARK VINA RESULT:      -6.0     14.336     17.101
REMARK  13 active torsions:
REMARK  status: ('A' for Active; 'I' for Inactive)
REMARK    1  A    between atoms: P_2  and  O_3 
REMARK    2  A    between atoms: P_2  and  C_4 
REMARK    3  A    between atoms: P_2  and  C_7 
REMARK    4  A    between atoms: C_4  and  N_5 
REMARK    5  A    between atoms: C_8  and  C_7 
REMARK    6  A    between atoms: C_8  and  C_16 
REMARK    7  A    between atoms: C_8  and  C_9 
REMARK    8  A    between atoms: C_10  and  C_9 
REMARK       I    between atoms: C_16  and  N_18 
REMARK    9  A    between atoms: C_19  and  N_18 
REMARK   10  A    between atoms: C_19  and  C_23 
REMARK   11  A    between atoms: C_20  and  C_19 
REMARK   12  A    between atoms: C_20  and  O_22 
REMARK   13  A    between atoms: C_23  and  C_24 
ROOT
HETATM    1  C   UNK N   1      32.668  16.267   8.166  0.00  0.00     0.091 C 
ENDROOT
BRANCH   1   2
HETATM    2  C   UNK N   1      32.874  15.295   9.340  0.00  0.00     0.110 C 
BRANCH   2   3
HETATM    3  P   UNK N   1      34.536  15.456  10.212  0.00  0.00     0.121 P 
HETATM    4  O   UNK N   1      34.393  14.806  11.613  0.00  0.00    -0.672 OA
BRANCH   3   5
HETATM    5  O   UNK N   1      34.845  17.113  10.628  0.00  0.00    -0.348 OA
HETATM    6  H   UNK N   1      34.144  17.771  10.759  0.00  0.00     0.218 HD
ENDBRANCH   3   5
BRANCH   3   7
HETATM    7  C   UNK N   1      36.080  14.756   9.448  0.00  0.00     0.153 C 
HETATM    8  C   UNK N   1      35.805  13.362   8.926  0.00  0.00     0.042 C 
BRANCH   7   9
HETATM    9  N   UNK N   1      37.136  14.699  10.440  0.00  0.00    -0.419 N 
HETATM   10  H   UNK N   1      37.850  13.971  10.453  0.00  0.00     0.150 HD
HETATM   11  H   UNK N   1      37.166  15.422  11.159  0.00  0.00     0.150 HD
ENDBRANCH   7   9
ENDBRANCH   3   7
ENDBRANCH   2   3
ENDBRANCH   1   2
BRANCH   1  12
HETATM   12  C   UNK N   1      32.430  17.739   8.512  0.00  0.00     0.223 C 
HETATM   13  N   UNK N   1      31.227  18.367   8.611  0.00  0.00    -0.346 N 
HETATM   14  H   UNK N   1      31.270  19.255   9.034  0.00  0.00     0.163 HD
HETATM   15  O   UNK N   1      33.430  18.431   8.693  0.00  0.00    -0.273 OA
BRANCH  13  16
HETATM   16  C   UNK N   1      29.888  17.968   8.207  0.00  0.00     0.186 C 
BRANCH  16  17
HETATM   17  C   UNK N   1      29.967  16.560   7.585  0.00  0.00     0.074 C 
BRANCH  17  18
HETATM   18  C   UNK N   1      29.783  16.377   6.096  0.00  0.00    -0.056 A 
HETATM   19  C   UNK N   1      29.350  17.411   5.250  0.00  0.00     0.007 A 
HETATM   20  C   UNK N   1      29.129  17.170   3.890  0.00  0.00     0.001 A 
HETATM   21  C   UNK N   1      29.346  15.895   3.362  0.00  0.00     0.000 A 
HETATM   22  C   UNK N   1      29.788  14.863   4.193  0.00  0.00     0.001 A 
HETATM   23  C   UNK N   1      29.996  15.102   5.556  0.00  0.00     0.007 A 
ENDBRANCH  17  18
ENDBRANCH  16  17
BRANCH  16  24
HETATM   24  C   UNK N   1      29.071  17.951   9.469  0.00  0.00     0.163 C 
HETATM   25  O   UNK N   1      27.890  17.633   9.434  0.00  0.00    -0.648 OA
BRANCH  24  26
HETATM   26  O   UNK N   1      29.636  18.285  10.646  0.00  0.00    -0.775 OA
HETATM   27  H   UNK N   1      29.788  17.940  11.503  0.00  0.00     0.167 HD
ENDBRANCH  24  26
ENDBRANCH  16  24
ENDBRANCH  13  16
ENDBRANCH   1  12
BRANCH   1  28
HETATM   28  C   UNK N   1      33.903  16.192   7.249  0.00  0.00     0.053 C 
BRANCH  28  29
HETATM   29  C   UNK N   1      33.636  16.260   5.782  0.00  0.00    -0.057 A 
HETATM   30  C   UNK N   1      33.790  15.125   4.976  0.00  0.00     0.007 A 
HETATM   31  C   UNK N   1      33.482  15.188   3.614  0.00  0.00     0.001 A 
HETATM   32  C   UNK N   1      33.009  16.381   3.058  0.00  0.00     0.000 A 
HETATM   33  C   UNK N   1      32.847  17.511   3.864  0.00  0.00     0.001 A 
HETATM   34  C   UNK N   1      33.157  17.450   5.225  0.00  0.00     0.007 A 
ENDBRANCH  28  29
ENDBRANCH   1  28
TORSDOF 13
ENDMDL
MODEL 3
REMARK VINA RESULT:      -5.9      2.072      5.404
REMARK  13 active torsions:
REMARK  status: ('A' for Active; 'I' for Inactive)
REMARK    1  A    between atoms: P_2  and  O_3 
REMARK    2  A    between atoms: P_2  and  C_4 
REMARK    3  A    between atoms: P_2  and  C_7 
REMARK    4  A    between atoms: C_4  and  N_5 
REMARK    5  A    between atoms: C_8  and  C_7 
REMARK    6  A    between atoms: C_8  and  C_16 
REMARK    7  A    between atoms: C_8  and  C_9 
REMARK    8  A    between atoms: C_10  and  C_9 
REMARK       I    between atoms: C_16  and  N_18 
REMARK    9  A    between atoms: C_19  and  N_18 
REMARK   10  A    between atoms: C_19  and  C_23 
REMARK   11  A    between atoms: C_20  and  C_19 
REMARK   12  A    between atoms: C_20  and  O_22 
REMARK   13  A    between atoms: C_23  and  C_24 
ROOT
HETATM    1  C   UNK N   1      28.300  23.815  -4.946  0.00  0.00     0.091 C 
ENDROOT
BRANCH   1   2
HETATM    2  C   UNK N   1      28.761  23.190  -3.618  0.00  0.00     0.110 C 
BRANCH   2   3
HETATM    3  P   UNK N   1      30.538  23.585  -3.137  0.00  0.00     0.121 P 
HETATM    4  O   UNK N   1      30.753  23.080  -1.687  0.00  0.00    -0.672 OA
BRANCH   3   5
HETATM    5  O   UNK N   1      30.748  25.298  -2.943  0.00  0.00    -0.348 OA
HETATM    6  H   UNK N   1      30.314  25.957  -3.507  0.00  0.00     0.218 HD
ENDBRANCH   3   5
BRANCH   3   7
HETATM    7  C   UNK N   1      31.961  22.942  -4.147  0.00  0.00     0.153 C 
HETATM    8  C   UNK N   1      32.225  23.876  -5.309  0.00  0.00     0.042 C 
BRANCH   7   9
HETATM    9  N   UNK N   1      31.645  21.621  -4.654  0.00  0.00    -0.419 N 
HETATM   10  H   UNK N   1      31.722  20.774  -4.090  0.00  0.00     0.150 HD
HETATM   11  H   UNK N   1      31.333  21.533  -5.621  0.00  0.00     0.150 HD
ENDBRANCH   7   9
ENDBRANCH   3   7
ENDBRANCH   2   3
ENDBRANCH   1   2
BRANCH   1  12
HETATM   12  C   UNK N   1      28.657  23.066  -6.232  0.00  0.00     0.223 C 
HETATM   13  N   UNK N   1      28.570  23.545  -7.502  0.00  0.00    -0.346 N 
HETATM   14  H   UNK N   1      29.028  22.990  -8.174  0.00  0.00     0.163 HD
HETATM   15  O   UNK N   1      29.037  21.903  -6.105  0.00  0.00    -0.273 OA
BRANCH  13  16
HETATM   16  C   UNK N   1      27.923  24.726  -8.051  0.00  0.00     0.186 C 
BRANCH  16  17
HETATM   17  C   UNK N   1      28.960  25.865  -8.111  0.00  0.00     0.074 C 
BRANCH  17  18
HETATM   18  C   UNK N   1      28.900  26.998  -7.112  0.00  0.00    -0.056 A 
HETATM   19  C   UNK N   1      29.553  26.954  -5.870  0.00  0.00     0.007 A 
HETATM   20  C   UNK N   1      29.409  28.000  -4.954  0.00  0.00     0.001 A 
HETATM   21  C   UNK N   1      28.616  29.105  -5.275  0.00  0.00     0.000 A 
HETATM   22  C   UNK N   1      27.971  29.164  -6.512  0.00  0.00     0.001 A 
HETATM   23  C   UNK N   1      28.106  28.110  -7.423  0.00  0.00     0.007 A 
ENDBRANCH  17  18
ENDBRANCH  16  17
BRANCH  16  24
HETATM   24  C   UNK N   1      27.473  24.339  -9.433  0.00  0.00     0.163 C 
HETATM   25  O   UNK N   1      28.285  24.252 -10.343  0.00  0.00    -0.648 OA
BRANCH  24  26
HETATM   26  O   UNK N   1      26.172  24.083  -9.674  0.00  0.00    -0.775 OA
HETATM   27  H   UNK N   1      25.624  23.554 -10.219  0.00  0.00     0.167 HD
ENDBRANCH  24  26
ENDBRANCH  16  24
ENDBRANCH  13  16
ENDBRANCH   1  12
BRANCH   1  28
HETATM   28  C   UNK N   1      26.769  23.974  -4.903  0.00  0.00     0.053 C 
BRANCH  28  29
HETATM   29  C   UNK N   1      26.258  25.370  -4.762  0.00  0.00    -0.057 A 
HETATM   30  C   UNK N   1      25.452  25.937  -5.757  0.00  0.00     0.007 A 
HETATM   31  C   UNK N   1      24.934  27.225  -5.587  0.00  0.00     0.001 A 
HETATM   32  C   UNK N   1      25.210  27.941  -4.418  0.00  0.00     0.000 A 
HETATM   33  C   UNK N   1      26.007  27.372  -3.421  0.00  0.00     0.001 A 
HETATM   34  C   UNK N   1      26.527  26.085  -3.591  0.00  0.00     0.007 A 
ENDBRANCH  28  29
ENDBRANCH   1  28
TORSDOF 13
ENDMDL
MODEL 4
REMARK VINA RESULT:      -5.9      2.911      5.795
REMARK  13 active torsions:
REMARK  status: ('A' for Active; 'I' for Inactive)
REMARK    1  A    between atoms: P_2  and  O_3 
REMARK    2  A    between atoms: P_2  and  C_4 
REMARK    3  A    between atoms: P_2  and  C_7 
REMARK    4  A    between atoms: C_4  and  N_5 
REMARK    5  A    between atoms: C_8  and  C_7 
REMARK    6  A    between atoms: C_8  and  C_16 
REMARK    7  A    between atoms: C_8  and  C_9 
REMARK    8  A    between atoms: C_10  and  C_9 
REMARK       I    between atoms: C_16  and  N_18 
REMARK    9  A    between atoms: C_19  and  N_18 
REMARK   10  A    between atoms: C_19  and  C_23 
REMARK   11  A    between atoms: C_20  and  C_19 
REMARK   12  A    between atoms: C_20  and  O_22 
REMARK   13  A    between atoms: C_23  and  C_24 
ROOT
HETATM    1  C   UNK N   1      28.226  23.911  -4.387  0.00  0.00     0.091 C 
ENDROOT
BRANCH   1   2
HETATM    2  C   UNK N   1      29.660  24.226  -3.929  0.00  0.00     0.110 C 
BRANCH   2   3
HETATM    3  P   UNK N   1      30.544  22.799  -3.074  0.00  0.00     0.121 P 
HETATM    4  O   UNK N   1      29.669  21.532  -3.254  0.00  0.00    -0.672 OA
BRANCH   3   5
HETATM    5  O   UNK N   1      30.503  23.007  -1.350  0.00  0.00    -0.348 OA
HETATM    6  H   UNK N   1      31.159  23.526  -0.859  0.00  0.00     0.218 HD
ENDBRANCH   3   5
BRANCH   3   7
HETATM    7  C   UNK N   1      32.277  22.330  -3.556  0.00  0.00     0.153 C 
HETATM    8  C   UNK N   1      32.329  22.025  -5.038  0.00  0.00     0.042 C 
BRANCH   7   9
HETATM    9  N   UNK N   1      32.696  21.161  -2.809  0.00  0.00    -0.419 N 
HETATM   10  H   UNK N   1      32.044  20.556  -2.309  0.00  0.00     0.150 HD
HETATM   11  H   UNK N   1      33.690  20.934  -2.780  0.00  0.00     0.150 HD
ENDBRANCH   7   9
ENDBRANCH   3   7
ENDBRANCH   2   3
ENDBRANCH   1   2
BRANCH   1  12
HETATM   12  C   UNK N   1      27.090  24.677  -3.706  0.00  0.00     0.223 C 
HETATM   13  N   UNK N   1      26.800  25.999  -3.850  0.00  0.00    -0.346 N 
HETATM   14  H   UNK N   1      25.921  26.260  -3.490  0.00  0.00     0.163 HD
HETATM   15  O   UNK N   1      26.383  24.039  -2.928  0.00  0.00    -0.273 OA
BRANCH  13  16
HETATM   16  C   UNK N   1      27.549  27.098  -4.438  0.00  0.00     0.186 C 
BRANCH  16  17
HETATM   17  C   UNK N   1      26.683  27.745  -5.535  0.00  0.00     0.074 C 
BRANCH  17  18
HETATM   18  C   UNK N   1      26.716  27.204  -6.946  0.00  0.00    -0.056 A 
HETATM   19  C   UNK N   1      25.689  26.412  -7.482  0.00  0.00     0.007 A 
HETATM   20  C   UNK N   1      25.800  25.878  -8.770  0.00  0.00     0.001 A 
HETATM   21  C   UNK N   1      26.938  26.140  -9.538  0.00  0.00     0.000 A 
HETATM   22  C   UNK N   1      27.961  26.937  -9.018  0.00  0.00     0.001 A 
HETATM   23  C   UNK N   1      27.853  27.459  -7.724  0.00  0.00     0.007 A 
ENDBRANCH  17  18
ENDBRANCH  16  17
BRANCH  16  24
HETATM   24  C   UNK N   1      27.802  28.065  -3.314  0.00  0.00     0.163 C 
HETATM   25  O   UNK N   1      26.883  28.426  -2.594  0.00  0.00    -0.648 OA
BRANCH  24  26
HETATM   26  O   UNK N   1      29.045  28.537  -3.095  0.00  0.00    -0.775 OA
HETATM   27  H   UNK N   1      29.488  29.294  -2.767  0.00  0.00     0.167 HD
ENDBRANCH  24  26
ENDBRANCH  16  24
ENDBRANCH  13  16
ENDBRANCH   1  12
BRANCH   1  28
HETATM   28  C   UNK N   1      28.131  24.176  -5.902  0.00  0.00     0.053 C 
BRANCH  28  29
HETATM   29  C   UNK N   1      27.365  23.171  -6.697  0.00  0.00    -0.057 A 
HETATM   30  C   UNK N   1      28.015  22.358  -7.634  0.00  0.00     0.007 A 
HETATM   31  C   UNK N   1      27.296  21.383  -8.331  0.00  0.00     0.001 A 
HETATM   32  C   UNK N   1      25.930  21.211  -8.085  0.00  0.00     0.000 A 
HETATM   33  C   UNK N   1      25.283  22.016  -7.144  0.00  0.00     0.001 A 
HETATM   34  C   UNK N   1      26.000  22.993  -6.448  0.00  0.00     0.007 A 
ENDBRANCH  28  29
ENDBRANCH   1  28
TORSDOF 13
ENDMDL
MODEL 5
REMARK VINA RESULT:      -5.8     19.396     23.323
REMARK  13 active torsions:
REMARK  status: ('A' for Active; 'I' for Inactive)
REMARK    1  A    between atoms: P_2  and  O_3 
REMARK    2  A    between atoms: P_2  and  C_4 
REMARK    3  A    between atoms: P_2  and  C_7 
REMARK    4  A    between atoms: C_4  and  N_5 
REMARK    5  A    between atoms: C_8  and  C_7 
REMARK    6  A    between atoms: C_8  and  C_16 
REMARK    7  A    between atoms: C_8  and  C_9 
REMARK    8  A    between atoms: C_10  and  C_9 
REMARK       I    between atoms: C_16  and  N_18 
REMARK    9  A    between atoms: C_19  and  N_18 
REMARK   10  A    between atoms: C_19  and  C_23 
REMARK   11  A    between atoms: C_20  and  C_19 
REMARK   12  A    between atoms: C_20  and  O_22 
REMARK   13  A    between atoms: C_23  and  C_24 
ROOT
HETATM    1  C   UNK N   1      35.463  12.458  10.145  0.00  0.00     0.091 C 
ENDROOT
BRANCH   1   2
HETATM    2  C   UNK N   1      34.969  13.493   9.121  0.00  0.00     0.110 C 
BRANCH   2   3
HETATM    3  P   UNK N   1      33.806  14.799   9.820  0.00  0.00     0.121 P 
HETATM    4  O   UNK N   1      33.894  14.724  11.366  0.00  0.00    -0.672 OA
BRANCH   3   5
HETATM    5  O   UNK N   1      32.151  14.346   9.545  0.00  0.00    -0.348 OA
HETATM    6  H   UNK N   1      31.506  14.221  10.259  0.00  0.00     0.218 HD
ENDBRANCH   3   5
BRANCH   3   7
HETATM    7  C   UNK N   1      33.997  16.589   9.355  0.00  0.00     0.153 C 
HETATM    8  C   UNK N   1      34.498  16.695   7.930  0.00  0.00     0.042 C 
BRANCH   7   9
HETATM    9  N   UNK N   1      34.943  17.229  10.247  0.00  0.00    -0.419 N 
HETATM   10  H   UNK N   1      35.762  16.753  10.627  0.00  0.00     0.150 HD
HETATM   11  H   UNK N   1      34.783  18.203  10.507  0.00  0.00     0.150 HD
ENDBRANCH   7   9
ENDBRANCH   3   7
ENDBRANCH   2   3
ENDBRANCH   1   2
BRANCH   1  12
HETATM   12  C   UNK N   1      35.673  11.027   9.647  0.00  0.00     0.223 C 
HETATM   13  N   UNK N   1      34.827   9.974   9.816  0.00  0.00    -0.346 N 
HETATM   14  H   UNK N   1      35.040   9.192   9.257  0.00  0.00     0.163 HD
HETATM   15  O   UNK N   1      36.726  10.797   9.055  0.00  0.00    -0.273 OA
BRANCH  13  16
HETATM   16  C   UNK N   1      33.664   9.792  10.671  0.00  0.00     0.186 C 
BRANCH  16  17
HETATM   17  C   UNK N   1      33.793  10.744  11.876  0.00  0.00     0.074 C 
BRANCH  17  18
HETATM   18  C   UNK N   1      34.238  10.212  13.219  0.00  0.00    -0.056 A 
HETATM   19  C   UNK N   1      33.852  10.797  14.435  0.00  0.00     0.007 A 
HETATM   20  C   UNK N   1      34.348  10.308  15.648  0.00  0.00     0.001 A 
HETATM   21  C   UNK N   1      35.228   9.222  15.655  0.00  0.00     0.000 A 
HETATM   22  C   UNK N   1      35.609   8.626  14.451  0.00  0.00     0.001 A 
HETATM   23  C   UNK N   1      35.122   9.125  13.238  0.00  0.00     0.007 A 
ENDBRANCH  17  18
ENDBRANCH  16  17
BRANCH  16  24
HETATM   24  C   UNK N   1      32.476  10.156   9.824  0.00  0.00     0.163 C 
HETATM   25  O   UNK N   1      31.800   9.281   9.303  0.00  0.00    -0.648 OA
BRANCH  24  26
HETATM   26  O   UNK N   1      32.149  11.450   9.638  0.00  0.00    -0.775 OA
HETATM   27  H   UNK N   1      31.421  12.035   9.715  0.00  0.00     0.167 HD
ENDBRANCH  24  26
ENDBRANCH  16  24
ENDBRANCH  13  16
ENDBRANCH   1  12
BRANCH   1  28
HETATM   28  C   UNK N   1      36.799  12.953  10.732  0.00  0.00     0.053 C 
BRANCH  28  29
HETATM   29  C   UNK N   1      36.989  12.746  12.197  0.00  0.00    -0.057 A 
HETATM   30  C   UNK N   1      36.385  13.606  13.123  0.00  0.00     0.007 A 
HETATM   31  C   UNK N   1      36.525  13.368  14.494  0.00  0.00     0.001 A 
HETATM   32  C   UNK N   1      37.258  12.264  14.940  0.00  0.00     0.000 A 
HETATM   33  C   UNK N   1      37.853  11.400  14.017  0.00  0.00     0.001 A 
HETATM   34  C   UNK N   1      37.716  11.639  12.646  0.00  0.00     0.007 A 
ENDBRANCH  28  29
ENDBRANCH   1  28
TORSDOF 13
ENDMDL
MODEL 6
REMARK VINA RESULT:      -5.7     13.421     16.312
REMARK  13 active torsions:
REMARK  status: ('A' for Active; 'I' for Inactive)
REMARK    1  A    between atoms: P_2  and  O_3 
REMARK    2  A    between atoms: P_2  and  C_4 
REMARK    3  A    between atoms: P_2  and  C_7 
REMARK    4  A    between atoms: C_4  and  N_5 
REMARK    5  A    between atoms: C_8  and  C_7 
REMARK    6  A    between atoms: C_8  and  C_16 
REMARK    7  A    between atoms: C_8  and  C_9 
REMARK    8  A    between atoms: C_10  and  C_9 
REMARK       I    between atoms: C_16  and  N_18 
REMARK    9  A    between atoms: C_19  and  N_18 
REMARK   10  A    between atoms: C_19  and  C_23 
REMARK   11  A    between atoms: C_20  and  C_19 
REMARK   12  A    between atoms: C_20  and  O_22 
REMARK   13  A    between atoms: C_23  and  C_24 
ROOT
HETATM    1  C   UNK N   1      31.533  16.599   7.366  0.00  0.00     0.091 C 
ENDROOT
BRANCH   1   2
HETATM    2  C   UNK N   1      32.628  15.521   7.449  0.00  0.00     0.110 C 
BRANCH   2   3
HETATM    3  P   UNK N   1      33.016  14.927   9.193  0.00  0.00     0.121 P 
HETATM    4  O   UNK N   1      33.069  13.377   9.157  0.00  0.00    -0.672 OA
BRANCH   3   5
HETATM    5  O   UNK N   1      31.661  15.203  10.244  0.00  0.00    -0.348 OA
HETATM    6  H   UNK N   1      30.751  15.305   9.926  0.00  0.00     0.218 HD
ENDBRANCH   3   5
BRANCH   3   7
HETATM    7  C   UNK N   1      34.552  15.498  10.071  0.00  0.00     0.153 C 
HETATM    8  C   UNK N   1      34.665  14.800  11.409  0.00  0.00     0.042 C 
BRANCH   7   9
HETATM    9  N   UNK N   1      34.494  16.932  10.279  0.00  0.00    -0.419 N 
HETATM   10  H   UNK N   1      33.702  17.400  10.719  0.00  0.00     0.150 HD
HETATM   11  H   UNK N   1      35.283  17.499   9.970  0.00  0.00     0.150 HD
ENDBRANCH   7   9
ENDBRANCH   3   7
ENDBRANCH   2   3
ENDBRANCH   1   2
BRANCH   1  12
HETATM   12  C   UNK N   1      31.686  17.821   8.273  0.00  0.00     0.223 C 
HETATM   13  N   UNK N   1      30.696  18.453   8.960  0.00  0.00    -0.346 N 
HETATM   14  H   UNK N   1      31.018  19.089   9.638  0.00  0.00     0.163 HD
HETATM   15  O   UNK N   1      32.816  18.297   8.372  0.00  0.00    -0.273 OA
BRANCH  13  16
HETATM   16  C   UNK N   1      29.246  18.362   8.875  0.00  0.00     0.186 C 
BRANCH  16  17
HETATM   17  C   UNK N   1      28.869  17.931   7.445  0.00  0.00     0.074 C 
BRANCH  17  18
HETATM   18  C   UNK N   1      28.103  18.874   6.545  0.00  0.00    -0.056 A 
HETATM   19  C   UNK N   1      27.757  18.552   5.223  0.00  0.00     0.007 A 
HETATM   20  C   UNK N   1      27.109  19.488   4.410  0.00  0.00     0.001 A 
HETATM   21  C   UNK N   1      26.794  20.752   4.916  0.00  0.00     0.000 A 
HETATM   22  C   UNK N   1      27.124  21.078   6.233  0.00  0.00     0.001 A 
HETATM   23  C   UNK N   1      27.784  20.145   7.041  0.00  0.00     0.007 A 
ENDBRANCH  17  18
ENDBRANCH  16  17
BRANCH  16  24
HETATM   24  C   UNK N   1      28.846  17.312   9.875  0.00  0.00     0.163 C 
HETATM   25  O   UNK N   1      27.749  16.778   9.800  0.00  0.00    -0.648 OA
BRANCH  24  26
HETATM   26  O   UNK N   1      29.696  16.954  10.857  0.00  0.00    -0.775 OA
HETATM   27  H   UNK N   1      30.550  17.152  11.187  0.00  0.00     0.167 HD
ENDBRANCH  24  26
ENDBRANCH  16  24
ENDBRANCH  13  16
ENDBRANCH   1  12
BRANCH   1  28
HETATM   28  C   UNK N   1      31.453  17.099   5.911  0.00  0.00     0.053 C 
BRANCH  28  29
HETATM   29  C   UNK N   1      30.579  16.310   4.993  0.00  0.00    -0.057 A 
HETATM   30  C   UNK N   1      29.826  15.232   5.477  0.00  0.00     0.007 A 
HETATM   31  C   UNK N   1      28.968  14.538   4.619  0.00  0.00     0.001 A 
HETATM   32  C   UNK N   1      28.853  14.927   3.280  0.00  0.00     0.000 A 
HETATM   33  C   UNK N   1      29.597  16.007   2.799  0.00  0.00     0.001 A 
HETATM   34  C   UNK N   1      30.457  16.701   3.656  0.00  0.00     0.007 A 
ENDBRANCH  28  29
ENDBRANCH   1  28
TORSDOF 13
ENDMDL
MODEL 7
REMARK VINA RESULT:      -5.6      2.628      4.260
REMARK  13 active torsions:
REMARK  status: ('A' for Active; 'I' for Inactive)
REMARK    1  A    between atoms: P_2  and  O_3 
REMARK    2  A    between atoms: P_2  and  C_4 
REMARK    3  A    between atoms: P_2  and  C_7 
REMARK    4  A    between atoms: C_4  and  N_5 
REMARK    5  A    between atoms: C_8  and  C_7 
REMARK    6  A    between atoms: C_8  and  C_16 
REMARK    7  A    between atoms: C_8  and  C_9 
REMARK    8  A    between atoms: C_10  and  C_9 
REMARK       I    between atoms: C_16  and  N_18 
REMARK    9  A    between atoms: C_19  and  N_18 
REMARK   10  A    between atoms: C_19  and  C_23 
REMARK   11  A    between atoms: C_20  and  C_19 
REMARK   12  A    between atoms: C_20  and  O_22 
REMARK   13  A    between atoms: C_23  and  C_24 
ROOT
HETATM    1  C   UNK N   1      27.783  24.740  -4.911  0.00  0.00     0.091 C 
ENDROOT
BRANCH   1   2
HETATM    2  C   UNK N   1      27.357  23.381  -5.492  0.00  0.00     0.110 C 
BRANCH   2   3
HETATM    3  P   UNK N   1      26.068  23.479  -6.862  0.00  0.00     0.121 P 
HETATM    4  O   UNK N   1      25.261  24.786  -6.651  0.00  0.00    -0.672 OA
BRANCH   3   5
HETATM    5  O   UNK N   1      24.842  22.272  -6.629  0.00  0.00    -0.348 OA
HETATM    6  H   UNK N   1      24.991  21.324  -6.772  0.00  0.00     0.218 HD
ENDBRANCH   3   5
BRANCH   3   7
HETATM    7  C   UNK N   1      26.579  23.444  -8.650  0.00  0.00     0.153 C 
HETATM    8  C   UNK N   1      28.062  23.724  -8.763  0.00  0.00     0.042 C 
BRANCH   7   9
HETATM    9  N   UNK N   1      25.841  24.447  -9.391  0.00  0.00    -0.419 N 
HETATM   10  H   UNK N   1      26.218  25.370  -9.607  0.00  0.00     0.150 HD
HETATM   11  H   UNK N   1      24.899  24.219  -9.712  0.00  0.00     0.150 HD
ENDBRANCH   7   9
ENDBRANCH   3   7
ENDBRANCH   2   3
ENDBRANCH   1   2
BRANCH   1  12
HETATM   12  C   UNK N   1      26.989  25.268  -3.714  0.00  0.00     0.223 C 
HETATM   13  N   UNK N   1      26.711  26.570  -3.433  0.00  0.00    -0.346 N 
HETATM   14  H   UNK N   1      26.027  26.694  -2.736  0.00  0.00     0.163 HD
HETATM   15  O   UNK N   1      26.584  24.431  -2.909  0.00  0.00    -0.273 OA
BRANCH  13  16
HETATM   16  C   UNK N   1      27.238  27.813  -3.974  0.00  0.00     0.186 C 
BRANCH  16  17
HETATM   17  C   UNK N   1      26.600  28.052  -5.356  0.00  0.00     0.074 C 
BRANCH  17  18
HETATM   18  C   UNK N   1      27.474  28.229  -6.576  0.00  0.00    -0.056 A 
HETATM   19  C   UNK N   1      27.515  27.298  -7.625  0.00  0.00     0.007 A 
HETATM   20  C   UNK N   1      28.393  27.475  -8.699  0.00  0.00     0.001 A 
HETATM   21  C   UNK N   1      29.234  28.591  -8.737  0.00  0.00     0.000 A 
HETATM   22  C   UNK N   1      29.193  29.529  -7.703  0.00  0.00     0.001 A 
HETATM   23  C   UNK N   1      28.322  29.343  -6.623  0.00  0.00     0.007 A 
ENDBRANCH  17  18
ENDBRANCH  16  17
BRANCH  16  24
HETATM   24  C   UNK N   1      26.830  28.885  -3.002  0.00  0.00     0.163 C 
HETATM   25  O   UNK N   1      27.367  28.959  -1.906  0.00  0.00    -0.648 OA
BRANCH  24  26
HETATM   26  O   UNK N   1      25.871  29.770  -3.335  0.00  0.00    -0.775 OA
HETATM   27  H   UNK N   1      25.062  30.121  -3.016  0.00  0.00     0.167 HD
ENDBRANCH  24  26
ENDBRANCH  16  24
ENDBRANCH  13  16
ENDBRANCH   1  12
BRANCH   1  28
HETATM   28  C   UNK N   1      29.262  24.647  -4.493  0.00  0.00     0.053 C 
BRANCH  28  29
HETATM   29  C   UNK N   1      30.208  25.543  -5.221  0.00  0.00    -0.057 A 
HETATM   30  C   UNK N   1      30.645  25.220  -6.512  0.00  0.00     0.007 A 
HETATM   31  C   UNK N   1      31.485  26.096  -7.206  0.00  0.00     0.001 A 
HETATM   32  C   UNK N   1      31.880  27.301  -6.615  0.00  0.00     0.000 A 
HETATM   33  C   UNK N   1      31.438  27.628  -5.330  0.00  0.00     0.001 A 
HETATM   34  C   UNK N   1      30.599  26.751  -4.635  0.00  0.00     0.007 A 
ENDBRANCH  28  29
ENDBRANCH   1  28
TORSDOF 13
ENDMDL
MODEL 8
REMARK VINA RESULT:      -5.6     12.521     15.372
REMARK  13 active torsions:
REMARK  status: ('A' for Active; 'I' for Inactive)
REMARK    1  A    between atoms: P_2  and  O_3 
REMARK    2  A    between atoms: P_2  and  C_4 
REMARK    3  A    between atoms: P_2  and  C_7 
REMARK    4  A    between atoms: C_4  and  N_5 
REMARK    5  A    between atoms: C_8  and  C_7 
REMARK    6  A    between atoms: C_8  and  C_16 
REMARK    7  A    between atoms: C_8  and  C_9 
REMARK    8  A    between atoms: C_10  and  C_9 
REMARK       I    between atoms: C_16  and  N_18 
REMARK    9  A    between atoms: C_19  and  N_18 
REMARK   10  A    between atoms: C_19  and  C_23 
REMARK   11  A    between atoms: C_20  and  C_19 
REMARK   12  A    between atoms: C_20  and  O_22 
REMARK   13  A    between atoms: C_23  and  C_24 
ROOT
HETATM    1  C   UNK N   1      22.374  16.819   5.481  0.00  0.00     0.091 C 
ENDROOT
BRANCH   1   2
HETATM    2  C   UNK N   1      22.540  15.966   6.750  0.00  0.00     0.110 C 
BRANCH   2   3
HETATM    3  P   UNK N   1      21.251  14.609   6.960  0.00  0.00     0.121 P 
HETATM    4  O   UNK N   1      21.415  13.622   5.775  0.00  0.00    -0.672 OA
BRANCH   3   5
HETATM    5  O   UNK N   1      19.658  15.236   6.672  0.00  0.00    -0.348 OA
HETATM    6  H   UNK N   1      19.395  16.146   6.883  0.00  0.00     0.218 HD
ENDBRANCH   3   5
BRANCH   3   7
HETATM    7  C   UNK N   1      21.195  13.585   8.511  0.00  0.00     0.153 C 
HETATM    8  C   UNK N   1      20.357  14.288   9.557  0.00  0.00     0.042 C 
BRANCH   7   9
HETATM    9  N   UNK N   1      22.538  13.391   9.020  0.00  0.00    -0.419 N 
HETATM   10  H   UNK N   1      22.751  12.790   9.817  0.00  0.00     0.150 HD
HETATM   11  H   UNK N   1      23.307  13.878   8.560  0.00  0.00     0.150 HD
ENDBRANCH   7   9
ENDBRANCH   3   7
ENDBRANCH   2   3
ENDBRANCH   1   2
BRANCH   1  12
HETATM   12  C   UNK N   1      21.603  18.134   5.619  0.00  0.00     0.223 C 
HETATM   13  N   UNK N   1      21.119  18.902   4.605  0.00  0.00    -0.346 N 
HETATM   14  H   UNK N   1      20.485  19.598   4.895  0.00  0.00     0.163 HD
HETATM   15  O   UNK N   1      21.425  18.552   6.761  0.00  0.00    -0.273 OA
BRANCH  13  16
HETATM   16  C   UNK N   1      21.366  18.885   3.172  0.00  0.00     0.186 C 
BRANCH  16  17
HETATM   17  C   UNK N   1      20.153  18.238   2.477  0.00  0.00     0.074 C 
BRANCH  17  18
HETATM   18  C   UNK N   1      20.135  16.749   2.213  0.00  0.00    -0.056 A 
HETATM   19  C   UNK N   1      20.458  16.194   0.964  0.00  0.00     0.007 A 
HETATM   20  C   UNK N   1      20.359  14.815   0.753  0.00  0.00     0.001 A 
HETATM   21  C   UNK N   1      19.943  13.978   1.792  0.00  0.00     0.000 A 
HETATM   22  C   UNK N   1      19.631  14.519   3.041  0.00  0.00     0.001 A 
HETATM   23  C   UNK N   1      19.719  15.901   3.246  0.00  0.00     0.007 A 
ENDBRANCH  17  18
ENDBRANCH  16  17
BRANCH  16  24
HETATM   24  C   UNK N   1      21.510  20.326   2.767  0.00  0.00     0.163 C 
HETATM   25  O   UNK N   1      22.353  20.653   1.943  0.00  0.00    -0.648 OA
BRANCH  24  26
HETATM   26  O   UNK N   1      20.709  21.264   3.309  0.00  0.00    -0.775 OA
HETATM   27  H   UNK N   1      19.807  21.428   3.500  0.00  0.00     0.167 HD
ENDBRANCH  24  26
ENDBRANCH  16  24
ENDBRANCH  13  16
ENDBRANCH   1  12
BRANCH   1  28
HETATM   28  C   UNK N   1      23.774  17.149   4.931  0.00  0.00     0.053 C 
BRANCH  28  29
HETATM   29  C   UNK N   1      24.220  16.353   3.749  0.00  0.00    -0.057 A 
HETATM   30  C   UNK N   1      25.512  16.508   3.231  0.00  0.00     0.007 A 
HETATM   31  C   UNK N   1      25.935  15.715   2.160  0.00  0.00     0.001 A 
HETATM   32  C   UNK N   1      25.073  14.760   1.613  0.00  0.00     0.000 A 
HETATM   33  C   UNK N   1      23.786  14.599   2.135  0.00  0.00     0.001 A 
HETATM   34  C   UNK N   1      23.361  15.393   3.205  0.00  0.00     0.007 A 
ENDBRANCH  28  29
ENDBRANCH   1  28
TORSDOF 13
ENDMDL
MODEL 9
REMARK VINA RESULT:      -5.6      3.033      6.022
REMARK  13 active torsions:
REMARK  status: ('A' for Active; 'I' for Inactive)
REMARK    1  A    between atoms: P_2  and  O_3 
REMARK    2  A    between atoms: P_2  and  C_4 
REMARK    3  A    between atoms: P_2  and  C_7 
REMARK    4  A    between atoms: C_4  and  N_5 
REMARK    5  A    between atoms: C_8  and  C_7 
REMARK    6  A    between atoms: C_8  and  C_16 
REMARK    7  A    between atoms: C_8  and  C_9 
REMARK    8  A    between atoms: C_10  and  C_9 
REMARK       I    between atoms: C_16  and  N_18 
REMARK    9  A    between atoms: C_19  and  N_18 
REMARK   10  A    between atoms: C_19  and  C_23 
REMARK   11  A    between atoms: C_20  and  C_19 
REMARK   12  A    between atoms: C_20  and  O_22 
REMARK   13  A    between atoms: C_23  and  C_24 
ROOT
HETATM    1  C   UNK N   1      27.816  25.283  -4.863  0.00  0.00     0.091 C 
ENDROOT
BRANCH   1   2
HETATM    2  C   UNK N   1      26.862  25.814  -3.780  0.00  0.00     0.110 C 
BRANCH   2   3
HETATM    3  P   UNK N   1      26.120  27.506  -4.146  0.00  0.00     0.121 P 
HETATM    4  O   UNK N   1      25.426  28.002  -2.851  0.00  0.00    -0.672 OA
BRANCH   3   5
HETATM    5  O   UNK N   1      24.768  27.354  -5.226  0.00  0.00    -0.348 OA
HETATM    6  H   UNK N   1      24.861  27.235  -6.184  0.00  0.00     0.218 HD
ENDBRANCH   3   5
BRANCH   3   7
HETATM    7  C   UNK N   1      27.188  28.901  -4.753  0.00  0.00     0.153 C 
HETATM    8  C   UNK N   1      27.491  28.710  -6.224  0.00  0.00     0.042 C 
BRANCH   7   9
HETATM    9  N   UNK N   1      28.429  28.931  -4.005  0.00  0.00    -0.419 N 
HETATM   10  H   UNK N   1      28.476  28.784  -2.996  0.00  0.00     0.150 HD
HETATM   11  H   UNK N   1      29.297  29.106  -4.511  0.00  0.00     0.150 HD
ENDBRANCH   7   9
ENDBRANCH   3   7
ENDBRANCH   2   3
ENDBRANCH   1   2
BRANCH   1  12
HETATM   12  C   UNK N   1      29.303  25.208  -4.510  0.00  0.00     0.223 C 
HETATM   13  N   UNK N   1      29.983  24.109  -4.084  0.00  0.00    -0.346 N 
HETATM   14  H   UNK N   1      30.962  24.210  -4.100  0.00  0.00     0.163 HD
HETATM   15  O   UNK N   1      29.943  26.254  -4.594  0.00  0.00    -0.273 OA
BRANCH  13  16
HETATM   16  C   UNK N   1      29.529  22.810  -3.610  0.00  0.00     0.186 C 
BRANCH  16  17
HETATM   17  C   UNK N   1      30.623  21.770  -3.918  0.00  0.00     0.074 C 
BRANCH  17  18
HETATM   18  C   UNK N   1      30.667  21.091  -5.268  0.00  0.00    -0.056 A 
HETATM   19  C   UNK N   1      31.797  20.404  -5.737  0.00  0.00     0.007 A 
HETATM   20  C   UNK N   1      31.810  19.852  -7.022  0.00  0.00     0.001 A 
HETATM   21  C   UNK N   1      30.689  19.976  -7.846  0.00  0.00     0.000 A 
HETATM   22  C   UNK N   1      29.555  20.648  -7.384  0.00  0.00     0.001 A 
HETATM   23  C   UNK N   1      29.549  21.210  -6.103  0.00  0.00     0.007 A 
ENDBRANCH  17  18
ENDBRANCH  16  17
BRANCH  16  24
HETATM   24  C   UNK N   1      29.336  22.964  -2.127  0.00  0.00     0.163 C 
HETATM   25  O   UNK N   1      28.210  23.036  -1.657  0.00  0.00    -0.648 OA
BRANCH  24  26
HETATM   26  O   UNK N   1      30.405  23.020  -1.308  0.00  0.00    -0.775 OA
HETATM   27  H   UNK N   1      31.087  23.605  -1.042  0.00  0.00     0.167 HD
ENDBRANCH  24  26
ENDBRANCH  16  24
ENDBRANCH  13  16
ENDBRANCH   1  12
BRANCH   1  28
HETATM   28  C   UNK N   1      27.355  23.869  -5.265  0.00  0.00     0.053 C 
BRANCH  28  29
HETATM   29  C   UNK N   1      26.625  23.761  -6.563  0.00  0.00    -0.057 A 
HETATM   30  C   UNK N   1      26.047  22.548  -6.956  0.00  0.00     0.007 A 
HETATM   31  C   UNK N   1      25.318  22.475  -8.147  0.00  0.00     0.001 A 
HETATM   32  C   UNK N   1      25.156  23.616  -8.940  0.00  0.00     0.000 A 
HETATM   33  C   UNK N   1      25.726  24.829  -8.543  0.00  0.00     0.001 A 
HETATM   34  C   UNK N   1      26.457  24.902  -7.354  0.00  0.00     0.007 A 
ENDBRANCH  28  29
ENDBRANCH   1  28
TORSDOF 13
ENDMDL
