REMARK  9 active torsions:
REMARK  status: ('A' for Active; 'I' for Inactive)
REMARK    1  A    between atoms: C_1  and  P_7 
REMARK    2  A    between atoms: P_7  and  N_10 
REMARK    3  A    between atoms: N_10  and  C_11 
REMARK    4  A    between atoms: C_18  and  N_10 
REMARK    5  A    between atoms: C_11  and  C_12 
REMARK    6  A    between atoms: C_18  and  C_19 
REMARK    7  A    between atoms: C_18  and  C_23 
REMARK       I    between atoms: C_19  and  N_20 
REMARK    8  A    between atoms: N_20  and  O_21 
REMARK    9  A    between atoms: C_23  and  C_24 
ROOT
HETATM    1  N   UNK N   1       0.536   0.124  -0.304  0.00  0.00    -0.341 N 
ENDROOT
BRANCH   1   2
HETATM    2  P   UNK N   1      -0.729  -0.694  -1.320  0.00  0.00     0.190 P 
HETATM    3  O   UNK N   1       0.055  -1.950  -1.787  0.00  0.00    -0.294 OA
HETATM    4  C   UNK N   1      -1.028   0.253  -2.890  0.00  0.00     0.114 C 
BRANCH   2   5
HETATM    5  C   UNK N   1      -2.160  -1.365  -0.373  0.00  0.00     0.023 A 
HETATM    6  C   UNK N   1      -2.303  -2.751  -0.222  0.00  0.00     0.017 A 
HETATM    7  C   UNK N   1      -3.413  -3.278   0.446  0.00  0.00     0.001 A 
HETATM    8  C   UNK N   1      -4.391  -2.420   0.954  0.00  0.00     0.000 A 
HETATM    9  C   UNK N   1      -4.254  -1.036   0.803  0.00  0.00     0.001 A 
HETATM   10  C   UNK N   1      -3.138  -0.508   0.141  0.00  0.00     0.017 A 
ENDBRANCH   2   5
ENDBRANCH   1   2
BRANCH   1  11
HETATM   11  C   UNK N   1       0.717  -0.480   1.018  0.00  0.00     0.164 C 
BRANCH  11  12
HETATM   12  C   UNK N   1       1.435  -1.784   0.851  0.00  0.00    -0.040 A 
HETATM   13  C   UNK N   1       2.644  -1.833   0.139  0.00  0.00     0.009 A 
HETATM   14  C   UNK N   1       3.268  -3.060  -0.105  0.00  0.00     0.001 A 
HETATM   15  C   UNK N   1       2.688  -4.241   0.364  0.00  0.00     0.000 A 
HETATM   16  C   UNK N   1       1.489  -4.196   1.083  0.00  0.00     0.001 A 
HETATM   17  C   UNK N   1       0.859  -2.969   1.320  0.00  0.00     0.009 A 
ENDBRANCH  11  12
ENDBRANCH   1  11
BRANCH   1  18
HETATM   18  C   UNK N   1       0.629   1.593  -0.418  0.00  0.00     0.181 C 
BRANCH  18  19
HETATM   19  C   UNK N   1      -0.658   2.313  -0.084  0.00  0.00     0.264 C 
HETATM   20  N   UNK N   1      -1.177   2.273   1.162  0.00  0.00    -0.236 N 
HETATM   21  H   UNK N   1      -0.725   1.753   1.865  0.00  0.00     0.197 HD
HETATM   22  O   UNK N   1      -1.222   2.960  -0.957  0.00  0.00    -0.269 OA
BRANCH  20  23
HETATM   23  O   UNK N   1      -2.306   2.938   1.448  0.00  0.00    -0.287 OA
HETATM   24  H   UNK N   1      -2.298   3.886   1.654  0.00  0.00     0.244 HD
ENDBRANCH  20  23
ENDBRANCH  18  19
BRANCH  18  25
HETATM   25  C   UNK N   1       1.840   2.115   0.380  0.00  0.00     0.039 C 
BRANCH  25  26
HETATM   26  C   UNK N   1       2.108   3.624   0.332  0.00  0.00    -0.020 C 
HETATM   27  C   UNK N   1       1.818   4.254  -1.019  0.00  0.00     0.009 C 
HETATM   28  C   UNK N   1       3.571   3.853   0.657  0.00  0.00     0.009 C 
ENDBRANCH  25  26
ENDBRANCH  18  25
ENDBRANCH   1  18
TORSDOF 9
