MODEL 1
REMARK VINA RESULT:      -6.7      0.000      0.000
REMARK  9 active torsions:
REMARK  status: ('A' for Active; 'I' for Inactive)
REMARK    1  A    between atoms: C_1  and  P_7 
REMARK    2  A    between atoms: P_7  and  N_10 
REMARK    3  A    between atoms: N_10  and  C_11 
REMARK    4  A    between atoms: C_18  and  N_10 
REMARK    5  A    between atoms: C_11  and  C_12 
REMARK    6  A    between atoms: C_18  and  C_19 
REMARK    7  A    between atoms: C_18  and  C_23 
REMARK       I    between atoms: C_19  and  N_20 
REMARK    8  A    between atoms: N_20  and  O_21 
REMARK    9  A    between atoms: C_23  and  C_24 
ROOT
HETATM    1  N   UNK N   1      32.255  16.092   7.024  0.00  0.00    -0.341 N 
ENDROOT
BRANCH   1   2
HETATM    2  P   UNK N   1      32.151  14.855   5.697  0.00  0.00     0.190 P 
HETATM    3  O   UNK N   1      31.924  13.566   6.533  0.00  0.00    -0.294 OA
HETATM    4  C   UNK N   1      33.814  14.588   4.912  0.00  0.00     0.114 C 
BRANCH   2   5
HETATM    5  C   UNK N   1      30.652  14.991   4.635  0.00  0.00     0.023 A 
HETATM    6  C   UNK N   1      30.668  15.836   3.517  0.00  0.00     0.017 A 
HETATM    7  C   UNK N   1      29.521  15.993   2.733  0.00  0.00     0.001 A 
HETATM    8  C   UNK N   1      28.348  15.314   3.073  0.00  0.00     0.000 A 
HETATM    9  C   UNK N   1      28.326  14.472   4.190  0.00  0.00     0.001 A 
HETATM   10  C   UNK N   1      29.478  14.309   4.970  0.00  0.00     0.017 A 
ENDBRANCH   2   5
ENDBRANCH   1   2
BRANCH   1  11
HETATM   11  C   UNK N   1      31.595  17.360   6.706  0.00  0.00     0.164 C 
BRANCH  11  12
HETATM   12  C   UNK N   1      30.430  17.535   7.631  0.00  0.00    -0.040 A 
HETATM   13  C   UNK N   1      29.154  17.098   7.242  0.00  0.00     0.009 A 
HETATM   14  C   UNK N   1      28.046  17.346   8.058  0.00  0.00     0.001 A 
HETATM   15  C   UNK N   1      28.210  18.030   9.265  0.00  0.00     0.000 A 
HETATM   16  C   UNK N   1      29.481  18.458   9.661  0.00  0.00     0.001 A 
HETATM   17  C   UNK N   1      30.589  18.218   8.841  0.00  0.00     0.009 A 
ENDBRANCH  11  12
ENDBRANCH   1  11
BRANCH   1  18
HETATM   18  C   UNK N   1      33.516  16.136   7.791  0.00  0.00     0.181 C 
BRANCH  18  19
HETATM   19  C   UNK N   1      34.281  17.431   7.633  0.00  0.00     0.264 C 
HETATM   20  N   UNK N   1      34.642  18.165   8.708  0.00  0.00    -0.236 N 
HETATM   21  H   UNK N   1      34.389  17.867   9.611  0.00  0.00     0.197 HD
HETATM   22  O   UNK N   1      34.596  17.803   6.509  0.00  0.00    -0.269 OA
BRANCH  20  23
HETATM   23  O   UNK N   1      35.342  19.297   8.551  0.00  0.00    -0.287 OA
HETATM   24  H   UNK N   1      35.228  20.051   9.151  0.00  0.00     0.244 HD
ENDBRANCH  20  23
ENDBRANCH  18  19
BRANCH  18  25
HETATM   25  C   UNK N   1      33.258  15.761   9.264  0.00  0.00     0.039 C 
BRANCH  25  26
HETATM   26  C   UNK N   1      34.114  14.635   9.856  0.00  0.00    -0.020 C 
HETATM   27  C   UNK N   1      35.111  15.109  10.899  0.00  0.00     0.009 C 
HETATM   28  C   UNK N   1      34.886  13.985   8.724  0.00  0.00     0.009 C 
ENDBRANCH  25  26
ENDBRANCH  18  25
ENDBRANCH   1  18
TORSDOF 9
ENDMDL
MODEL 2
REMARK VINA RESULT:      -6.6      3.669      7.533
REMARK  9 active torsions:
REMARK  status: ('A' for Active; 'I' for Inactive)
REMARK    1  A    between atoms: C_1  and  P_7 
REMARK    2  A    between atoms: P_7  and  N_10 
REMARK    3  A    between atoms: N_10  and  C_11 
REMARK    4  A    between atoms: C_18  and  N_10 
REMARK    5  A    between atoms: C_11  and  C_12 
REMARK    6  A    between atoms: C_18  and  C_19 
REMARK    7  A    between atoms: C_18  and  C_23 
REMARK       I    between atoms: C_19  and  N_20 
REMARK    8  A    between atoms: N_20  and  O_21 
REMARK    9  A    between atoms: C_23  and  C_24 
ROOT
HETATM    1  N   UNK N   1      35.217  14.361   9.599  0.00  0.00    -0.341 N 
ENDROOT
BRANCH   1   2
HETATM    2  P   UNK N   1      36.770  14.490  10.534  0.00  0.00     0.190 P 
HETATM    3  O   UNK N   1      36.808  16.018  10.806  0.00  0.00    -0.294 OA
HETATM    4  C   UNK N   1      38.233  14.199   9.425  0.00  0.00     0.114 C 
BRANCH   2   5
HETATM    5  C   UNK N   1      36.727  13.721  12.207  0.00  0.00     0.023 A 
HETATM    6  C   UNK N   1      36.284  14.472  13.304  0.00  0.00     0.017 A 
HETATM    7  C   UNK N   1      36.297  13.920  14.590  0.00  0.00     0.001 A 
HETATM    8  C   UNK N   1      36.767  12.619  14.783  0.00  0.00     0.000 A 
HETATM    9  C   UNK N   1      37.214  11.867  13.692  0.00  0.00     0.001 A 
HETATM   10  C   UNK N   1      37.192  12.417  12.403  0.00  0.00     0.017 A 
ENDBRANCH   2   5
ENDBRANCH   1   2
BRANCH   1  11
HETATM   11  C   UNK N   1      34.060  14.934  10.290  0.00  0.00     0.164 C 
BRANCH  11  12
HETATM   12  C   UNK N   1      33.417  15.941   9.387  0.00  0.00    -0.040 A 
HETATM   13  C   UNK N   1      32.166  15.669   8.810  0.00  0.00     0.009 A 
HETATM   14  C   UNK N   1      31.607  16.560   7.890  0.00  0.00     0.001 A 
HETATM   15  C   UNK N   1      32.293  17.727   7.545  0.00  0.00     0.000 A 
HETATM   16  C   UNK N   1      33.535  18.007   8.125  0.00  0.00     0.001 A 
HETATM   17  C   UNK N   1      34.100  17.112   9.039  0.00  0.00     0.009 A 
ENDBRANCH  11  12
ENDBRANCH   1  11
BRANCH   1  18
HETATM   18  C   UNK N   1      35.019  13.129   8.811  0.00  0.00     0.181 C 
BRANCH  18  19
HETATM   19  C   UNK N   1      34.064  12.144   9.449  0.00  0.00     0.264 C 
HETATM   20  N   UNK N   1      32.790  12.028   9.018  0.00  0.00    -0.236 N 
HETATM   21  H   UNK N   1      32.465  12.604   8.289  0.00  0.00     0.197 HD
HETATM   22  O   UNK N   1      34.467  11.428  10.357  0.00  0.00    -0.269 OA
BRANCH  20  23
HETATM   23  O   UNK N   1      31.964  11.132   9.578  0.00  0.00    -0.287 OA
HETATM   24  H   UNK N   1      32.290  10.455  10.191  0.00  0.00     0.244 HD
ENDBRANCH  20  23
ENDBRANCH  18  19
BRANCH  18  25
HETATM   25  C   UNK N   1      34.645  13.479   7.357  0.00  0.00     0.039 C 
BRANCH  25  26
HETATM   26  C   UNK N   1      35.417  14.628   6.697  0.00  0.00    -0.020 C 
HETATM   27  C   UNK N   1      34.612  15.387   5.658  0.00  0.00     0.009 C 
HETATM   28  C   UNK N   1      36.639  14.044   6.016  0.00  0.00     0.009 C 
ENDBRANCH  25  26
ENDBRANCH  18  25
ENDBRANCH   1  18
TORSDOF 9
ENDMDL
MODEL 3
REMARK VINA RESULT:      -6.4      4.482      6.132
REMARK  9 active torsions:
REMARK  status: ('A' for Active; 'I' for Inactive)
REMARK    1  A    between atoms: C_1  and  P_7 
REMARK    2  A    between atoms: P_7  and  N_10 
REMARK    3  A    between atoms: N_10  and  C_11 
REMARK    4  A    between atoms: C_18  and  N_10 
REMARK    5  A    between atoms: C_11  and  C_12 
REMARK    6  A    between atoms: C_18  and  C_19 
REMARK    7  A    between atoms: C_18  and  C_23 
REMARK       I    between atoms: C_19  and  N_20 
REMARK    8  A    between atoms: N_20  and  O_21 
REMARK    9  A    between atoms: C_23  and  C_24 
ROOT
HETATM    1  N   UNK N   1      27.894  18.316   5.167  0.00  0.00    -0.341 N 
ENDROOT
BRANCH   1   2
HETATM    2  P   UNK N   1      28.545  16.650   4.846  0.00  0.00     0.190 P 
HETATM    3  O   UNK N   1      28.194  16.496   3.342  0.00  0.00    -0.294 OA
HETATM    4  C   UNK N   1      27.500  15.361   5.681  0.00  0.00     0.114 C 
BRANCH   2   5
HETATM    5  C   UNK N   1      30.382  16.517   4.910  0.00  0.00     0.023 A 
HETATM    6  C   UNK N   1      30.975  15.387   5.490  0.00  0.00     0.017 A 
HETATM    7  C   UNK N   1      32.367  15.297   5.596  0.00  0.00     0.001 A 
HETATM    8  C   UNK N   1      33.169  16.342   5.135  0.00  0.00     0.000 A 
HETATM    9  C   UNK N   1      32.581  17.473   4.558  0.00  0.00     0.001 A 
HETATM   10  C   UNK N   1      31.188  17.560   4.444  0.00  0.00     0.017 A 
ENDBRANCH   2   5
ENDBRANCH   1   2
BRANCH   1  11
HETATM   11  C   UNK N   1      27.608  19.085   3.954  0.00  0.00     0.164 C 
BRANCH  11  12
HETATM   12  C   UNK N   1      26.129  19.308   3.870  0.00  0.00    -0.040 A 
HETATM   13  C   UNK N   1      25.248  18.411   4.495  0.00  0.00     0.009 A 
HETATM   14  C   UNK N   1      23.866  18.558   4.338  0.00  0.00     0.001 A 
HETATM   15  C   UNK N   1      23.361  19.602   3.560  0.00  0.00     0.000 A 
HETATM   16  C   UNK N   1      24.235  20.504   2.944  0.00  0.00     0.001 A 
HETATM   17  C   UNK N   1      25.618  20.353   3.093  0.00  0.00     0.009 A 
ENDBRANCH  11  12
ENDBRANCH   1  11
BRANCH   1  18
HETATM   18  C   UNK N   1      28.453  19.032   6.331  0.00  0.00     0.181 C 
BRANCH  18  19
HETATM   19  C   UNK N   1      27.611  20.203   6.787  0.00  0.00     0.264 C 
HETATM   20  N   UNK N   1      26.676  20.056   7.750  0.00  0.00    -0.236 N 
HETATM   21  H   UNK N   1      26.522  19.172   8.154  0.00  0.00     0.197 HD
HETATM   22  O   UNK N   1      27.801  21.304   6.287  0.00  0.00    -0.269 OA
BRANCH  20  23
HETATM   23  O   UNK N   1      25.956  21.110   8.162  0.00  0.00    -0.287 OA
HETATM   24  H   UNK N   1      25.622  21.173   9.070  0.00  0.00     0.244 HD
ENDBRANCH  20  23
ENDBRANCH  18  19
BRANCH  18  25
HETATM   25  C   UNK N   1      28.775  18.039   7.465  0.00  0.00     0.039 C 
BRANCH  25  26
HETATM   26  C   UNK N   1      29.905  18.425   8.428  0.00  0.00    -0.020 C 
HETATM   27  C   UNK N   1      31.086  17.471   8.398  0.00  0.00     0.009 C 
HETATM   28  C   UNK N   1      29.340  18.436   9.835  0.00  0.00     0.009 C 
ENDBRANCH  25  26
ENDBRANCH  18  25
ENDBRANCH   1  18
TORSDOF 9
ENDMDL
MODEL 4
REMARK VINA RESULT:      -6.3     13.806     17.023
REMARK  9 active torsions:
REMARK  status: ('A' for Active; 'I' for Inactive)
REMARK    1  A    between atoms: C_1  and  P_7 
REMARK    2  A    between atoms: P_7  and  N_10 
REMARK    3  A    between atoms: N_10  and  C_11 
REMARK    4  A    between atoms: C_18  and  N_10 
REMARK    5  A    between atoms: C_11  and  C_12 
REMARK    6  A    between atoms: C_18  and  C_19 
REMARK    7  A    between atoms: C_18  and  C_23 
REMARK       I    between atoms: C_19  and  N_20 
REMARK    8  A    between atoms: N_20  and  O_21 
REMARK    9  A    between atoms: C_23  and  C_24 
ROOT
HETATM    1  N   UNK N   1      27.012  24.025  -6.717  0.00  0.00    -0.341 N 
ENDROOT
BRANCH   1   2
HETATM    2  P   UNK N   1      28.828  23.984  -6.687  0.00  0.00     0.190 P 
HETATM    3  O   UNK N   1      29.140  25.497  -6.532  0.00  0.00    -0.294 OA
HETATM    4  C   UNK N   1      29.506  23.559  -8.363  0.00  0.00     0.114 C 
BRANCH   2   5
HETATM    5  C   UNK N   1      29.555  23.203  -5.184  0.00  0.00     0.023 A 
HETATM    6  C   UNK N   1      29.859  23.996  -4.069  0.00  0.00     0.017 A 
HETATM    7  C   UNK N   1      30.463  23.428  -2.943  0.00  0.00     0.001 A 
HETATM    8  C   UNK N   1      30.776  22.067  -2.933  0.00  0.00     0.000 A 
HETATM    9  C   UNK N   1      30.476  21.273  -4.045  0.00  0.00     0.001 A 
HETATM   10  C   UNK N   1      29.865  21.840  -5.170  0.00  0.00     0.017 A 
ENDBRANCH   2   5
ENDBRANCH   1   2
BRANCH   1  11
HETATM   11  C   UNK N   1      26.393  23.877  -5.397  0.00  0.00     0.164 C 
BRANCH  11  12
HETATM   12  C   UNK N   1      26.052  25.239  -4.877  0.00  0.00    -0.040 A 
HETATM   13  C   UNK N   1      25.221  26.088  -5.625  0.00  0.00     0.009 A 
HETATM   14  C   UNK N   1      24.978  27.396  -5.193  0.00  0.00     0.001 A 
HETATM   15  C   UNK N   1      25.562  27.857  -4.011  0.00  0.00     0.000 A 
HETATM   16  C   UNK N   1      26.382  27.011  -3.256  0.00  0.00     0.001 A 
HETATM   17  C   UNK N   1      26.632  25.706  -3.693  0.00  0.00     0.009 A 
ENDBRANCH  11  12
ENDBRANCH   1  11
BRANCH   1  18
HETATM   18  C   UNK N   1      26.354  23.382  -7.871  0.00  0.00     0.181 C 
BRANCH  18  19
HETATM   19  C   UNK N   1      25.657  22.084  -7.531  0.00  0.00     0.264 C 
HETATM   20  N   UNK N   1      24.437  22.078  -6.950  0.00  0.00    -0.236 N 
HETATM   21  H   UNK N   1      23.997  22.930  -6.725  0.00  0.00     0.197 HD
HETATM   22  O   UNK N   1      26.202  21.024  -7.809  0.00  0.00    -0.269 OA
BRANCH  20  23
HETATM   23  O   UNK N   1      23.821  20.919  -6.677  0.00  0.00    -0.287 OA
HETATM   24  H   UNK N   1      24.077  20.375  -5.915  0.00  0.00     0.244 HD
ENDBRANCH  20  23
ENDBRANCH  18  19
BRANCH  18  25
HETATM   25  C   UNK N   1      25.439  24.390  -8.594  0.00  0.00     0.039 C 
BRANCH  25  26
HETATM   26  C   UNK N   1      26.099  25.320  -9.619  0.00  0.00    -0.020 C 
HETATM   27  C   UNK N   1      26.772  26.532  -8.999  0.00  0.00     0.009 C 
HETATM   28  C   UNK N   1      25.026  25.809 -10.571  0.00  0.00     0.009 C 
ENDBRANCH  25  26
ENDBRANCH  18  25
ENDBRANCH   1  18
TORSDOF 9
ENDMDL
MODEL 5
REMARK VINA RESULT:      -6.3      3.474      5.939
REMARK  9 active torsions:
REMARK  status: ('A' for Active; 'I' for Inactive)
REMARK    1  A    between atoms: C_1  and  P_7 
REMARK    2  A    between atoms: P_7  and  N_10 
REMARK    3  A    between atoms: N_10  and  C_11 
REMARK    4  A    between atoms: C_18  and  N_10 
REMARK    5  A    between atoms: C_11  and  C_12 
REMARK    6  A    between atoms: C_18  and  C_19 
REMARK    7  A    between atoms: C_18  and  C_23 
REMARK       I    between atoms: C_19  and  N_20 
REMARK    8  A    between atoms: N_20  and  O_21 
REMARK    9  A    between atoms: C_23  and  C_24 
ROOT
HETATM    1  N   UNK N   1      28.421  17.009   6.439  0.00  0.00    -0.341 N 
ENDROOT
BRANCH   1   2
HETATM    2  P   UNK N   1      27.163  15.951   5.663  0.00  0.00     0.190 P 
HETATM    3  O   UNK N   1      26.261  17.027   5.000  0.00  0.00    -0.294 OA
HETATM    4  C   UNK N   1      26.066  15.180   6.948  0.00  0.00     0.114 C 
BRANCH   2   5
HETATM    5  C   UNK N   1      27.778  14.930   4.257  0.00  0.00     0.023 A 
HETATM    6  C   UNK N   1      27.680  15.422   2.949  0.00  0.00     0.017 A 
HETATM    7  C   UNK N   1      28.091  14.637   1.867  0.00  0.00     0.001 A 
HETATM    8  C   UNK N   1      28.589  13.351   2.090  0.00  0.00     0.000 A 
HETATM    9  C   UNK N   1      28.685  12.855   3.394  0.00  0.00     0.001 A 
HETATM   10  C   UNK N   1      28.281  13.645   4.478  0.00  0.00     0.017 A 
ENDBRANCH   2   5
ENDBRANCH   1   2
BRANCH   1  11
HETATM   11  C   UNK N   1      29.611  16.283   6.889  0.00  0.00     0.164 C 
BRANCH  11  12
HETATM   12  C   UNK N   1      30.782  16.737   6.072  0.00  0.00    -0.040 A 
HETATM   13  C   UNK N   1      32.030  16.934   6.685  0.00  0.00     0.009 A 
HETATM   14  C   UNK N   1      33.101  17.451   5.950  0.00  0.00     0.001 A 
HETATM   15  C   UNK N   1      32.929  17.771   4.601  0.00  0.00     0.000 A 
HETATM   16  C   UNK N   1      31.691  17.567   3.984  0.00  0.00     0.001 A 
HETATM   17  C   UNK N   1      30.615  17.058   4.721  0.00  0.00     0.009 A 
ENDBRANCH  11  12
ENDBRANCH   1  11
BRANCH   1  18
HETATM   18  C   UNK N   1      27.927  18.122   7.272  0.00  0.00     0.181 C 
BRANCH  18  19
HETATM   19  C   UNK N   1      28.322  18.016   8.728  0.00  0.00     0.264 C 
HETATM   20  N   UNK N   1      29.388  18.690   9.212  0.00  0.00    -0.236 N 
HETATM   21  H   UNK N   1      29.932  19.247   8.609  0.00  0.00     0.197 HD
HETATM   22  O   UNK N   1      27.647  17.325   9.479  0.00  0.00    -0.269 OA
BRANCH  20  23
HETATM   23  O   UNK N   1      29.710  18.605  10.511  0.00  0.00    -0.287 OA
HETATM   24  H   UNK N   1      30.046  17.781  10.898  0.00  0.00     0.244 HD
ENDBRANCH  20  23
ENDBRANCH  18  19
BRANCH  18  25
HETATM   25  C   UNK N   1      28.308  19.474   6.638  0.00  0.00     0.039 C 
BRANCH  25  26
HETATM   26  C   UNK N   1      27.245  20.164   5.774  0.00  0.00    -0.020 C 
HETATM   27  C   UNK N   1      27.549  20.132   4.287  0.00  0.00     0.009 C 
HETATM   28  C   UNK N   1      27.153  21.613   6.208  0.00  0.00     0.009 C 
ENDBRANCH  25  26
ENDBRANCH  18  25
ENDBRANCH   1  18
TORSDOF 9
ENDMDL
MODEL 6
REMARK VINA RESULT:      -6.3     15.302     17.822
REMARK  9 active torsions:
REMARK  status: ('A' for Active; 'I' for Inactive)
REMARK    1  A    between atoms: C_1  and  P_7 
REMARK    2  A    between atoms: P_7  and  N_10 
REMARK    3  A    between atoms: N_10  and  C_11 
REMARK    4  A    between atoms: C_18  and  N_10 
REMARK    5  A    between atoms: C_11  and  C_12 
REMARK    6  A    between atoms: C_18  and  C_19 
REMARK    7  A    between atoms: C_18  and  C_23 
REMARK       I    between atoms: C_19  and  N_20 
REMARK    8  A    between atoms: N_20  and  O_21 
REMARK    9  A    between atoms: C_23  and  C_24 
ROOT
HETATM    1  N   UNK N   1      26.815  25.106  -6.981  0.00  0.00    -0.341 N 
ENDROOT
BRANCH   1   2
HETATM    2  P   UNK N   1      27.502  24.351  -5.478  0.00  0.00     0.190 P 
HETATM    3  O   UNK N   1      27.810  22.921  -5.997  0.00  0.00    -0.294 OA
HETATM    4  C   UNK N   1      26.174  24.087  -4.206  0.00  0.00     0.114 C 
BRANCH   2   5
HETATM    5  C   UNK N   1      29.139  25.020  -4.961  0.00  0.00     0.023 A 
HETATM    6  C   UNK N   1      29.197  26.142  -4.123  0.00  0.00     0.017 A 
HETATM    7  C   UNK N   1      30.431  26.695  -3.767  0.00  0.00     0.001 A 
HETATM    8  C   UNK N   1      31.612  26.137  -4.260  0.00  0.00     0.000 A 
HETATM    9  C   UNK N   1      31.559  25.019  -5.100  0.00  0.00     0.001 A 
HETATM   10  C   UNK N   1      30.324  24.460  -5.449  0.00  0.00     0.017 A 
ENDBRANCH   2   5
ENDBRANCH   1   2
BRANCH   1  11
HETATM   11  C   UNK N   1      25.658  25.970  -6.736  0.00  0.00     0.164 C 
BRANCH  11  12
HETATM   12  C   UNK N   1      26.141  27.247  -6.119  0.00  0.00    -0.040 A 
HETATM   13  C   UNK N   1      27.210  27.947  -6.701  0.00  0.00     0.009 A 
HETATM   14  C   UNK N   1      27.729  29.085  -6.076  0.00  0.00     0.001 A 
HETATM   15  C   UNK N   1      27.180  29.528  -4.871  0.00  0.00     0.000 A 
HETATM   16  C   UNK N   1      26.108  28.840  -4.293  0.00  0.00     0.001 A 
HETATM   17  C   UNK N   1      25.594  27.696  -4.913  0.00  0.00     0.009 A 
ENDBRANCH  11  12
ENDBRANCH   1  11
BRANCH   1  18
HETATM   18  C   UNK N   1      26.817  24.273  -8.200  0.00  0.00     0.181 C 
BRANCH  18  19
HETATM   19  C   UNK N   1      25.473  23.660  -8.522  0.00  0.00     0.264 C 
HETATM   20  N   UNK N   1      24.973  22.646  -7.784  0.00  0.00    -0.236 N 
HETATM   21  H   UNK N   1      25.496  22.282  -7.033  0.00  0.00     0.197 HD
HETATM   22  O   UNK N   1      24.821  24.111  -9.456  0.00  0.00    -0.269 OA
BRANCH  20  23
HETATM   23  O   UNK N   1      23.768  22.131  -8.067  0.00  0.00    -0.287 OA
HETATM   24  H   UNK N   1      23.500  21.939  -8.979  0.00  0.00     0.244 HD
ENDBRANCH  20  23
ENDBRANCH  18  19
BRANCH  18  25
HETATM   25  C   UNK N   1      27.424  25.056  -9.381  0.00  0.00     0.039 C 
BRANCH  25  26
HETATM   26  C   UNK N   1      28.941  24.954  -9.578  0.00  0.00    -0.020 C 
HETATM   27  C   UNK N   1      29.547  23.679  -9.019  0.00  0.00     0.009 C 
HETATM   28  C   UNK N   1      29.587  26.132  -8.875  0.00  0.00     0.009 C 
ENDBRANCH  25  26
ENDBRANCH  18  25
ENDBRANCH   1  18
TORSDOF 9
ENDMDL
MODEL 7
REMARK VINA RESULT:      -6.3     12.462     15.142
REMARK  9 active torsions:
REMARK  status: ('A' for Active; 'I' for Inactive)
REMARK    1  A    between atoms: C_1  and  P_7 
REMARK    2  A    between atoms: P_7  and  N_10 
REMARK    3  A    between atoms: N_10  and  C_11 
REMARK    4  A    between atoms: C_18  and  N_10 
REMARK    5  A    between atoms: C_11  and  C_12 
REMARK    6  A    between atoms: C_18  and  C_19 
REMARK    7  A    between atoms: C_18  and  C_23 
REMARK       I    between atoms: C_19  and  N_20 
REMARK    8  A    between atoms: N_20  and  O_21 
REMARK    9  A    between atoms: C_23  and  C_24 
ROOT
HETATM    1  N   UNK N   1      29.834  23.745  -4.883  0.00  0.00    -0.341 N 
ENDROOT
BRANCH   1   2
HETATM    2  P   UNK N   1      29.677  22.816  -6.437  0.00  0.00     0.190 P 
HETATM    3  O   UNK N   1      29.634  21.363  -5.893  0.00  0.00    -0.294 OA
HETATM    4  C   UNK N   1      31.260  22.881  -7.407  0.00  0.00     0.114 C 
BRANCH   2   5
HETATM    5  C   UNK N   1      28.067  23.036  -7.304  0.00  0.00     0.023 A 
HETATM    6  C   UNK N   1      27.641  24.323  -7.661  0.00  0.00     0.017 A 
HETATM    7  C   UNK N   1      26.396  24.512  -8.269  0.00  0.00     0.001 A 
HETATM    8  C   UNK N   1      25.567  23.415  -8.512  0.00  0.00     0.000 A 
HETATM    9  C   UNK N   1      25.986  22.129  -8.155  0.00  0.00     0.001 A 
HETATM   10  C   UNK N   1      27.236  21.939  -7.553  0.00  0.00     0.017 A 
ENDBRANCH   2   5
ENDBRANCH   1   2
BRANCH   1  11
HETATM   11  C   UNK N   1      31.082  24.503  -4.768  0.00  0.00     0.164 C 
BRANCH  11  12
HETATM   12  C   UNK N   1      30.744  25.951  -4.590  0.00  0.00    -0.040 A 
HETATM   13  C   UNK N   1      30.994  26.584  -3.362  0.00  0.00     0.009 A 
HETATM   14  C   UNK N   1      30.591  27.907  -3.158  0.00  0.00     0.001 A 
HETATM   15  C   UNK N   1      29.940  28.602  -4.180  0.00  0.00     0.000 A 
HETATM   16  C   UNK N   1      29.699  27.979  -5.409  0.00  0.00     0.001 A 
HETATM   17  C   UNK N   1      30.094  26.652  -5.611  0.00  0.00     0.009 A 
ENDBRANCH  11  12
ENDBRANCH   1  11
BRANCH   1  18
HETATM   18  C   UNK N   1      29.296  23.099  -3.669  0.00  0.00     0.181 C 
BRANCH  18  19
HETATM   19  C   UNK N   1      30.361  22.673  -2.682  0.00  0.00     0.264 C 
HETATM   20  N   UNK N   1      31.277  21.735  -3.006  0.00  0.00    -0.236 N 
HETATM   21  H   UNK N   1      31.246  21.304  -3.890  0.00  0.00     0.197 HD
HETATM   22  O   UNK N   1      30.400  23.208  -1.582  0.00  0.00    -0.269 OA
BRANCH  20  23
HETATM   23  O   UNK N   1      32.229  21.387  -2.129  0.00  0.00    -0.287 OA
HETATM   24  H   UNK N   1      32.833  22.044  -1.748  0.00  0.00     0.244 HD
ENDBRANCH  20  23
ENDBRANCH  18  19
BRANCH  18  25
HETATM   25  C   UNK N   1      28.202  23.981  -3.036  0.00  0.00     0.039 C 
BRANCH  25  26
HETATM   26  C   UNK N   1      27.346  24.821  -3.990  0.00  0.00    -0.020 C 
HETATM   27  C   UNK N   1      26.937  26.168  -3.420  0.00  0.00     0.009 C 
HETATM   28  C   UNK N   1      26.086  24.039  -4.306  0.00  0.00     0.009 C 
ENDBRANCH  25  26
ENDBRANCH  18  25
ENDBRANCH   1  18
TORSDOF 9
ENDMDL
MODEL 8
REMARK VINA RESULT:      -6.2     14.120     16.978
REMARK  9 active torsions:
REMARK  status: ('A' for Active; 'I' for Inactive)
REMARK    1  A    between atoms: C_1  and  P_7 
REMARK    2  A    between atoms: P_7  and  N_10 
REMARK    3  A    between atoms: N_10  and  C_11 
REMARK    4  A    between atoms: C_18  and  N_10 
REMARK    5  A    between atoms: C_11  and  C_12 
REMARK    6  A    between atoms: C_18  and  C_19 
REMARK    7  A    between atoms: C_18  and  C_23 
REMARK       I    between atoms: C_19  and  N_20 
REMARK    8  A    between atoms: N_20  and  O_21 
REMARK    9  A    between atoms: C_23  and  C_24 
ROOT
HETATM    1  N   UNK N   1      27.066  24.910  -5.700  0.00  0.00    -0.341 N 
ENDROOT
BRANCH   1   2
HETATM    2  P   UNK N   1      26.185  26.322  -6.429  0.00  0.00     0.190 P 
HETATM    3  O   UNK N   1      24.762  26.095  -5.852  0.00  0.00    -0.294 OA
HETATM    4  C   UNK N   1      25.966  26.089  -8.259  0.00  0.00     0.114 C 
BRANCH   2   5
HETATM    5  C   UNK N   1      26.695  27.967  -5.774  0.00  0.00     0.023 A 
HETATM    6  C   UNK N   1      27.662  28.716  -6.458  0.00  0.00     0.017 A 
HETATM    7  C   UNK N   1      28.100  29.941  -5.943  0.00  0.00     0.001 A 
HETATM    8  C   UNK N   1      27.581  30.414  -4.736  0.00  0.00     0.000 A 
HETATM    9  C   UNK N   1      26.618  29.668  -4.049  0.00  0.00     0.001 A 
HETATM   10  C   UNK N   1      26.173  28.445  -4.568  0.00  0.00     0.017 A 
ENDBRANCH   2   5
ENDBRANCH   1   2
BRANCH   1  11
HETATM   11  C   UNK N   1      26.213  23.747  -5.445  0.00  0.00     0.164 C 
BRANCH  11  12
HETATM   12  C   UNK N   1      26.363  22.787  -6.586  0.00  0.00    -0.040 A 
HETATM   13  C   UNK N   1      25.234  22.138  -7.110  0.00  0.00     0.009 A 
HETATM   14  C   UNK N   1      25.378  21.169  -8.107  0.00  0.00     0.001 A 
HETATM   15  C   UNK N   1      26.651  20.848  -8.586  0.00  0.00     0.000 A 
HETATM   16  C   UNK N   1      27.777  21.499  -8.074  0.00  0.00     0.001 A 
HETATM   17  C   UNK N   1      27.634  22.463  -7.069  0.00  0.00     0.009 A 
ENDBRANCH  11  12
ENDBRANCH   1  11
BRANCH   1  18
HETATM   18  C   UNK N   1      28.127  25.224  -4.723  0.00  0.00     0.181 C 
BRANCH  18  19
HETATM   19  C   UNK N   1      28.372  24.124  -3.715  0.00  0.00     0.264 C 
HETATM   20  N   UNK N   1      27.656  24.053  -2.572  0.00  0.00    -0.236 N 
HETATM   21  H   UNK N   1      26.975  24.736  -2.377  0.00  0.00     0.197 HD
HETATM   22  O   UNK N   1      29.219  23.273  -3.955  0.00  0.00    -0.269 OA
BRANCH  20  23
HETATM   23  O   UNK N   1      27.868  23.057  -1.700  0.00  0.00    -0.287 OA
HETATM   24  H   UNK N   1      28.762  22.829  -1.397  0.00  0.00     0.244 HD
ENDBRANCH  20  23
ENDBRANCH  18  19
BRANCH  18  25
HETATM   25  C   UNK N   1      29.408  25.673  -5.453  0.00  0.00     0.039 C 
BRANCH  25  26
HETATM   26  C   UNK N   1      30.374  26.574  -4.674  0.00  0.00    -0.020 C 
HETATM   27  C   UNK N   1      29.694  27.439  -3.628  0.00  0.00     0.009 C 
HETATM   28  C   UNK N   1      31.069  27.487  -5.665  0.00  0.00     0.009 C 
ENDBRANCH  25  26
ENDBRANCH  18  25
ENDBRANCH   1  18
TORSDOF 9
ENDMDL
MODEL 9
REMARK VINA RESULT:      -6.2     13.047     15.646
REMARK  9 active torsions:
REMARK  status: ('A' for Active; 'I' for Inactive)
REMARK    1  A    between atoms: C_1  and  P_7 
REMARK    2  A    between atoms: P_7  and  N_10 
REMARK    3  A    between atoms: N_10  and  C_11 
REMARK    4  A    between atoms: C_18  and  N_10 
REMARK    5  A    between atoms: C_11  and  C_12 
REMARK    6  A    between atoms: C_18  and  C_19 
REMARK    7  A    between atoms: C_18  and  C_23 
REMARK       I    between atoms: C_19  and  N_20 
REMARK    8  A    between atoms: N_20  and  O_21 
REMARK    9  A    between atoms: C_23  and  C_24 
ROOT
HETATM    1  N   UNK N   1      28.749  25.115  -4.812  0.00  0.00    -0.341 N 
ENDROOT
BRANCH   1   2
HETATM    2  P   UNK N   1      29.871  24.533  -6.117  0.00  0.00     0.190 P 
HETATM    3  O   UNK N   1      31.232  24.614  -5.374  0.00  0.00    -0.294 OA
HETATM    4  C   UNK N   1      30.026  25.799  -7.468  0.00  0.00     0.114 C 
BRANCH   2   5
HETATM    5  C   UNK N   1      29.685  22.752  -6.553  0.00  0.00     0.023 A 
HETATM    6  C   UNK N   1      30.374  21.782  -5.812  0.00  0.00     0.017 A 
HETATM    7  C   UNK N   1      30.287  20.431  -6.165  0.00  0.00     0.001 A 
HETATM    8  C   UNK N   1      29.521  20.048  -7.268  0.00  0.00     0.000 A 
HETATM    9  C   UNK N   1      28.834  21.014  -8.012  0.00  0.00     0.001 A 
HETATM   10  C   UNK N   1      28.914  22.366  -7.653  0.00  0.00     0.017 A 
ENDBRANCH   2   5
ENDBRANCH   1   2
BRANCH   1  11
HETATM   11  C   UNK N   1      29.286  26.224  -4.019  0.00  0.00     0.164 C 
BRANCH  11  12
HETATM   12  C   UNK N   1      28.409  27.422  -4.222  0.00  0.00    -0.040 A 
HETATM   13  C   UNK N   1      27.451  27.762  -3.253  0.00  0.00     0.009 A 
HETATM   14  C   UNK N   1      26.565  28.819  -3.481  0.00  0.00     0.001 A 
HETATM   15  C   UNK N   1      26.635  29.540  -4.675  0.00  0.00     0.000 A 
HETATM   16  C   UNK N   1      27.594  29.212  -5.638  0.00  0.00     0.001 A 
HETATM   17  C   UNK N   1      28.476  28.148  -5.415  0.00  0.00     0.009 A 
ENDBRANCH  11  12
ENDBRANCH   1  11
BRANCH   1  18
HETATM   18  C   UNK N   1      27.947  24.087  -4.120  0.00  0.00     0.181 C 
BRANCH  18  19
HETATM   19  C   UNK N   1      28.574  23.587  -2.838  0.00  0.00     0.264 C 
HETATM   20  N   UNK N   1      29.912  23.440  -2.726  0.00  0.00    -0.236 N 
HETATM   21  H   UNK N   1      30.493  23.642  -3.494  0.00  0.00     0.197 HD
HETATM   22  O   UNK N   1      27.853  23.334  -1.881  0.00  0.00    -0.269 OA
BRANCH  20  23
HETATM   23  O   UNK N   1      30.454  23.019  -1.573  0.00  0.00    -0.287 OA
HETATM   24  H   UNK N   1      31.392  23.161  -1.373  0.00  0.00     0.244 HD
ENDBRANCH  20  23
ENDBRANCH  18  19
BRANCH  18  25
HETATM   25  C   UNK N   1      26.497  24.575  -3.935  0.00  0.00     0.039 C 
BRANCH  25  26
HETATM   26  C   UNK N   1      25.557  24.438  -5.139  0.00  0.00    -0.020 C 
HETATM   27  C   UNK N   1      25.970  23.351  -6.116  0.00  0.00     0.009 C 
HETATM   28  C   UNK N   1      25.546  25.761  -5.880  0.00  0.00     0.009 C 
ENDBRANCH  25  26
ENDBRANCH  18  25
ENDBRANCH   1  18
TORSDOF 9
ENDMDL
