MODEL 1
REMARK VINA RESULT:      -6.0      0.000      0.000
REMARK  4 active torsions:
REMARK  status: ('A' for Active; 'I' for Inactive)
REMARK    1  A    between atoms: C_2  and  C_3 
REMARK       I    between atoms: C_2  and  N_9 
REMARK    2  A    between atoms: N_9  and  C_10 
REMARK    3  A    between atoms: C_10  and  C_12 
REMARK    4  A    between atoms: C_12  and  O_14 
ROOT
HETATM    1  O   UNK N   1      20.191  14.033   7.517  0.00  0.00    -0.268 OA
HETATM    2  C   UNK N   1      20.693  14.531   8.518  0.00  0.00     0.252 C 
HETATM    3  N   UNK N   1      20.676  15.874   8.705  0.00  0.00    -0.343 N 
HETATM    4  H   UNK N   1      21.121  16.223   9.510  0.00  0.00     0.163 HD
ENDROOT
BRANCH   2   5
HETATM    5  C   UNK N   1      21.294  13.674   9.559  0.00  0.00     0.032 A 
HETATM    6  C   UNK N   1      20.463  13.042  10.498  0.00  0.00     0.017 A 
HETATM    7  C   UNK N   1      21.005  12.203  11.472  0.00  0.00     0.001 A 
HETATM    8  C   UNK N   1      22.383  11.987  11.517  0.00  0.00     0.000 A 
HETATM    9  C   UNK N   1      23.220  12.614  10.588  0.00  0.00     0.001 A 
HETATM   10  C   UNK N   1      22.677  13.455   9.610  0.00  0.00     0.017 A 
ENDBRANCH   2   5
BRANCH   3  11
HETATM   11  C   UNK N   1      20.062  16.837   7.818  0.00  0.00     0.178 C 
HETATM   12  C   UNK N   1      21.033  17.264   6.727  0.00  0.00     0.043 C 
BRANCH  11  13
HETATM   13  C   UNK N   1      19.649  18.039   8.625  0.00  0.00     0.163 C 
HETATM   14  O   UNK N   1      20.294  19.072   8.558  0.00  0.00    -0.648 OA
BRANCH  13  15
HETATM   15  O   UNK N   1      18.558  17.987   9.419  0.00  0.00    -0.775 OA
HETATM   16  H   UNK N   1      18.373  18.688  10.012  0.00  0.00     0.167 HD
ENDBRANCH  13  15
ENDBRANCH  11  13
ENDBRANCH   3  11
TORSDOF 4
ENDMDL
MODEL 2
REMARK VINA RESULT:      -5.5     15.077     16.188
REMARK  4 active torsions:
REMARK  status: ('A' for Active; 'I' for Inactive)
REMARK    1  A    between atoms: C_2  and  C_3 
REMARK       I    between atoms: C_2  and  N_9 
REMARK    2  A    between atoms: N_9  and  C_10 
REMARK    3  A    between atoms: C_10  and  C_12 
REMARK    4  A    between atoms: C_12  and  O_14 
ROOT
HETATM    1  O   UNK N   1      33.853  11.955  14.673  0.00  0.00    -0.268 OA
HETATM    2  C   UNK N   1      34.952  12.183  15.166  0.00  0.00     0.252 C 
HETATM    3  N   UNK N   1      36.026  12.430  14.376  0.00  0.00    -0.343 N 
HETATM    4  H   UNK N   1      36.891  12.576  14.823  0.00  0.00     0.163 HD
ENDROOT
BRANCH   2   5
HETATM    5  C   UNK N   1      35.120  12.230  16.632  0.00  0.00     0.032 A 
HETATM    6  C   UNK N   1      35.034  13.464  17.297  0.00  0.00     0.017 A 
HETATM    7  C   UNK N   1      35.158  13.530  18.685  0.00  0.00     0.001 A 
HETATM    8  C   UNK N   1      35.369  12.363  19.422  0.00  0.00     0.000 A 
HETATM    9  C   UNK N   1      35.459  11.129  18.768  0.00  0.00     0.001 A 
HETATM   10  C   UNK N   1      35.334  11.062  17.376  0.00  0.00     0.017 A 
ENDBRANCH   2   5
BRANCH   3  11
HETATM   11  C   UNK N   1      36.009  12.494  12.931  0.00  0.00     0.178 C 
HETATM   12  C   UNK N   1      37.410  12.310  12.365  0.00  0.00     0.043 C 
BRANCH  11  13
HETATM   13  C   UNK N   1      35.469  13.836  12.515  0.00  0.00     0.163 C 
HETATM   14  O   UNK N   1      36.194  14.818  12.526  0.00  0.00    -0.648 OA
BRANCH  13  15
HETATM   15  O   UNK N   1      34.185  13.962  12.117  0.00  0.00    -0.775 OA
HETATM   16  H   UNK N   1      33.524  14.214  12.731  0.00  0.00     0.167 HD
ENDBRANCH  13  15
ENDBRANCH  11  13
ENDBRANCH   3  11
TORSDOF 4
ENDMDL
MODEL 3
REMARK VINA RESULT:      -5.4     16.526     18.788
REMARK  4 active torsions:
REMARK  status: ('A' for Active; 'I' for Inactive)
REMARK    1  A    between atoms: C_2  and  C_3 
REMARK       I    between atoms: C_2  and  N_9 
REMARK    2  A    between atoms: N_9  and  C_10 
REMARK    3  A    between atoms: C_10  and  C_12 
REMARK    4  A    between atoms: C_12  and  O_14 
ROOT
HETATM    1  O   UNK N   1      29.429  26.214  -3.925  0.00  0.00    -0.268 OA
HETATM    2  C   UNK N   1      28.484  25.486  -4.206  0.00  0.00     0.252 C 
HETATM    3  N   UNK N   1      28.586  24.140  -4.077  0.00  0.00    -0.343 N 
HETATM    4  H   UNK N   1      27.808  23.600  -4.346  0.00  0.00     0.163 HD
ENDROOT
BRANCH   2   5
HETATM    5  C   UNK N   1      27.202  26.063  -4.656  0.00  0.00     0.032 A 
HETATM    6  C   UNK N   1      26.772  27.289  -4.123  0.00  0.00     0.017 A 
HETATM    7  C   UNK N   1      25.580  27.870  -4.556  0.00  0.00     0.001 A 
HETATM    8  C   UNK N   1      24.806  27.232  -5.527  0.00  0.00     0.000 A 
HETATM    9  C   UNK N   1      25.224  26.009  -6.062  0.00  0.00     0.001 A 
HETATM   10  C   UNK N   1      26.420  25.425  -5.629  0.00  0.00     0.017 A 
ENDBRANCH   2   5
BRANCH   3  11
HETATM   11  C   UNK N   1      29.744  23.429  -3.579  0.00  0.00     0.178 C 
HETATM   12  C   UNK N   1      29.972  22.148  -4.368  0.00  0.00     0.043 C 
BRANCH  11  13
HETATM   13  C   UNK N   1      29.517  23.095  -2.129  0.00  0.00     0.163 C 
HETATM   14  O   UNK N   1      30.468  22.931  -1.383  0.00  0.00    -0.648 OA
BRANCH  13  15
HETATM   15  O   UNK N   1      28.263  22.985  -1.641  0.00  0.00    -0.775 OA
HETATM   16  H   UNK N   1      27.535  22.901  -2.225  0.00  0.00     0.167 HD
ENDBRANCH  13  15
ENDBRANCH  11  13
ENDBRANCH   3  11
TORSDOF 4
ENDMDL
MODEL 4
REMARK VINA RESULT:      -5.4     11.189     12.572
REMARK  4 active torsions:
REMARK  status: ('A' for Active; 'I' for Inactive)
REMARK    1  A    between atoms: C_2  and  C_3 
REMARK       I    between atoms: C_2  and  N_9 
REMARK    2  A    between atoms: N_9  and  C_10 
REMARK    3  A    between atoms: C_10  and  C_12 
REMARK    4  A    between atoms: C_12  and  O_14 
ROOT
HETATM    1  O   UNK N   1      33.287  18.436   7.972  0.00  0.00    -0.268 OA
HETATM    2  C   UNK N   1      32.544  17.591   8.459  0.00  0.00     0.252 C 
HETATM    3  N   UNK N   1      33.049  16.553   9.169  0.00  0.00    -0.343 N 
HETATM    4  H   UNK N   1      32.410  15.887   9.511  0.00  0.00     0.163 HD
ENDROOT
BRANCH   2   5
HETATM    5  C   UNK N   1      31.080  17.708   8.311  0.00  0.00     0.032 A 
HETATM    6  C   UNK N   1      30.351  18.465   9.243  0.00  0.00     0.017 A 
HETATM    7  C   UNK N   1      28.970  18.617   9.107  0.00  0.00     0.001 A 
HETATM    8  C   UNK N   1      28.305  18.014   8.038  0.00  0.00     0.000 A 
HETATM    9  C   UNK N   1      29.022  17.256   7.106  0.00  0.00     0.001 A 
HETATM   10  C   UNK N   1      30.407  17.104   7.241  0.00  0.00     0.017 A 
ENDBRANCH   2   5
BRANCH   3  11
HETATM   11  C   UNK N   1      34.449  16.340   9.465  0.00  0.00     0.178 C 
HETATM   12  C   UNK N   1      35.081  15.407   8.443  0.00  0.00     0.043 C 
BRANCH  11  13
HETATM   13  C   UNK N   1      34.564  15.735  10.839  0.00  0.00     0.163 C 
HETATM   14  O   UNK N   1      35.525  15.996  11.544  0.00  0.00    -0.648 OA
BRANCH  13  15
HETATM   15  O   UNK N   1      33.602  14.910  11.306  0.00  0.00    -0.775 OA
HETATM   16  H   UNK N   1      33.639  14.594  12.186  0.00  0.00     0.167 HD
ENDBRANCH  13  15
ENDBRANCH  11  13
ENDBRANCH   3  11
TORSDOF 4
ENDMDL
MODEL 5
REMARK VINA RESULT:      -5.3     17.108     18.674
REMARK  4 active torsions:
REMARK  status: ('A' for Active; 'I' for Inactive)
REMARK    1  A    between atoms: C_2  and  C_3 
REMARK       I    between atoms: C_2  and  N_9 
REMARK    2  A    between atoms: N_9  and  C_10 
REMARK    3  A    between atoms: C_10  and  C_12 
REMARK    4  A    between atoms: C_12  and  O_14 
ROOT
HETATM    1  O   UNK N   1      26.928  23.775  -2.489  0.00  0.00    -0.268 OA
HETATM    2  C   UNK N   1      27.339  24.443  -3.431  0.00  0.00     0.252 C 
HETATM    3  N   UNK N   1      28.553  24.191  -3.979  0.00  0.00    -0.343 N 
HETATM    4  H   UNK N   1      28.847  24.777  -4.713  0.00  0.00     0.163 HD
ENDROOT
BRANCH   2   5
HETATM    5  C   UNK N   1      26.503  25.512  -4.011  0.00  0.00     0.032 A 
HETATM    6  C   UNK N   1      26.398  26.744  -3.345  0.00  0.00     0.017 A 
HETATM    7  C   UNK N   1      25.640  27.781  -3.890  0.00  0.00     0.001 A 
HETATM    8  C   UNK N   1      24.979  27.597  -5.105  0.00  0.00     0.000 A 
HETATM    9  C   UNK N   1      25.074  26.372  -5.775  0.00  0.00     0.001 A 
HETATM   10  C   UNK N   1      25.836  25.332  -5.230  0.00  0.00     0.017 A 
ENDBRANCH   2   5
BRANCH   3  11
HETATM   11  C   UNK N   1      29.454  23.134  -3.575  0.00  0.00     0.178 C 
HETATM   12  C   UNK N   1      30.761  23.710  -3.048  0.00  0.00     0.043 C 
BRANCH  11  13
HETATM   13  C   UNK N   1      29.734  22.257  -4.766  0.00  0.00     0.163 C 
HETATM   14  O   UNK N   1      30.585  21.386  -4.698  0.00  0.00    -0.648 OA
BRANCH  13  15
HETATM   15  O   UNK N   1      29.039  22.420  -5.912  0.00  0.00    -0.775 OA
HETATM   16  H   UNK N   1      28.135  22.664  -5.885  0.00  0.00     0.167 HD
ENDBRANCH  13  15
ENDBRANCH  11  13
ENDBRANCH   3  11
TORSDOF 4
ENDMDL
MODEL 6
REMARK VINA RESULT:      -5.2     17.427     18.589
REMARK  4 active torsions:
REMARK  status: ('A' for Active; 'I' for Inactive)
REMARK    1  A    between atoms: C_2  and  C_3 
REMARK       I    between atoms: C_2  and  N_9 
REMARK    2  A    between atoms: N_9  and  C_10 
REMARK    3  A    between atoms: C_10  and  C_12 
REMARK    4  A    between atoms: C_12  and  O_14 
ROOT
HETATM    1  O   UNK N   1      30.383  23.682  -5.942  0.00  0.00    -0.268 OA
HETATM    2  C   UNK N   1      29.573  23.191  -5.164  0.00  0.00     0.252 C 
HETATM    3  N   UNK N   1      29.964  22.263  -4.255  0.00  0.00    -0.343 N 
HETATM    4  H   UNK N   1      29.267  21.879  -3.676  0.00  0.00     0.163 HD
ENDROOT
BRANCH   2   5
HETATM    5  C   UNK N   1      28.162  23.626  -5.177  0.00  0.00     0.032 A 
HETATM    6  C   UNK N   1      27.655  24.355  -4.090  0.00  0.00     0.017 A 
HETATM    7  C   UNK N   1      26.334  24.804  -4.093  0.00  0.00     0.001 A 
HETATM    8  C   UNK N   1      25.507  24.529  -5.184  0.00  0.00     0.000 A 
HETATM    9  C   UNK N   1      26.003  23.801  -6.271  0.00  0.00     0.001 A 
HETATM   10  C   UNK N   1      27.328  23.350  -6.269  0.00  0.00     0.017 A 
ENDBRANCH   2   5
BRANCH   3  11
HETATM   11  C   UNK N   1      31.317  21.790  -4.066  0.00  0.00     0.178 C 
HETATM   12  C   UNK N   1      31.439  20.327  -4.466  0.00  0.00     0.043 C 
BRANCH  11  13
HETATM   13  C   UNK N   1      31.685  21.949  -2.615  0.00  0.00     0.163 C 
HETATM   14  O   UNK N   1      31.078  22.740  -1.913  0.00  0.00    -0.648 OA
BRANCH  13  15
HETATM   15  O   UNK N   1      32.681  21.213  -2.079  0.00  0.00    -0.775 OA
HETATM   16  H   UNK N   1      32.729  21.088  -1.151  0.00  0.00     0.167 HD
ENDBRANCH  13  15
ENDBRANCH  11  13
ENDBRANCH   3  11
TORSDOF 4
ENDMDL
MODEL 7
REMARK VINA RESULT:      -5.1     10.775     12.000
REMARK  4 active torsions:
REMARK  status: ('A' for Active; 'I' for Inactive)
REMARK    1  A    between atoms: C_2  and  C_3 
REMARK       I    between atoms: C_2  and  N_9 
REMARK    2  A    between atoms: N_9  and  C_10 
REMARK    3  A    between atoms: C_10  and  C_12 
REMARK    4  A    between atoms: C_12  and  O_14 
ROOT
HETATM    1  O   UNK N   1      31.996  15.552   7.571  0.00  0.00    -0.268 OA
HETATM    2  C   UNK N   1      31.714  16.518   8.271  0.00  0.00     0.252 C 
HETATM    3  N   UNK N   1      32.688  17.230   8.891  0.00  0.00    -0.343 N 
HETATM    4  H   UNK N   1      32.404  17.977   9.466  0.00  0.00     0.163 HD
ENDROOT
BRANCH   2   5
HETATM    5  C   UNK N   1      30.310  16.949   8.423  0.00  0.00     0.032 A 
HETATM    6  C   UNK N   1      29.502  17.081   7.282  0.00  0.00     0.017 A 
HETATM    7  C   UNK N   1      28.163  17.456   7.402  0.00  0.00     0.001 A 
HETATM    8  C   UNK N   1      27.619  17.703   8.664  0.00  0.00     0.000 A 
HETATM    9  C   UNK N   1      28.418  17.577   9.806  0.00  0.00     0.001 A 
HETATM   10  C   UNK N   1      29.760  17.200   9.687  0.00  0.00     0.017 A 
ENDBRANCH   2   5
BRANCH   3  11
HETATM   11  C   UNK N   1      34.108  16.982   8.781  0.00  0.00     0.178 C 
HETATM   12  C   UNK N   1      34.755  16.929  10.158  0.00  0.00     0.043 C 
BRANCH  11  13
HETATM   13  C   UNK N   1      34.730  18.089   7.973  0.00  0.00     0.163 C 
HETATM   14  O   UNK N   1      34.700  18.048   6.754  0.00  0.00    -0.648 OA
BRANCH  13  15
HETATM   15  O   UNK N   1      35.314  19.139   8.589  0.00  0.00    -0.775 OA
HETATM   16  H   UNK N   1      36.243  19.159   8.707  0.00  0.00     0.167 HD
ENDBRANCH  13  15
ENDBRANCH  11  13
ENDBRANCH   3  11
TORSDOF 4
ENDMDL
MODEL 8
REMARK VINA RESULT:      -5.1     14.041     15.235
REMARK  4 active torsions:
REMARK  status: ('A' for Active; 'I' for Inactive)
REMARK    1  A    between atoms: C_2  and  C_3 
REMARK       I    between atoms: C_2  and  N_9 
REMARK    2  A    between atoms: N_9  and  C_10 
REMARK    3  A    between atoms: C_10  and  C_12 
REMARK    4  A    between atoms: C_12  and  O_14 
ROOT
HETATM    1  O   UNK N   1      34.256  11.275  13.084  0.00  0.00    -0.268 OA
HETATM    2  C   UNK N   1      34.836  12.153  13.714  0.00  0.00     0.252 C 
HETATM    3  N   UNK N   1      35.356  13.231  13.077  0.00  0.00    -0.343 N 
HETATM    4  H   UNK N   1      35.839  13.890  13.627  0.00  0.00     0.163 HD
ENDROOT
BRANCH   2   5
HETATM    5  C   UNK N   1      34.948  12.070  15.183  0.00  0.00     0.032 A 
HETATM    6  C   UNK N   1      35.022  10.811  15.800  0.00  0.00     0.017 A 
HETATM    7  C   UNK N   1      35.160  10.707  17.185  0.00  0.00     0.001 A 
HETATM    8  C   UNK N   1      35.226  11.862  17.966  0.00  0.00     0.000 A 
HETATM    9  C   UNK N   1      35.151  13.121  17.362  0.00  0.00     0.001 A 
HETATM   10  C   UNK N   1      35.013  13.226  15.973  0.00  0.00     0.017 A 
ENDBRANCH   2   5
BRANCH   3  11
HETATM   11  C   UNK N   1      35.264  13.494  11.658  0.00  0.00     0.178 C 
HETATM   12  C   UNK N   1      36.643  13.484  11.016  0.00  0.00     0.043 C 
BRANCH  11  13
HETATM   13  C   UNK N   1      34.623  14.841  11.458  0.00  0.00     0.163 C 
HETATM   14  O   UNK N   1      35.298  15.856  11.523  0.00  0.00    -0.648 OA
BRANCH  13  15
HETATM   15  O   UNK N   1      33.302  14.937  11.196  0.00  0.00    -0.775 OA
HETATM   16  H   UNK N   1      32.695  14.359  11.613  0.00  0.00     0.167 HD
ENDBRANCH  13  15
ENDBRANCH  11  13
ENDBRANCH   3  11
TORSDOF 4
ENDMDL
MODEL 9
REMARK VINA RESULT:      -5.0      6.685      8.068
REMARK  4 active torsions:
REMARK  status: ('A' for Active; 'I' for Inactive)
REMARK    1  A    between atoms: C_2  and  C_3 
REMARK       I    between atoms: C_2  and  N_9 
REMARK    2  A    between atoms: N_9  and  C_10 
REMARK    3  A    between atoms: C_10  and  C_12 
REMARK    4  A    between atoms: C_12  and  O_14 
ROOT
HETATM    1  O   UNK N   1      22.562  18.207   5.538  0.00  0.00    -0.268 OA
HETATM    2  C   UNK N   1      22.838  18.559   4.397  0.00  0.00     0.252 C 
HETATM    3  N   UNK N   1      21.905  18.514   3.414  0.00  0.00    -0.343 N 
HETATM    4  H   UNK N   1      22.189  18.779   2.510  0.00  0.00     0.163 HD
ENDROOT
BRANCH   2   5
HETATM    5  C   UNK N   1      24.185  19.074   4.077  0.00  0.00     0.032 A 
HETATM    6  C   UNK N   1      24.321  20.124   3.154  0.00  0.00     0.017 A 
HETATM    7  C   UNK N   1      25.580  20.649   2.860  0.00  0.00     0.001 A 
HETATM    8  C   UNK N   1      26.715  20.129   3.485  0.00  0.00     0.000 A 
HETATM    9  C   UNK N   1      26.590  19.081   4.403  0.00  0.00     0.001 A 
HETATM   10  C   UNK N   1      25.327  18.555   4.700  0.00  0.00     0.017 A 
ENDBRANCH   2   5
BRANCH   3  11
HETATM   11  C   UNK N   1      20.527  18.109   3.583  0.00  0.00     0.178 C 
HETATM   12  C   UNK N   1      20.342  16.650   3.190  0.00  0.00     0.043 C 
BRANCH  11  13
HETATM   13  C   UNK N   1      19.658  18.979   2.715  0.00  0.00     0.163 C 
HETATM   14  O   UNK N   1      20.103  20.015   2.247  0.00  0.00    -0.648 OA
BRANCH  13  15
HETATM   15  O   UNK N   1      18.387  18.618   2.440  0.00  0.00    -0.775 OA
HETATM   16  H   UNK N   1      17.956  18.952   1.678  0.00  0.00     0.167 HD
ENDBRANCH  13  15
ENDBRANCH  11  13
ENDBRANCH   3  11
TORSDOF 4
ENDMDL
