MODEL 1
REMARK VINA RESULT:      -5.6      0.000      0.000
REMARK  9 active torsions:
REMARK  status: ('A' for Active; 'I' for Inactive)
REMARK    1  A    between atoms: O_2  and  C_3 
REMARK    2  A    between atoms: C_7  and  O_10 
REMARK    3  A    between atoms: O_10  and  C_11 
REMARK    4  A    between atoms: C_11  and  C_12 
REMARK    5  A    between atoms: C_12  and  C_13 
REMARK    6  A    between atoms: C_13  and  C_14 
REMARK    7  A    between atoms: C_14  and  C_15 
REMARK    8  A    between atoms: C_15  and  C_16 
REMARK    9  A    between atoms: C_16  and  N_17 
ROOT
HETATM    1  C   UNK N   1      26.253  23.986  -6.960  0.00  0.00     0.175 C 
ENDROOT
BRANCH   1   2
HETATM    2  O   UNK N   1      25.377  24.294  -5.950  0.00  0.00    -0.349 OA
BRANCH   2   3
HETATM    3  C   UNK N   1      25.556  25.443  -5.248  0.00  0.00     0.090 A 
HETATM    4  C   UNK N   1      26.267  25.434  -4.040  0.00  0.00     0.070 A 
HETATM    5  C   UNK N   1      26.445  26.628  -3.326  0.00  0.00     0.063 A 
HETATM    6 Cl   UNK N   1      26.942  23.944  -3.407  0.00  0.00    -0.081 Cl
HETATM    7  C   UNK N   1      25.917  27.834  -3.807  0.00  0.00     0.070 A 
HETATM    8  C   UNK N   1      25.207  27.841  -5.013  0.00  0.00     0.039 A 
HETATM    9  C   UNK N   1      25.029  26.660  -5.724  0.00  0.00     0.041 A 
BRANCH   7  10
HETATM   10  O   UNK N   1      26.104  28.970  -3.096  0.00  0.00    -0.356 OA
HETATM   11  C   UNK N   1      26.394  30.183  -3.683  0.00  0.00     0.210 C 
ENDBRANCH   7  10
ENDBRANCH   2   3
ENDBRANCH   1   2
BRANCH   1  12
HETATM   12  C   UNK N   1      26.678  22.546  -7.045  0.00  0.00     0.027 C 
BRANCH  12  13
HETATM   13  C   UNK N   1      28.146  22.721  -6.776  0.00  0.00     0.002 C 
BRANCH  13  14
HETATM   14  C   UNK N   1      29.033  21.510  -6.760  0.00  0.00     0.002 C 
BRANCH  14  15
HETATM   15  C   UNK N   1      30.184  22.029  -5.936  0.00  0.00     0.020 C 
BRANCH  15  16
HETATM   16  C   UNK N   1      30.113  21.755  -4.451  0.00  0.00     0.129 C 
BRANCH  16  17
HETATM   17  N   UNK N   1      31.397  21.225  -3.988  0.00  0.00    -0.352 N 
HETATM   18  C   UNK N   1      32.036  20.170  -4.515  0.00  0.00     0.182 A 
HETATM   19  N   UNK N   1      33.194  19.937  -3.863  0.00  0.00    -0.361 N 
HETATM   20  C   UNK N   1      33.278  20.878  -2.900  0.00  0.00     0.106 A 
ATOM     21  HN  UNK N   1      33.870  19.199  -4.058  1.00  0.00     0.166 HD
HETATM   22  C   UNK N   1      32.160  21.681  -2.976  0.00  0.00     0.108 A 
ENDBRANCH  16  17
ENDBRANCH  15  16
ENDBRANCH  14  15
ENDBRANCH  13  14
ENDBRANCH  12  13
ENDBRANCH   1  12
TORSDOF 9
ENDMDL
MODEL 2
REMARK VINA RESULT:      -5.4      2.568      3.144
REMARK  9 active torsions:
REMARK  status: ('A' for Active; 'I' for Inactive)
REMARK    1  A    between atoms: O_2  and  C_3 
REMARK    2  A    between atoms: C_7  and  O_10 
REMARK    3  A    between atoms: O_10  and  C_11 
REMARK    4  A    between atoms: C_11  and  C_12 
REMARK    5  A    between atoms: C_12  and  C_13 
REMARK    6  A    between atoms: C_13  and  C_14 
REMARK    7  A    between atoms: C_14  and  C_15 
REMARK    8  A    between atoms: C_15  and  C_16 
REMARK    9  A    between atoms: C_16  and  N_17 
ROOT
HETATM    1  C   UNK N   1      25.814  25.118  -7.604  0.00  0.00     0.175 C 
ENDROOT
BRANCH   1   2
HETATM    2  O   UNK N   1      25.811  26.487  -7.696  0.00  0.00    -0.349 OA
BRANCH   2   3
HETATM    3  C   UNK N   1      25.977  27.225  -6.567  0.00  0.00     0.090 A 
HETATM    4  C   UNK N   1      27.103  28.046  -6.414  0.00  0.00     0.070 A 
HETATM    5  C   UNK N   1      27.262  28.802  -5.244  0.00  0.00     0.063 A 
HETATM    6 Cl   UNK N   1      28.321  28.141  -7.672  0.00  0.00    -0.081 Cl
HETATM    7  C   UNK N   1      26.305  28.746  -4.222  0.00  0.00     0.070 A 
HETATM    8  C   UNK N   1      25.181  27.925  -4.376  0.00  0.00     0.039 A 
HETATM    9  C   UNK N   1      25.021  27.175  -5.534  0.00  0.00     0.041 A 
BRANCH   7  10
HETATM   10  O   UNK N   1      26.485  29.487  -3.103  0.00  0.00    -0.356 OA
HETATM   11  C   UNK N   1      27.682  29.537  -2.422  0.00  0.00     0.210 C 
ENDBRANCH   7  10
ENDBRANCH   2   3
ENDBRANCH   1   2
BRANCH   1  12
HETATM   12  C   UNK N   1      27.140  24.485  -7.280  0.00  0.00     0.027 C 
BRANCH  12  13
HETATM   13  C   UNK N   1      26.667  23.433  -6.318  0.00  0.00     0.002 C 
BRANCH  13  14
HETATM   14  C   UNK N   1      26.004  23.859  -5.041  0.00  0.00     0.002 C 
BRANCH  14  15
HETATM   15  C   UNK N   1      27.156  24.552  -4.357  0.00  0.00     0.020 C 
BRANCH  15  16
HETATM   16  C   UNK N   1      27.555  24.000  -3.007  0.00  0.00     0.129 C 
BRANCH  16  17
HETATM   17  N   UNK N   1      28.983  23.674  -3.014  0.00  0.00    -0.352 N 
HETATM   18  C   UNK N   1      29.586  22.812  -2.182  0.00  0.00     0.182 A 
HETATM   19  N   UNK N   1      30.906  22.735  -2.447  0.00  0.00    -0.361 N 
HETATM   20  C   UNK N   1      31.131  23.576  -3.478  0.00  0.00     0.106 A 
ATOM     21  HN  UNK N   1      31.596  22.158  -1.966  1.00  0.00     0.166 HD
HETATM   22  C   UNK N   1      29.935  24.162  -3.832  0.00  0.00     0.108 A 
ENDBRANCH  16  17
ENDBRANCH  15  16
ENDBRANCH  14  15
ENDBRANCH  13  14
ENDBRANCH  12  13
ENDBRANCH   1  12
TORSDOF 9
ENDMDL
MODEL 3
REMARK VINA RESULT:      -5.4     11.485     13.567
REMARK  9 active torsions:
REMARK  status: ('A' for Active; 'I' for Inactive)
REMARK    1  A    between atoms: O_2  and  C_3 
REMARK    2  A    between atoms: C_7  and  O_10 
REMARK    3  A    between atoms: O_10  and  C_11 
REMARK    4  A    between atoms: C_11  and  C_12 
REMARK    5  A    between atoms: C_12  and  C_13 
REMARK    6  A    between atoms: C_13  and  C_14 
REMARK    7  A    between atoms: C_14  and  C_15 
REMARK    8  A    between atoms: C_15  and  C_16 
REMARK    9  A    between atoms: C_16  and  N_17 
ROOT
HETATM    1  C   UNK N   1      26.501  19.545   3.378  0.00  0.00     0.175 C 
ENDROOT
BRANCH   1   2
HETATM    2  O   UNK N   1      27.606  20.020   4.038  0.00  0.00    -0.349 OA
BRANCH   2   3
HETATM    3  C   UNK N   1      28.052  19.359   5.137  0.00  0.00     0.090 A 
HETATM    4  C   UNK N   1      27.652  19.760   6.419  0.00  0.00     0.070 A 
HETATM    5  C   UNK N   1      28.121  19.069   7.546  0.00  0.00     0.063 A 
HETATM    6 Cl   UNK N   1      26.568  21.122   6.635  0.00  0.00    -0.081 Cl
HETATM    7  C   UNK N   1      28.988  17.977   7.404  0.00  0.00     0.070 A 
HETATM    8  C   UNK N   1      29.387  17.577   6.123  0.00  0.00     0.039 A 
HETATM    9  C   UNK N   1      28.925  18.260   5.005  0.00  0.00     0.041 A 
BRANCH   7  10
HETATM   10  O   UNK N   1      29.425  17.328   8.509  0.00  0.00    -0.356 OA
HETATM   11  C   UNK N   1      29.136  17.750   9.789  0.00  0.00     0.210 C 
ENDBRANCH   7  10
ENDBRANCH   2   3
ENDBRANCH   1   2
BRANCH   1  12
HETATM   12  C   UNK N   1      25.465  20.571   3.007  0.00  0.00     0.027 C 
BRANCH  12  13
HETATM   13  C   UNK N   1      24.239  19.849   3.492  0.00  0.00     0.002 C 
BRANCH  13  14
HETATM   14  C   UNK N   1      24.401  18.548   4.222  0.00  0.00     0.002 C 
BRANCH  14  15
HETATM   15  C   UNK N   1      22.999  18.357   4.747  0.00  0.00     0.020 C 
BRANCH  15  16
HETATM   16  C   UNK N   1      22.178  17.285   4.067  0.00  0.00     0.129 C 
BRANCH  16  17
HETATM   17  N   UNK N   1      21.035  17.900   3.390  0.00  0.00    -0.352 N 
HETATM   18  C   UNK N   1      20.242  17.290   2.497  0.00  0.00     0.182 A 
HETATM   19  N   UNK N   1      19.281  18.128   2.058  0.00  0.00    -0.361 N 
HETATM   20  C   UNK N   1      19.482  19.298   2.699  0.00  0.00     0.106 A 
ATOM     21  HN  UNK N   1      18.549  17.921   1.379  1.00  0.00     0.166 HD
HETATM   22  C   UNK N   1      20.574  19.158   3.529  0.00  0.00     0.108 A 
ENDBRANCH  16  17
ENDBRANCH  15  16
ENDBRANCH  14  15
ENDBRANCH  13  14
ENDBRANCH  12  13
ENDBRANCH   1  12
TORSDOF 9
ENDMDL
MODEL 4
REMARK VINA RESULT:      -5.4     11.417     14.226
REMARK  9 active torsions:
REMARK  status: ('A' for Active; 'I' for Inactive)
REMARK    1  A    between atoms: O_2  and  C_3 
REMARK    2  A    between atoms: C_7  and  O_10 
REMARK    3  A    between atoms: O_10  and  C_11 
REMARK    4  A    between atoms: C_11  and  C_12 
REMARK    5  A    between atoms: C_12  and  C_13 
REMARK    6  A    between atoms: C_13  and  C_14 
REMARK    7  A    between atoms: C_14  and  C_15 
REMARK    8  A    between atoms: C_15  and  C_16 
REMARK    9  A    between atoms: C_16  and  N_17 
ROOT
HETATM    1  C   UNK N   1      28.343  17.892   4.857  0.00  0.00     0.175 C 
ENDROOT
BRANCH   1   2
HETATM    2  O   UNK N   1      28.507  17.266   6.066  0.00  0.00    -0.349 OA
BRANCH   2   3
HETATM    3  C   UNK N   1      29.686  17.404   6.726  0.00  0.00     0.090 A 
HETATM    4  C   UNK N   1      29.714  17.910   8.033  0.00  0.00     0.070 A 
HETATM    5  C   UNK N   1      30.938  18.048   8.703  0.00  0.00     0.063 A 
HETATM    6 Cl   UNK N   1      28.231  18.375   8.847  0.00  0.00    -0.081 Cl
HETATM    7  C   UNK N   1      32.139  17.685   8.079  0.00  0.00     0.070 A 
HETATM    8  C   UNK N   1      32.110  17.180   6.773  0.00  0.00     0.039 A 
HETATM    9  C   UNK N   1      30.899  17.042   6.107  0.00  0.00     0.041 A 
BRANCH   7  10
HETATM   10  O   UNK N   1      33.306  17.829   8.750  0.00  0.00    -0.356 OA
HETATM   11  C   UNK N   1      34.136  16.770   9.046  0.00  0.00     0.210 C 
ENDBRANCH   7  10
ENDBRANCH   2   3
ENDBRANCH   1   2
BRANCH   1  12
HETATM   12  C   UNK N   1      27.938  19.339   4.916  0.00  0.00     0.027 C 
BRANCH  12  13
HETATM   13  C   UNK N   1      26.909  19.337   3.821  0.00  0.00     0.002 C 
BRANCH  13  14
HETATM   14  C   UNK N   1      26.497  20.643   3.206  0.00  0.00     0.002 C 
BRANCH  14  15
HETATM   15  C   UNK N   1      25.072  20.326   2.827  0.00  0.00     0.020 C 
BRANCH  15  16
HETATM   16  C   UNK N   1      24.288  19.503   3.823  0.00  0.00     0.129 C 
BRANCH  16  17
HETATM   17  N   UNK N   1      22.861  19.579   3.506  0.00  0.00    -0.352 N 
HETATM   18  C   UNK N   1      21.916  18.756   3.983  0.00  0.00     0.182 A 
HETATM   19  N   UNK N   1      20.701  19.091   3.500  0.00  0.00    -0.361 N 
HETATM   20  C   UNK N   1      20.898  20.157   2.696  0.00  0.00     0.106 A 
ATOM     21  HN  UNK N   1      19.813  18.632   3.701  1.00  0.00     0.166 HD
HETATM   22  C   UNK N   1      22.242  20.462   2.699  0.00  0.00     0.108 A 
ENDBRANCH  16  17
ENDBRANCH  15  16
ENDBRANCH  14  15
ENDBRANCH  13  14
ENDBRANCH  12  13
ENDBRANCH   1  12
TORSDOF 9
ENDMDL
MODEL 5
REMARK VINA RESULT:      -5.2     13.781     16.213
REMARK  9 active torsions:
REMARK  status: ('A' for Active; 'I' for Inactive)
REMARK    1  A    between atoms: O_2  and  C_3 
REMARK    2  A    between atoms: C_7  and  O_10 
REMARK    3  A    between atoms: O_10  and  C_11 
REMARK    4  A    between atoms: C_11  and  C_12 
REMARK    5  A    between atoms: C_12  and  C_13 
REMARK    6  A    between atoms: C_13  and  C_14 
REMARK    7  A    between atoms: C_14  and  C_15 
REMARK    8  A    between atoms: C_15  and  C_16 
REMARK    9  A    between atoms: C_16  and  N_17 
ROOT
HETATM    1  C   UNK N   1      32.057  16.552   7.219  0.00  0.00     0.175 C 
ENDROOT
BRANCH   1   2
HETATM    2  O   UNK N   1      30.971  16.821   8.012  0.00  0.00    -0.349 OA
BRANCH   2   3
HETATM    3  C   UNK N   1      29.939  17.538   7.496  0.00  0.00     0.090 A 
HETATM    4  C   UNK N   1      29.240  18.454   8.295  0.00  0.00     0.070 A 
HETATM    5  C   UNK N   1      28.177  19.187   7.750  0.00  0.00     0.063 A 
HETATM    6 Cl   UNK N   1      29.680  18.697   9.975  0.00  0.00    -0.081 Cl
HETATM    7  C   UNK N   1      27.802  19.014   6.410  0.00  0.00     0.070 A 
HETATM    8  C   UNK N   1      28.501  18.099   5.614  0.00  0.00     0.039 A 
HETATM    9  C   UNK N   1      29.555  17.371   6.151  0.00  0.00     0.041 A 
BRANCH   7  10
HETATM   10  O   UNK N   1      26.772  19.736   5.911  0.00  0.00    -0.356 OA
HETATM   11  C   UNK N   1      26.502  21.028   6.304  0.00  0.00     0.210 C 
ENDBRANCH   7  10
ENDBRANCH   2   3
ENDBRANCH   1   2
BRANCH   1  12
HETATM   12  C   UNK N   1      33.148  17.588   7.226  0.00  0.00     0.027 C 
BRANCH  12  13
HETATM   13  C   UNK N   1      33.657  17.380   8.625  0.00  0.00     0.002 C 
BRANCH  13  14
HETATM   14  C   UNK N   1      34.750  16.380   8.862  0.00  0.00     0.002 C 
BRANCH  14  15
HETATM   15  C   UNK N   1      34.674  16.247  10.362  0.00  0.00     0.020 C 
BRANCH  15  16
HETATM   16  C   UNK N   1      34.095  14.952  10.885  0.00  0.00     0.129 C 
BRANCH  16  17
HETATM   17  N   UNK N   1      35.070  14.295  11.757  0.00  0.00    -0.352 N 
HETATM   18  C   UNK N   1      36.084  14.907  12.386  0.00  0.00     0.182 A 
HETATM   19  N   UNK N   1      36.800  14.024  13.112  0.00  0.00    -0.361 N 
HETATM   20  C   UNK N   1      36.212  12.824  12.928  0.00  0.00     0.106 A 
ATOM     21  HN  UNK N   1      37.621  14.223  13.684  1.00  0.00     0.166 HD
HETATM   22  C   UNK N   1      35.135  12.991  12.085  0.00  0.00     0.108 A 
ENDBRANCH  16  17
ENDBRANCH  15  16
ENDBRANCH  14  15
ENDBRANCH  13  14
ENDBRANCH  12  13
ENDBRANCH   1  12
TORSDOF 9
ENDMDL
MODEL 6
REMARK VINA RESULT:      -5.2      3.866      7.130
REMARK  9 active torsions:
REMARK  status: ('A' for Active; 'I' for Inactive)
REMARK    1  A    between atoms: O_2  and  C_3 
REMARK    2  A    between atoms: C_7  and  O_10 
REMARK    3  A    between atoms: O_10  and  C_11 
REMARK    4  A    between atoms: C_11  and  C_12 
REMARK    5  A    between atoms: C_12  and  C_13 
REMARK    6  A    between atoms: C_13  and  C_14 
REMARK    7  A    between atoms: C_14  and  C_15 
REMARK    8  A    between atoms: C_15  and  C_16 
REMARK    9  A    between atoms: C_16  and  N_17 
ROOT
HETATM    1  C   UNK N   1      25.498  25.927  -6.412  0.00  0.00     0.175 C 
ENDROOT
BRANCH   1   2
HETATM    2  O   UNK N   1      25.537  24.679  -5.844  0.00  0.00    -0.349 OA
BRANCH   2   3
HETATM    3  C   UNK N   1      26.712  24.220  -5.339  0.00  0.00     0.090 A 
HETATM    4  C   UNK N   1      27.546  23.399  -6.111  0.00  0.00     0.070 A 
HETATM    5  C   UNK N   1      28.756  22.933  -5.577  0.00  0.00     0.063 A 
HETATM    6 Cl   UNK N   1      27.094  22.945  -7.744  0.00  0.00    -0.081 Cl
HETATM    7  C   UNK N   1      29.143  23.280  -4.276  0.00  0.00     0.070 A 
HETATM    8  C   UNK N   1      28.309  24.100  -3.506  0.00  0.00     0.039 A 
HETATM    9  C   UNK N   1      27.110  24.564  -4.032  0.00  0.00     0.041 A 
BRANCH   7  10
HETATM   10  O   UNK N   1      30.316  22.815  -3.786  0.00  0.00    -0.356 OA
HETATM   11  C   UNK N   1      30.605  22.780  -2.439  0.00  0.00     0.210 C 
ENDBRANCH   7  10
ENDBRANCH   2   3
ENDBRANCH   1   2
BRANCH   1  12
HETATM   12  C   UNK N   1      24.740  26.975  -5.644  0.00  0.00     0.027 C 
BRANCH  12  13
HETATM   13  C   UNK N   1      25.891  27.862  -5.262  0.00  0.00     0.002 C 
BRANCH  13  14
HETATM   14  C   UNK N   1      25.875  28.542  -3.924  0.00  0.00     0.002 C 
BRANCH  14  15
HETATM   15  C   UNK N   1      26.662  29.788  -4.244  0.00  0.00     0.020 C 
BRANCH  15  16
HETATM   16  C   UNK N   1      26.899  30.736  -3.091  0.00  0.00     0.129 C 
BRANCH  16  17
HETATM   17  N   UNK N   1      28.079  30.307  -2.338  0.00  0.00    -0.352 N 
HETATM   18  C   UNK N   1      28.210  30.361  -1.005  0.00  0.00     0.182 A 
HETATM   19  N   UNK N   1      29.415  29.891  -0.623  0.00  0.00    -0.361 N 
HETATM   20  C   UNK N   1      30.054  29.532  -1.755  0.00  0.00     0.106 A 
ATOM     21  HN  UNK N   1      29.772  29.820   0.330  1.00  0.00     0.166 HD
HETATM   22  C   UNK N   1      29.224  29.790  -2.824  0.00  0.00     0.108 A 
ENDBRANCH  16  17
ENDBRANCH  15  16
ENDBRANCH  14  15
ENDBRANCH  13  14
ENDBRANCH  12  13
ENDBRANCH   1  12
TORSDOF 9
ENDMDL
MODEL 7
REMARK VINA RESULT:      -5.2     19.830     23.454
REMARK  9 active torsions:
REMARK  status: ('A' for Active; 'I' for Inactive)
REMARK    1  A    between atoms: O_2  and  C_3 
REMARK    2  A    between atoms: C_7  and  O_10 
REMARK    3  A    between atoms: O_10  and  C_11 
REMARK    4  A    between atoms: C_11  and  C_12 
REMARK    5  A    between atoms: C_12  and  C_13 
REMARK    6  A    between atoms: C_13  and  C_14 
REMARK    7  A    between atoms: C_14  and  C_15 
REMARK    8  A    between atoms: C_15  and  C_16 
REMARK    9  A    between atoms: C_16  and  N_17 
ROOT
HETATM    1  C   UNK N   1      35.502  13.464  13.894  0.00  0.00     0.175 C 
ENDROOT
BRANCH   1   2
HETATM    2  O   UNK N   1      34.478  12.977  14.666  0.00  0.00    -0.349 OA
BRANCH   2   3
HETATM    3  C   UNK N   1      34.753  12.516  15.913  0.00  0.00     0.090 A 
HETATM    4  C   UNK N   1      34.847  11.139  16.158  0.00  0.00     0.070 A 
HETATM    5  C   UNK N   1      35.132  10.676  17.450  0.00  0.00     0.063 A 
HETATM    6 Cl   UNK N   1      34.611   9.980  14.862  0.00  0.00    -0.081 Cl
HETATM    7  C   UNK N   1      35.325  11.578  18.505  0.00  0.00     0.070 A 
HETATM    8  C   UNK N   1      35.232  12.954  18.260  0.00  0.00     0.039 A 
HETATM    9  C   UNK N   1      34.949  13.415  16.981  0.00  0.00     0.041 A 
BRANCH   7  10
HETATM   10  O   UNK N   1      35.600  11.103  19.743  0.00  0.00    -0.356 OA
HETATM   11  C   UNK N   1      34.738  10.283  20.439  0.00  0.00     0.210 C 
ENDBRANCH   7  10
ENDBRANCH   2   3
ENDBRANCH   1   2
BRANCH   1  12
HETATM   12  C   UNK N   1      35.195  13.643  12.432  0.00  0.00     0.027 C 
BRANCH  12  13
HETATM   13  C   UNK N   1      35.944  14.924  12.193  0.00  0.00     0.002 C 
BRANCH  13  14
HETATM   14  C   UNK N   1      35.324  15.979  11.326  0.00  0.00     0.002 C 
BRANCH  14  15
HETATM   15  C   UNK N   1      35.871  15.579   9.978  0.00  0.00     0.020 C 
BRANCH  15  16
HETATM   16  C   UNK N   1      34.874  15.542   8.842  0.00  0.00     0.129 C 
BRANCH  16  17
HETATM   17  N   UNK N   1      34.121  14.287   8.892  0.00  0.00    -0.352 N 
HETATM   18  C   UNK N   1      32.791  14.186   9.032  0.00  0.00     0.182 A 
HETATM   19  N   UNK N   1      32.409  12.892   9.041  0.00  0.00    -0.361 N 
HETATM   20  C   UNK N   1      33.537  12.166   8.903  0.00  0.00     0.106 A 
ATOM     21  HN  UNK N   1      31.458  12.534   9.134  1.00  0.00     0.166 HD
HETATM   22  C   UNK N   1      34.604  13.032   8.810  0.00  0.00     0.108 A 
ENDBRANCH  16  17
ENDBRANCH  15  16
ENDBRANCH  14  15
ENDBRANCH  13  14
ENDBRANCH  12  13
ENDBRANCH   1  12
TORSDOF 9
ENDMDL
MODEL 8
REMARK VINA RESULT:      -5.1     11.963     14.042
REMARK  9 active torsions:
REMARK  status: ('A' for Active; 'I' for Inactive)
REMARK    1  A    between atoms: O_2  and  C_3 
REMARK    2  A    between atoms: C_7  and  O_10 
REMARK    3  A    between atoms: O_10  and  C_11 
REMARK    4  A    between atoms: C_11  and  C_12 
REMARK    5  A    between atoms: C_12  and  C_13 
REMARK    6  A    between atoms: C_13  and  C_14 
REMARK    7  A    between atoms: C_14  and  C_15 
REMARK    8  A    between atoms: C_15  and  C_16 
REMARK    9  A    between atoms: C_16  and  N_17 
ROOT
HETATM    1  C   UNK N   1      33.205  16.162   4.561  0.00  0.00     0.175 C 
ENDROOT
BRANCH   1   2
HETATM    2  O   UNK N   1      33.250  17.271   5.367  0.00  0.00    -0.349 OA
BRANCH   2   3
HETATM    3  C   UNK N   1      32.361  17.381   6.388  0.00  0.00     0.090 A 
HETATM    4  C   UNK N   1      32.780  17.821   7.651  0.00  0.00     0.070 A 
HETATM    5  C   UNK N   1      31.852  17.929   8.697  0.00  0.00     0.063 A 
HETATM    6 Cl   UNK N   1      34.458  18.239   7.944  0.00  0.00    -0.081 Cl
HETATM    7  C   UNK N   1      30.505  17.602   8.493  0.00  0.00     0.070 A 
HETATM    8  C   UNK N   1      30.088  17.162   7.231  0.00  0.00     0.039 A 
HETATM    9  C   UNK N   1      31.004  17.053   6.193  0.00  0.00     0.041 A 
BRANCH   7  10
HETATM   10  O   UNK N   1      29.631  17.716   9.520  0.00  0.00    -0.356 OA
HETATM   11  C   UNK N   1      28.267  17.798   9.339  0.00  0.00     0.210 C 
ENDBRANCH   7  10
ENDBRANCH   2   3
ENDBRANCH   1   2
BRANCH   1  12
HETATM   12  C   UNK N   1      33.232  16.424   3.080  0.00  0.00     0.027 C 
BRANCH  12  13
HETATM   13  C   UNK N   1      31.768  16.686   2.864  0.00  0.00     0.002 C 
BRANCH  13  14
HETATM   14  C   UNK N   1      30.792  15.562   3.050  0.00  0.00     0.002 C 
BRANCH  14  15
HETATM   15  C   UNK N   1      29.491  16.295   2.833  0.00  0.00     0.020 C 
BRANCH  15  16
HETATM   16  C   UNK N   1      28.306  15.789   3.624  0.00  0.00     0.129 C 
BRANCH  16  17
HETATM   17  N   UNK N   1      27.747  16.883   4.420  0.00  0.00    -0.352 N 
HETATM   18  C   UNK N   1      26.872  16.741   5.426  0.00  0.00     0.182 A 
HETATM   19  N   UNK N   1      26.552  17.941   5.956  0.00  0.00    -0.361 N 
HETATM   20  C   UNK N   1      27.252  18.857   5.256  0.00  0.00     0.106 A 
ATOM     21  HN  UNK N   1      25.911  18.119   6.729  1.00  0.00     0.166 HD
HETATM   22  C   UNK N   1      27.996  18.201   4.300  0.00  0.00     0.108 A 
ENDBRANCH  16  17
ENDBRANCH  15  16
ENDBRANCH  14  15
ENDBRANCH  13  14
ENDBRANCH  12  13
ENDBRANCH   1  12
TORSDOF 9
ENDMDL
MODEL 9
REMARK VINA RESULT:      -5.0     13.788     17.386
REMARK  9 active torsions:
REMARK  status: ('A' for Active; 'I' for Inactive)
REMARK    1  A    between atoms: O_2  and  C_3 
REMARK    2  A    between atoms: C_7  and  O_10 
REMARK    3  A    between atoms: O_10  and  C_11 
REMARK    4  A    between atoms: C_11  and  C_12 
REMARK    5  A    between atoms: C_12  and  C_13 
REMARK    6  A    between atoms: C_13  and  C_14 
REMARK    7  A    between atoms: C_14  and  C_15 
REMARK    8  A    between atoms: C_15  and  C_16 
REMARK    9  A    between atoms: C_16  and  N_17 
ROOT
HETATM    1  C   UNK N   1      33.524  17.935   7.190  0.00  0.00     0.175 C 
ENDROOT
BRANCH   1   2
HETATM    2  O   UNK N   1      34.286  17.725   6.069  0.00  0.00    -0.349 OA
BRANCH   2   3
HETATM    3  C   UNK N   1      33.847  16.853   5.125  0.00  0.00     0.090 A 
HETATM    4  C   UNK N   1      34.329  15.538   5.093  0.00  0.00     0.070 A 
HETATM    5  C   UNK N   1      33.867  14.647   4.114  0.00  0.00     0.063 A 
HETATM    6 Cl   UNK N   1      35.510  14.987   6.268  0.00  0.00    -0.081 Cl
HETATM    7  C   UNK N   1      32.924  15.059   3.162  0.00  0.00     0.070 A 
HETATM    8  C   UNK N   1      32.443  16.374   3.195  0.00  0.00     0.039 A 
HETATM    9  C   UNK N   1      32.899  17.258   4.164  0.00  0.00     0.041 A 
BRANCH   7  10
HETATM   10  O   UNK N   1      32.496  14.178   2.228  0.00  0.00    -0.356 OA
HETATM   11  C   UNK N   1      32.242  12.853   2.508  0.00  0.00     0.210 C 
ENDBRANCH   7  10
ENDBRANCH   2   3
ENDBRANCH   1   2
BRANCH   1  12
HETATM   12  C   UNK N   1      34.274  18.339   8.429  0.00  0.00     0.027 C 
BRANCH  12  13
HETATM   13  C   UNK N   1      34.489  16.976   9.026  0.00  0.00     0.002 C 
BRANCH  13  14
HETATM   14  C   UNK N   1      35.215  16.860  10.334  0.00  0.00     0.002 C 
BRANCH  14  15
HETATM   15  C   UNK N   1      35.101  15.376  10.575  0.00  0.00     0.020 C 
BRANCH  15  16
HETATM   16  C   UNK N   1      36.392  14.593  10.512  0.00  0.00     0.129 C 
BRANCH  16  17
HETATM   17  N   UNK N   1      36.606  13.895  11.781  0.00  0.00    -0.352 N 
HETATM   18  C   UNK N   1      37.367  12.804  11.949  0.00  0.00     0.182 A 
HETATM   19  N   UNK N   1      37.356  12.406  13.237  0.00  0.00    -0.361 N 
HETATM   20  C   UNK N   1      36.562  13.277  13.892  0.00  0.00     0.106 A 
ATOM     21  HN  UNK N   1      37.849  11.607  13.637  1.00  0.00     0.166 HD
HETATM   22  C   UNK N   1      36.094  14.205  12.988  0.00  0.00     0.108 A 
ENDBRANCH  16  17
ENDBRANCH  15  16
ENDBRANCH  14  15
ENDBRANCH  13  14
ENDBRANCH  12  13
ENDBRANCH   1  12
TORSDOF 9
ENDMDL
