MODEL 1
REMARK VINA RESULT:      -7.8      0.000      0.000
REMARK  7 active torsions:
REMARK  status: ('A' for Active; 'I' for Inactive)
REMARK    1  A    between atoms: C_3  and  O_4 
REMARK    2  A    between atoms: O_4  and  C_24 
REMARK    3  A    between atoms: C_18  and  C_21 
REMARK    4  A    between atoms: C_24  and  C_26 
REMARK    5  A    between atoms: C_26  and  C_27 
REMARK    6  A    between atoms: C_27  and  C_28 
REMARK    7  A    between atoms: C_28  and  O_30 
ROOT
HETATM    1  C   UNK N   1      36.899  14.207  10.146  0.00  0.00     0.012 C 
HETATM    2  C   UNK N   1      35.822  14.732   9.187  0.00  0.00     0.033 C 
HETATM    3  C   UNK N   1      35.537  13.709   8.089  0.00  0.00     0.132 C 
HETATM    4  C   UNK N   1      35.082  12.403   8.735  0.00  0.00     0.038 C 
HETATM    5  C   UNK N   1      36.149  11.842   9.670  0.00  0.00    -0.004 C 
HETATM    6  C   UNK N   1      35.628  10.526  10.258  0.00  0.00     0.006 C 
HETATM    7  C   UNK N   1      34.386  10.769  11.125  0.00  0.00     0.006 C 
HETATM    8  C   UNK N   1      34.707  11.702  12.300  0.00  0.00    -0.005 C 
HETATM    9  C   UNK N   1      35.300  13.035  11.777  0.00  0.00    -0.002 C 
HETATM   10  C   UNK N   1      36.515  12.859  10.789  0.00  0.00    -0.036 C 
HETATM   11  C   UNK N   1      35.594  13.950  12.980  0.00  0.00     0.006 C 
HETATM   12  C   UNK N   1      36.554  13.298  13.984  0.00  0.00     0.011 C 
HETATM   13  C   UNK N   1      36.087  11.912  14.469  0.00  0.00    -0.030 C 
HETATM   14  C   UNK N   1      35.633  10.992  13.325  0.00  0.00    -0.001 C 
HETATM   15  C   UNK N   1      34.863   9.880  14.041  0.00  0.00     0.006 C 
HETATM   16  C   UNK N   1      34.375  10.479  15.368  0.00  0.00     0.013 C 
HETATM   17  C   UNK N   1      34.864  11.931  15.399  0.00  0.00     0.063 C 
HETATM   18  C   UNK N   1      37.279  11.252  15.175  0.00  0.00     0.016 C 
HETATM   19  C   UNK N   1      37.776  12.359  11.487  0.00  0.00     0.016 C 
ENDROOT
BRANCH   3  20
HETATM   20  O   UNK N   1      34.541  14.183   7.258  0.00  0.00    -0.316 OA
BRANCH  20  21
HETATM   21  C   UNK N   1      34.562  15.414   6.678  0.00  0.00     0.259 C 
HETATM   22  O   UNK N   1      35.500  15.720   5.960  0.00  0.00    -0.265 OA
BRANCH  21  23
HETATM   23  C   UNK N   1      33.456  16.410   6.910  0.00  0.00     0.121 C 
BRANCH  23  24
HETATM   24  C   UNK N   1      33.991  17.836   6.936  0.00  0.00     0.119 C 
BRANCH  24  25
HETATM   25  C   UNK N   1      34.425  18.235   8.307  0.00  0.00     0.139 C 
HETATM   26  O   UNK N   1      35.256  19.115   8.458  0.00  0.00    -0.650 OA
BRANCH  25  27
HETATM   27  O   UNK N   1      33.902  17.613   9.380  0.00  0.00    -0.776 OA
HETATM   28  H   UNK N   1      33.925  16.688   9.531  0.00  0.00     0.167 HD
ENDBRANCH  25  27
ENDBRANCH  24  25
ENDBRANCH  23  24
ENDBRANCH  21  23
ENDBRANCH  20  21
ENDBRANCH   3  20
BRANCH  17  29
HETATM   29  C   UNK N   1      35.158  12.433  16.799  0.00  0.00     0.128 C 
HETATM   30  O   UNK N   1      35.315  13.626  17.011  0.00  0.00    -0.298 OA
HETATM   31  C   UNK N   1      35.246  11.475  17.940  0.00  0.00     0.091 C 
ENDBRANCH  17  29
TORSDOF 7
ENDMDL
MODEL 2
REMARK VINA RESULT:      -7.4      2.571      4.863
REMARK  7 active torsions:
REMARK  status: ('A' for Active; 'I' for Inactive)
REMARK    1  A    between atoms: C_3  and  O_4 
REMARK    2  A    between atoms: O_4  and  C_24 
REMARK    3  A    between atoms: C_18  and  C_21 
REMARK    4  A    between atoms: C_24  and  C_26 
REMARK    5  A    between atoms: C_26  and  C_27 
REMARK    6  A    between atoms: C_27  and  C_28 
REMARK    7  A    between atoms: C_28  and  O_30 
ROOT
HETATM    1  C   UNK N   1      35.613  10.523  13.128  0.00  0.00     0.012 C 
HETATM    2  C   UNK N   1      36.695  11.321  12.389  0.00  0.00     0.033 C 
HETATM    3  C   UNK N   1      36.249  12.769  12.188  0.00  0.00     0.132 C 
HETATM    4  C   UNK N   1      35.967  13.394  13.552  0.00  0.00     0.038 C 
HETATM    5  C   UNK N   1      34.871  12.637  14.296  0.00  0.00    -0.004 C 
HETATM    6  C   UNK N   1      34.633  13.336  15.639  0.00  0.00     0.006 C 
HETATM    7  C   UNK N   1      35.883  13.259  16.525  0.00  0.00     0.006 C 
HETATM    8  C   UNK N   1      36.256  11.801  16.826  0.00  0.00    -0.005 C 
HETATM    9  C   UNK N   1      36.452  11.015  15.504  0.00  0.00    -0.002 C 
HETATM   10  C   UNK N   1      35.250  11.140  14.494  0.00  0.00    -0.036 C 
HETATM   11  C   UNK N   1      36.841   9.566  15.845  0.00  0.00     0.006 C 
HETATM   12  C   UNK N   1      35.791   8.874  16.724  0.00  0.00     0.011 C 
HETATM   13  C   UNK N   1      35.458   9.654  18.011  0.00  0.00    -0.030 C 
HETATM   14  C   UNK N   1      35.204  11.149  17.764  0.00  0.00    -0.001 C 
HETATM   15  C   UNK N   1      35.297  11.766  19.162  0.00  0.00     0.006 C 
HETATM   16  C   UNK N   1      36.169  10.816  19.995  0.00  0.00     0.013 C 
HETATM   17  C   UNK N   1      36.574   9.665  19.067  0.00  0.00     0.063 C 
HETATM   18  C   UNK N   1      34.181   9.038  18.598  0.00  0.00     0.016 C 
HETATM   19  C   UNK N   1      34.002  10.398  14.965  0.00  0.00     0.016 C 
ENDROOT
BRANCH   3  20
HETATM   20  O   UNK N   1      37.248  13.480  11.553  0.00  0.00    -0.316 OA
BRANCH  20  21
HETATM   21  C   UNK N   1      37.137  13.980  10.292  0.00  0.00     0.259 C 
HETATM   22  O   UNK N   1      38.095  14.542   9.786  0.00  0.00    -0.265 OA
BRANCH  21  23
HETATM   23  C   UNK N   1      35.855  13.863   9.511  0.00  0.00     0.121 C 
BRANCH  23  24
HETATM   24  C   UNK N   1      35.226  15.228   9.270  0.00  0.00     0.119 C 
BRANCH  24  25
HETATM   25  C   UNK N   1      34.772  15.858  10.544  0.00  0.00     0.139 C 
HETATM   26  O   UNK N   1      35.235  16.929  10.900  0.00  0.00    -0.650 OA
BRANCH  25  27
HETATM   27  O   UNK N   1      33.855  15.235  11.306  0.00  0.00    -0.776 OA
HETATM   28  H   UNK N   1      33.365  14.478  11.050  0.00  0.00     0.167 HD
ENDBRANCH  25  27
ENDBRANCH  24  25
ENDBRANCH  23  24
ENDBRANCH  21  23
ENDBRANCH  20  21
ENDBRANCH   3  20
BRANCH  17  29
HETATM   29  C   UNK N   1      36.755   8.347  19.792  0.00  0.00     0.128 C 
HETATM   30  O   UNK N   1      37.238   7.383  19.219  0.00  0.00    -0.298 OA
HETATM   31  C   UNK N   1      36.356   8.214  21.225  0.00  0.00     0.091 C 
ENDBRANCH  17  29
TORSDOF 7
ENDMDL
MODEL 3
REMARK VINA RESULT:      -7.3      2.282      8.435
REMARK  7 active torsions:
REMARK  status: ('A' for Active; 'I' for Inactive)
REMARK    1  A    between atoms: C_3  and  O_4 
REMARK    2  A    between atoms: O_4  and  C_24 
REMARK    3  A    between atoms: C_18  and  C_21 
REMARK    4  A    between atoms: C_24  and  C_26 
REMARK    5  A    between atoms: C_26  and  C_27 
REMARK    6  A    between atoms: C_27  and  C_28 
REMARK    7  A    between atoms: C_28  and  O_30 
ROOT
HETATM    1  C   UNK N   1      35.315  12.123  10.582  0.00  0.00     0.012 C 
HETATM    2  C   UNK N   1      34.855  11.998  12.041  0.00  0.00     0.033 C 
HETATM    3  C   UNK N   1      35.846  12.688  12.976  0.00  0.00     0.132 C 
HETATM    4  C   UNK N   1      35.961  14.157  12.580  0.00  0.00     0.038 C 
HETATM    5  C   UNK N   1      36.448  14.311  11.142  0.00  0.00    -0.004 C 
HETATM    6  C   UNK N   1      36.558  15.807  10.830  0.00  0.00     0.006 C 
HETATM    7  C   UNK N   1      35.181  16.480  10.888  0.00  0.00     0.006 C 
HETATM    8  C   UNK N   1      34.222  15.866   9.859  0.00  0.00    -0.005 C 
HETATM    9  C   UNK N   1      34.112  14.335  10.079  0.00  0.00    -0.002 C 
HETATM   10  C   UNK N   1      35.499  13.589  10.142  0.00  0.00    -0.036 C 
HETATM   11  C   UNK N   1      33.132  13.757   9.042  0.00  0.00     0.006 C 
HETATM   12  C   UNK N   1      33.567  14.058   7.602  0.00  0.00     0.011 C 
HETATM   13  C   UNK N   1      33.806  15.556   7.333  0.00  0.00    -0.030 C 
HETATM   14  C   UNK N   1      34.658  16.237   8.416  0.00  0.00    -0.001 C 
HETATM   15  C   UNK N   1      34.427  17.730   8.169  0.00  0.00     0.006 C 
HETATM   16  C   UNK N   1      33.073  17.845   7.456  0.00  0.00     0.013 C 
HETATM   17  C   UNK N   1      32.534  16.418   7.305  0.00  0.00     0.063 C 
HETATM   18  C   UNK N   1      34.549  15.665   5.995  0.00  0.00     0.016 C 
HETATM   19  C   UNK N   1      36.199  13.531   8.787  0.00  0.00     0.016 C 
ENDROOT
BRANCH   3  20
HETATM   20  O   UNK N   1      35.398  12.596  14.280  0.00  0.00    -0.316 OA
BRANCH  20  21
HETATM   21  C   UNK N   1      36.125  12.052  15.293  0.00  0.00     0.259 C 
HETATM   22  O   UNK N   1      37.214  11.557  15.048  0.00  0.00    -0.265 OA
BRANCH  21  23
HETATM   23  C   UNK N   1      35.613  12.041  16.709  0.00  0.00     0.121 C 
BRANCH  23  24
HETATM   24  C   UNK N   1      34.816  13.300  17.021  0.00  0.00     0.119 C 
BRANCH  24  25
HETATM   25  C   UNK N   1      35.297  13.960  18.269  0.00  0.00     0.139 C 
HETATM   26  O   UNK N   1      35.069  13.459  19.358  0.00  0.00    -0.650 OA
BRANCH  25  27
HETATM   27  O   UNK N   1      35.978  15.119  18.192  0.00  0.00    -0.776 OA
HETATM   28  H   UNK N   1      35.610  15.970  18.326  0.00  0.00     0.167 HD
ENDBRANCH  25  27
ENDBRANCH  24  25
ENDBRANCH  23  24
ENDBRANCH  21  23
ENDBRANCH  20  21
ENDBRANCH   3  20
BRANCH  17  29
HETATM   29  C   UNK N   1      31.684  16.228   6.064  0.00  0.00     0.128 C 
HETATM   30  O   UNK N   1      31.020  15.214   5.916  0.00  0.00    -0.298 OA
HETATM   31  C   UNK N   1      31.637  17.287   5.014  0.00  0.00     0.091 C 
ENDBRANCH  17  29
TORSDOF 7
ENDMDL
MODEL 4
REMARK VINA RESULT:      -7.0     20.616     23.315
REMARK  7 active torsions:
REMARK  status: ('A' for Active; 'I' for Inactive)
REMARK    1  A    between atoms: C_3  and  O_4 
REMARK    2  A    between atoms: O_4  and  C_24 
REMARK    3  A    between atoms: C_18  and  C_21 
REMARK    4  A    between atoms: C_24  and  C_26 
REMARK    5  A    between atoms: C_26  and  C_27 
REMARK    6  A    between atoms: C_27  and  C_28 
REMARK    7  A    between atoms: C_28  and  O_30 
ROOT
HETATM    1  C   UNK N   1      25.278  26.280  -5.217  0.00  0.00     0.012 C 
HETATM    2  C   UNK N   1      26.056  27.596  -5.089  0.00  0.00     0.033 C 
HETATM    3  C   UNK N   1      27.026  27.532  -3.911  0.00  0.00     0.132 C 
HETATM    4  C   UNK N   1      27.988  26.365  -4.123  0.00  0.00     0.038 C 
HETATM    5  C   UNK N   1      27.241  25.039  -4.222  0.00  0.00    -0.004 C 
HETATM    6  C   UNK N   1      28.271  23.921  -4.412  0.00  0.00     0.006 C 
HETATM    7  C   UNK N   1      29.022  24.088  -5.739  0.00  0.00     0.006 C 
HETATM    8  C   UNK N   1      28.056  24.028  -6.930  0.00  0.00    -0.005 C 
HETATM    9  C   UNK N   1      26.945  25.098  -6.771  0.00  0.00    -0.002 C 
HETATM   10  C   UNK N   1      26.203  25.057  -5.381  0.00  0.00    -0.036 C 
HETATM   11  C   UNK N   1      26.007  25.019  -7.988  0.00  0.00     0.006 C 
HETATM   12  C   UNK N   1      25.385  23.626  -8.154  0.00  0.00     0.011 C 
HETATM   13  C   UNK N   1      26.427  22.492  -8.209  0.00  0.00    -0.030 C 
HETATM   14  C   UNK N   1      27.490  22.593  -7.104  0.00  0.00    -0.001 C 
HETATM   15  C   UNK N   1      28.597  21.650  -7.582  0.00  0.00     0.006 C 
HETATM   16  C   UNK N   1      28.453  21.556  -9.108  0.00  0.00     0.013 C 
HETATM   17  C   UNK N   1      27.269  22.449  -9.493  0.00  0.00     0.063 C 
HETATM   18  C   UNK N   1      25.668  21.170  -8.029  0.00  0.00     0.016 C 
HETATM   19  C   UNK N   1      25.303  23.834  -5.228  0.00  0.00     0.016 C 
ENDROOT
BRANCH   3  20
HETATM   20  O   UNK N   1      27.743  28.711  -3.833  0.00  0.00    -0.316 OA
BRANCH  20  21
HETATM   21  C   UNK N   1      27.603  29.616  -2.827  0.00  0.00     0.259 C 
HETATM   22  O   UNK N   1      26.676  30.409  -2.861  0.00  0.00    -0.265 OA
BRANCH  21  23
HETATM   23  C   UNK N   1      28.572  29.666  -1.675  0.00  0.00     0.121 C 
BRANCH  23  24
HETATM   24  C   UNK N   1      28.194  30.754  -0.679  0.00  0.00     0.119 C 
BRANCH  24  25
HETATM   25  C   UNK N   1      28.201  30.242   0.723  0.00  0.00     0.139 C 
HETATM   26  O   UNK N   1      28.900  30.774   1.569  0.00  0.00    -0.650 OA
BRANCH  25  27
HETATM   27  O   UNK N   1      27.438  29.183   1.050  0.00  0.00    -0.776 OA
HETATM   28  H   UNK N   1      27.342  28.408   0.532  0.00  0.00     0.167 HD
ENDBRANCH  25  27
ENDBRANCH  24  25
ENDBRANCH  23  24
ENDBRANCH  21  23
ENDBRANCH  20  21
ENDBRANCH   3  20
BRANCH  17  29
HETATM   29  C   UNK N   1      26.517  21.954 -10.712  0.00  0.00     0.128 C 
HETATM   30  O   UNK N   1      25.569  22.584 -11.156  0.00  0.00    -0.298 OA
HETATM   31  C   UNK N   1      26.935  20.694 -11.394  0.00  0.00     0.091 C 
ENDBRANCH  17  29
TORSDOF 7
ENDMDL
MODEL 5
REMARK VINA RESULT:      -6.9      3.762      9.184
REMARK  7 active torsions:
REMARK  status: ('A' for Active; 'I' for Inactive)
REMARK    1  A    between atoms: C_3  and  O_4 
REMARK    2  A    between atoms: O_4  and  C_24 
REMARK    3  A    between atoms: C_18  and  C_21 
REMARK    4  A    between atoms: C_24  and  C_26 
REMARK    5  A    between atoms: C_26  and  C_27 
REMARK    6  A    between atoms: C_27  and  C_28 
REMARK    7  A    between atoms: C_28  and  O_30 
ROOT
HETATM    1  C   UNK N   1      34.048  15.465   5.087  0.00  0.00     0.012 C 
HETATM    2  C   UNK N   1      34.773  14.467   5.999  0.00  0.00     0.033 C 
HETATM    3  C   UNK N   1      35.577  15.205   7.069  0.00  0.00     0.132 C 
HETATM    4  C   UNK N   1      34.629  16.078   7.886  0.00  0.00     0.038 C 
HETATM    5  C   UNK N   1      33.918  17.103   7.007  0.00  0.00    -0.004 C 
HETATM    6  C   UNK N   1      33.006  17.951   7.900  0.00  0.00     0.006 C 
HETATM    7  C   UNK N   1      31.904  17.090   8.531  0.00  0.00     0.006 C 
HETATM    8  C   UNK N   1      31.021  16.448   7.452  0.00  0.00    -0.005 C 
HETATM    9  C   UNK N   1      31.892  15.621   6.471  0.00  0.00    -0.002 C 
HETATM   10  C   UNK N   1      33.114  16.411   5.868  0.00  0.00    -0.036 C 
HETATM   11  C   UNK N   1      30.972  14.980   5.416  0.00  0.00     0.006 C 
HETATM   12  C   UNK N   1      30.152  16.025   4.648  0.00  0.00     0.011 C 
HETATM   13  C   UNK N   1      29.342  16.963   5.563  0.00  0.00    -0.030 C 
HETATM   14  C   UNK N   1      30.163  17.525   6.734  0.00  0.00    -0.001 C 
HETATM   15  C   UNK N   1      29.100  18.068   7.692  0.00  0.00     0.006 C 
HETATM   16  C   UNK N   1      27.811  17.290   7.391  0.00  0.00     0.013 C 
HETATM   17  C   UNK N   1      28.147  16.302   6.269  0.00  0.00     0.063 C 
HETATM   18  C   UNK N   1      28.863  18.138   4.701  0.00  0.00     0.016 C 
HETATM   19  C   UNK N   1      32.687  17.487   4.873  0.00  0.00     0.016 C 
ENDROOT
BRANCH   3  20
HETATM   20  O   UNK N   1      36.193  14.291   7.901  0.00  0.00    -0.316 OA
BRANCH  20  21
HETATM   21  C   UNK N   1      35.870  14.123   9.212  0.00  0.00     0.259 C 
HETATM   22  O   UNK N   1      34.911  13.427   9.507  0.00  0.00    -0.265 OA
BRANCH  21  23
HETATM   23  C   UNK N   1      36.664  14.785  10.308  0.00  0.00     0.121 C 
BRANCH  23  24
HETATM   24  C   UNK N   1      35.752  15.379  11.372  0.00  0.00     0.119 C 
BRANCH  24  25
HETATM   25  C   UNK N   1      35.774  14.573  12.627  0.00  0.00     0.139 C 
HETATM   26  O   UNK N   1      34.880  13.779  12.865  0.00  0.00    -0.650 OA
BRANCH  25  27
HETATM   27  O   UNK N   1      36.783  14.733  13.504  0.00  0.00    -0.776 OA
HETATM   28  H   UNK N   1      37.014  15.540  13.919  0.00  0.00     0.167 HD
ENDBRANCH  25  27
ENDBRANCH  24  25
ENDBRANCH  23  24
ENDBRANCH  21  23
ENDBRANCH  20  21
ENDBRANCH   3  20
BRANCH  17  29
HETATM   29  C   UNK N   1      26.972  16.012   5.356  0.00  0.00     0.128 C 
HETATM   30  O   UNK N   1      26.002  16.755   5.335  0.00  0.00    -0.298 OA
HETATM   31  C   UNK N   1      26.991  14.818   4.460  0.00  0.00     0.091 C 
ENDBRANCH  17  29
TORSDOF 7
ENDMDL
MODEL 6
REMARK VINA RESULT:      -6.9      9.032     13.563
REMARK  7 active torsions:
REMARK  status: ('A' for Active; 'I' for Inactive)
REMARK    1  A    between atoms: C_3  and  O_4 
REMARK    2  A    between atoms: O_4  and  C_24 
REMARK    3  A    between atoms: C_18  and  C_21 
REMARK    4  A    between atoms: C_24  and  C_26 
REMARK    5  A    between atoms: C_26  and  C_27 
REMARK    6  A    between atoms: C_27  and  C_28 
REMARK    7  A    between atoms: C_28  and  O_30 
ROOT
HETATM    1  C   UNK N   1      27.451  15.588   4.755  0.00  0.00     0.012 C 
HETATM    2  C   UNK N   1      28.307  16.161   5.893  0.00  0.00     0.033 C 
HETATM    3  C   UNK N   1      28.982  17.459   5.453  0.00  0.00     0.132 C 
HETATM    4  C   UNK N   1      27.908  18.461   5.040  0.00  0.00     0.038 C 
HETATM    5  C   UNK N   1      27.062  17.929   3.887  0.00  0.00    -0.004 C 
HETATM    6  C   UNK N   1      26.027  18.997   3.519  0.00  0.00     0.006 C 
HETATM    7  C   UNK N   1      25.058  19.243   4.682  0.00  0.00     0.006 C 
HETATM    8  C   UNK N   1      24.289  17.964   5.040  0.00  0.00    -0.005 C 
HETATM    9  C   UNK N   1      25.282  16.818   5.365  0.00  0.00    -0.002 C 
HETATM   10  C   UNK N   1      26.380  16.581   4.261  0.00  0.00    -0.036 C 
HETATM   11  C   UNK N   1      24.478  15.559   5.735  0.00  0.00     0.006 C 
HETATM   12  C   UNK N   1      23.520  15.132   4.615  0.00  0.00     0.011 C 
HETATM   13  C   UNK N   1      22.571  16.256   4.157  0.00  0.00    -0.030 C 
HETATM   14  C   UNK N   1      23.289  17.592   3.912  0.00  0.00    -0.001 C 
HETATM   15  C   UNK N   1      22.148  18.612   3.870  0.00  0.00     0.006 C 
HETATM   16  C   UNK N   1      20.991  17.997   4.670  0.00  0.00     0.013 C 
HETATM   17  C   UNK N   1      21.480  16.633   5.170  0.00  0.00     0.063 C 
HETATM   18  C   UNK N   1      21.933  15.802   2.837  0.00  0.00     0.016 C 
HETATM   19  C   UNK N   1      25.810  15.972   2.982  0.00  0.00     0.016 C 
ENDROOT
BRANCH   3  20
HETATM   20  O   UNK N   1      29.719  17.978   6.500  0.00  0.00    -0.316 OA
BRANCH  20  21
HETATM   21  C   UNK N   1      30.620  17.258   7.222  0.00  0.00     0.259 C 
HETATM   22  O   UNK N   1      31.567  16.741   6.651  0.00  0.00    -0.265 OA
BRANCH  21  23
HETATM   23  C   UNK N   1      30.469  17.076   8.709  0.00  0.00     0.121 C 
BRANCH  23  24
HETATM   24  C   UNK N   1      29.700  18.233   9.334  0.00  0.00     0.119 C 
BRANCH  24  25
HETATM   25  C   UNK N   1      28.226  18.055   9.188  0.00  0.00     0.139 C 
HETATM   26  O   UNK N   1      27.678  17.061   9.635  0.00  0.00    -0.650 OA
BRANCH  25  27
HETATM   27  O   UNK N   1      27.501  18.994   8.553  0.00  0.00    -0.776 OA
HETATM   28  H   UNK N   1      26.569  19.076   8.596  0.00  0.00     0.167 HD
ENDBRANCH  25  27
ENDBRANCH  24  25
ENDBRANCH  23  24
ENDBRANCH  21  23
ENDBRANCH  20  21
ENDBRANCH   3  20
BRANCH  17  29
HETATM   29  C   UNK N   1      20.369  15.609   5.296  0.00  0.00     0.128 C 
HETATM   30  O   UNK N   1      20.576  14.531   5.831  0.00  0.00    -0.298 OA
HETATM   31  C   UNK N   1      19.002  15.913   4.779  0.00  0.00     0.091 C 
ENDBRANCH  17  29
TORSDOF 7
ENDMDL
MODEL 7
REMARK VINA RESULT:      -6.9      8.378     12.301
REMARK  7 active torsions:
REMARK  status: ('A' for Active; 'I' for Inactive)
REMARK    1  A    between atoms: C_3  and  O_4 
REMARK    2  A    between atoms: O_4  and  C_24 
REMARK    3  A    between atoms: C_18  and  C_21 
REMARK    4  A    between atoms: C_24  and  C_26 
REMARK    5  A    between atoms: C_26  and  C_27 
REMARK    6  A    between atoms: C_27  and  C_28 
REMARK    7  A    between atoms: C_28  and  O_30 
ROOT
HETATM    1  C   UNK N   1      26.414  15.420   3.287  0.00  0.00     0.012 C 
HETATM    2  C   UNK N   1      25.500  16.605   2.947  0.00  0.00     0.033 C 
HETATM    3  C   UNK N   1      24.517  16.868   4.087  0.00  0.00     0.132 C 
HETATM    4  C   UNK N   1      25.305  17.154   5.363  0.00  0.00     0.038 C 
HETATM    5  C   UNK N   1      26.199  15.977   5.742  0.00  0.00    -0.004 C 
HETATM    6  C   UNK N   1      26.935  16.333   7.038  0.00  0.00     0.006 C 
HETATM    7  C   UNK N   1      27.870  17.529   6.826  0.00  0.00     0.006 C 
HETATM    8  C   UNK N   1      28.935  17.216   5.765  0.00  0.00    -0.005 C 
HETATM    9  C   UNK N   1      28.256  16.787   4.439  0.00  0.00    -0.002 C 
HETATM   10  C   UNK N   1      27.196  15.632   4.598  0.00  0.00    -0.036 C 
HETATM   11  C   UNK N   1      29.351  16.498   3.396  0.00  0.00     0.006 C 
HETATM   12  C   UNK N   1      30.331  15.415   3.868  0.00  0.00     0.011 C 
HETATM   13  C   UNK N   1      30.966  15.716   5.239  0.00  0.00    -0.030 C 
HETATM   14  C   UNK N   1      29.942  16.160   6.296  0.00  0.00    -0.001 C 
HETATM   15  C   UNK N   1      30.807  16.773   7.400  0.00  0.00     0.006 C 
HETATM   16  C   UNK N   1      32.111  17.222   6.727  0.00  0.00     0.013 C 
HETATM   17  C   UNK N   1      31.982  16.869   5.241  0.00  0.00     0.063 C 
HETATM   18  C   UNK N   1      31.632  14.423   5.726  0.00  0.00     0.016 C 
HETATM   19  C   UNK N   1      27.836  14.285   4.922  0.00  0.00     0.016 C 
ENDROOT
BRANCH   3  20
HETATM   20  O   UNK N   1      23.727  17.958   3.778  0.00  0.00    -0.316 OA
BRANCH  20  21
HETATM   21  C   UNK N   1      22.371  17.908   3.687  0.00  0.00     0.259 C 
HETATM   22  O   UNK N   1      21.841  16.922   3.200  0.00  0.00    -0.265 OA
BRANCH  21  23
HETATM   23  C   UNK N   1      21.508  19.046   4.166  0.00  0.00     0.121 C 
BRANCH  23  24
HETATM   24  C   UNK N   1      20.659  19.612   3.035  0.00  0.00     0.119 C 
BRANCH  24  25
HETATM   25  C   UNK N   1      21.420  20.602   2.219  0.00  0.00     0.139 C 
HETATM   26  O   UNK N   1      21.559  20.434   1.019  0.00  0.00    -0.650 OA
BRANCH  25  27
HETATM   27  O   UNK N   1      21.962  21.681   2.814  0.00  0.00    -0.776 OA
HETATM   28  H   UNK N   1      21.692  22.035   3.638  0.00  0.00     0.167 HD
ENDBRANCH  25  27
ENDBRANCH  24  25
ENDBRANCH  23  24
ENDBRANCH  21  23
ENDBRANCH  20  21
ENDBRANCH   3  20
BRANCH  17  29
HETATM   29  C   UNK N   1      33.307  16.528   4.590  0.00  0.00     0.128 C 
HETATM   30  O   UNK N   1      34.325  16.443   5.259  0.00  0.00    -0.298 OA
HETATM   31  C   UNK N   1      33.382  16.277   3.120  0.00  0.00     0.091 C 
ENDBRANCH  17  29
TORSDOF 7
ENDMDL
MODEL 8
REMARK VINA RESULT:      -6.9      9.227     12.931
REMARK  7 active torsions:
REMARK  status: ('A' for Active; 'I' for Inactive)
REMARK    1  A    between atoms: C_3  and  O_4 
REMARK    2  A    between atoms: O_4  and  C_24 
REMARK    3  A    between atoms: C_18  and  C_21 
REMARK    4  A    between atoms: C_24  and  C_26 
REMARK    5  A    between atoms: C_26  and  C_27 
REMARK    6  A    between atoms: C_27  and  C_28 
REMARK    7  A    between atoms: C_28  and  O_30 
ROOT
HETATM    1  C   UNK N   1      25.347  19.067   4.627  0.00  0.00     0.012 C 
HETATM    2  C   UNK N   1      23.990  18.525   5.096  0.00  0.00     0.033 C 
HETATM    3  C   UNK N   1      23.330  17.705   3.989  0.00  0.00     0.132 C 
HETATM    4  C   UNK N   1      24.257  16.554   3.606  0.00  0.00     0.038 C 
HETATM    5  C   UNK N   1      25.604  17.067   3.105  0.00  0.00    -0.004 C 
HETATM    6  C   UNK N   1      26.465  15.858   2.721  0.00  0.00     0.006 C 
HETATM    7  C   UNK N   1      26.767  14.991   3.949  0.00  0.00     0.006 C 
HETATM    8  C   UNK N   1      27.541  15.786   5.010  0.00  0.00    -0.005 C 
HETATM    9  C   UNK N   1      26.752  17.062   5.401  0.00  0.00    -0.002 C 
HETATM   10  C   UNK N   1      26.309  17.949   4.176  0.00  0.00    -0.036 C 
HETATM   11  C   UNK N   1      27.548  17.824   6.475  0.00  0.00     0.006 C 
HETATM   12  C   UNK N   1      28.958  18.195   5.999  0.00  0.00     0.011 C 
HETATM   13  C   UNK N   1      29.771  16.990   5.488  0.00  0.00    -0.030 C 
HETATM   14  C   UNK N   1      28.981  16.095   4.519  0.00  0.00    -0.001 C 
HETATM   15  C   UNK N   1      29.804  14.805   4.470  0.00  0.00     0.006 C 
HETATM   16  C   UNK N   1      30.597  14.749   5.783  0.00  0.00     0.013 C 
HETATM   17  C   UNK N   1      30.219  16.004   6.577  0.00  0.00     0.063 C 
HETATM   18  C   UNK N   1      30.991  17.548   4.743  0.00  0.00     0.016 C 
HETATM   19  C   UNK N   1      27.482  18.657   3.505  0.00  0.00     0.016 C 
ENDROOT
BRANCH   3  20
HETATM   20  O   UNK N   1      22.128  17.196   4.441  0.00  0.00    -0.316 OA
BRANCH  20  21
HETATM   21  C   UNK N   1      20.913  17.615   3.992  0.00  0.00     0.259 C 
HETATM   22  O   UNK N   1      20.020  16.798   3.834  0.00  0.00    -0.265 OA
BRANCH  21  23
HETATM   23  C   UNK N   1      20.649  19.065   3.679  0.00  0.00     0.121 C 
BRANCH  23  24
HETATM   24  C   UNK N   1      20.457  19.283   2.184  0.00  0.00     0.119 C 
BRANCH  24  25
HETATM   25  C   UNK N   1      21.147  20.519   1.716  0.00  0.00     0.139 C 
HETATM   26  O   UNK N   1      21.359  20.694   0.527  0.00  0.00    -0.650 OA
BRANCH  25  27
HETATM   27  O   UNK N   1      21.544  21.441   2.612  0.00  0.00    -0.776 OA
HETATM   28  H   UNK N   1      22.080  22.185   2.419  0.00  0.00     0.167 HD
ENDBRANCH  25  27
ENDBRANCH  24  25
ENDBRANCH  23  24
ENDBRANCH  21  23
ENDBRANCH  20  21
ENDBRANCH   3  20
BRANCH  17  29
HETATM   29  C   UNK N   1      31.344  16.519   7.454  0.00  0.00     0.128 C 
HETATM   30  O   UNK N   1      32.490  16.131   7.286  0.00  0.00    -0.298 OA
HETATM   31  C   UNK N   1      31.066  17.519   8.526  0.00  0.00     0.091 C 
ENDBRANCH  17  29
TORSDOF 7
ENDMDL
MODEL 9
REMARK VINA RESULT:      -6.9      3.887      6.348
REMARK  7 active torsions:
REMARK  status: ('A' for Active; 'I' for Inactive)
REMARK    1  A    between atoms: C_3  and  O_4 
REMARK    2  A    between atoms: O_4  and  C_24 
REMARK    3  A    between atoms: C_18  and  C_21 
REMARK    4  A    between atoms: C_24  and  C_26 
REMARK    5  A    between atoms: C_26  and  C_27 
REMARK    6  A    between atoms: C_27  and  C_28 
REMARK    7  A    between atoms: C_28  and  O_30 
ROOT
HETATM    1  C   UNK N   1      31.401  17.566   8.228  0.00  0.00     0.012 C 
HETATM    2  C   UNK N   1      30.171  17.062   7.461  0.00  0.00     0.033 C 
HETATM    3  C   UNK N   1      30.381  17.209   5.955  0.00  0.00     0.132 C 
HETATM    4  C   UNK N   1      31.621  16.416   5.549  0.00  0.00     0.038 C 
HETATM    5  C   UNK N   1      32.866  16.919   6.273  0.00  0.00    -0.004 C 
HETATM    6  C   UNK N   1      34.065  16.092   5.797  0.00  0.00     0.006 C 
HETATM    7  C   UNK N   1      33.905  14.619   6.194  0.00  0.00     0.006 C 
HETATM    8  C   UNK N   1      33.818  14.464   7.718  0.00  0.00    -0.005 C 
HETATM    9  C   UNK N   1      32.659  15.329   8.277  0.00  0.00    -0.002 C 
HETATM   10  C   UNK N   1      32.696  16.835   7.818  0.00  0.00    -0.036 C 
HETATM   11  C   UNK N   1      32.592  15.136   9.803  0.00  0.00     0.006 C 
HETATM   12  C   UNK N   1      33.911  15.505  10.494  0.00  0.00     0.011 C 
HETATM   13  C   UNK N   1      35.134  14.767   9.916  0.00  0.00    -0.030 C 
HETATM   14  C   UNK N   1      35.185  14.790   8.380  0.00  0.00    -0.001 C 
HETATM   15  C   UNK N   1      36.203  13.699   8.038  0.00  0.00     0.006 C 
HETATM   16  C   UNK N   1      36.211  12.728   9.227  0.00  0.00     0.013 C 
HETATM   17  C   UNK N   1      35.194  13.265  10.239  0.00  0.00     0.063 C 
HETATM   18  C   UNK N   1      36.386  15.473  10.451  0.00  0.00     0.016 C 
HETATM   19  C   UNK N   1      33.836  17.621   8.461  0.00  0.00     0.016 C 
ENDROOT
BRANCH   3  20
HETATM   20  O   UNK N   1      29.280  16.718   5.282  0.00  0.00    -0.316 OA
BRANCH  20  21
HETATM   21  C   UNK N   1      28.828  17.223   4.102  0.00  0.00     0.259 C 
HETATM   22  O   UNK N   1      29.355  16.869   3.059  0.00  0.00    -0.265 OA
BRANCH  21  23
HETATM   23  C   UNK N   1      27.696  18.216   4.055  0.00  0.00     0.121 C 
BRANCH  23  24
HETATM   24  C   UNK N   1      28.118  19.564   4.622  0.00  0.00     0.119 C 
BRANCH  24  25
HETATM   25  C   UNK N   1      27.612  19.758   6.012  0.00  0.00     0.139 C 
HETATM   26  O   UNK N   1      27.599  20.871   6.513  0.00  0.00    -0.650 OA
BRANCH  25  27
HETATM   27  O   UNK N   1      27.177  18.698   6.718  0.00  0.00    -0.776 OA
HETATM   28  H   UNK N   1      26.547  18.073   6.418  0.00  0.00     0.167 HD
ENDBRANCH  25  27
ENDBRANCH  24  25
ENDBRANCH  23  24
ENDBRANCH  21  23
ENDBRANCH  20  21
ENDBRANCH   3  20
BRANCH  17  29
HETATM   29  C   UNK N   1      35.559  12.954  11.677  0.00  0.00     0.128 C 
HETATM   30  O   UNK N   1      34.778  13.201  12.583  0.00  0.00    -0.298 OA
HETATM   31  C   UNK N   1      36.875  12.329  12.001  0.00  0.00     0.091 C 
ENDBRANCH  17  29
TORSDOF 7
ENDMDL
