REMARK  7 active torsions:
REMARK  status: ('A' for Active; 'I' for Inactive)
REMARK    1  A    between atoms: C_3  and  O_4 
REMARK    2  A    between atoms: O_4  and  C_24 
REMARK    3  A    between atoms: C_18  and  C_21 
REMARK    4  A    between atoms: C_24  and  C_26 
REMARK    5  A    between atoms: C_26  and  C_27 
REMARK    6  A    between atoms: C_27  and  C_28 
REMARK    7  A    between atoms: C_28  and  O_30 
ROOT
HETATM    1  C   UNK N   1       0.029  -2.280  -0.344  0.00  0.00     0.012 C 
HETATM    2  C   UNK N   1       1.074  -2.410   0.772  0.00  0.00     0.033 C 
HETATM    3  C   UNK N   1       2.408  -1.812   0.329  0.00  0.00     0.132 C 
HETATM    4  C   UNK N   1       2.197  -0.344  -0.032  0.00  0.00     0.038 C 
HETATM    5  C   UNK N   1       1.185  -0.188  -1.163  0.00  0.00    -0.004 C 
HETATM    6  C   UNK N   1       1.046   1.305  -1.480  0.00  0.00     0.006 C 
HETATM    7  C   UNK N   1       0.468   2.067  -0.281  0.00  0.00     0.006 C 
HETATM    8  C   UNK N   1      -0.928   1.544   0.084  0.00  0.00    -0.005 C 
HETATM    9  C   UNK N   1      -0.872   0.019   0.358  0.00  0.00    -0.002 C 
HETATM   10  C   UNK N   1      -0.187  -0.819  -0.787  0.00  0.00    -0.036 C 
HETATM   11  C   UNK N   1      -2.283  -0.466   0.736  0.00  0.00     0.006 C 
HETATM   12  C   UNK N   1      -3.315  -0.159  -0.357  0.00  0.00     0.011 C 
HETATM   13  C   UNK N   1      -3.353   1.326  -0.766  0.00  0.00    -0.030 C 
HETATM   14  C   UNK N   1      -1.958   1.921  -1.015  0.00  0.00    -0.001 C 
HETATM   15  C   UNK N   1      -2.204   3.432  -1.003  0.00  0.00     0.006 C 
HETATM   16  C   UNK N   1      -3.476   3.655  -0.173  0.00  0.00     0.013 C 
HETATM   17  C   UNK N   1      -3.946   2.272   0.290  0.00  0.00     0.063 C 
HETATM   18  C   UNK N   1      -4.157   1.418  -2.070  0.00  0.00     0.016 C 
HETATM   19  C   UNK N   1      -1.035  -0.891  -2.054  0.00  0.00     0.016 C 
ENDROOT
BRANCH   3  20
HETATM   20  O   UNK N   1       3.325  -1.906   1.358  0.00  0.00    -0.316 OA
BRANCH  20  21
HETATM   21  C   UNK N   1       4.622  -1.508   1.254  0.00  0.00     0.259 C 
HETATM   22  O   UNK N   1       5.355  -1.600   2.226  0.00  0.00    -0.265 OA
BRANCH  21  23
HETATM   23  C   UNK N   1       5.171  -0.948  -0.032  0.00  0.00     0.121 C 
BRANCH  23  24
HETATM   24  C   UNK N   1       6.038  -1.969  -0.756  0.00  0.00     0.119 C 
BRANCH  24  25
HETATM   25  C   UNK N   1       7.353  -2.154  -0.076  0.00  0.00     0.139 C 
HETATM   26  O   UNK N   1       8.142  -1.227   0.001  0.00  0.00    -0.650 OA
BRANCH  25  27
HETATM   27  O   UNK N   1       7.671  -3.353   0.446  0.00  0.00    -0.776 OA
HETATM   28  H   UNK N   1       7.059  -3.962   0.810  0.00  0.00     0.167 HD
ENDBRANCH  25  27
ENDBRANCH  24  25
ENDBRANCH  23  24
ENDBRANCH  21  23
ENDBRANCH  20  21
ENDBRANCH   3  20
BRANCH  17  29
HETATM   29  C   UNK N   1      -5.451   2.170   0.438  0.00  0.00     0.128 C 
HETATM   30  O   UNK N   1      -6.167   3.126   0.182  0.00  0.00    -0.298 OA
HETATM   31  C   UNK N   1      -6.079   0.892   0.886  0.00  0.00     0.091 C 
ENDBRANCH  17  29
TORSDOF 7
