MODEL 1
REMARK VINA RESULT:      -6.9      0.000      0.000
REMARK  0 active torsions:
REMARK  status: ('A' for Active; 'I' for Inactive)
REMARK       I    between atoms: C_1  and  N_2 
ROOT
HETATM    1  C   UNK N   1      32.680  17.117   7.173  0.00  0.00     0.679 A 
HETATM    2  N   UNK N   1      31.758  17.172   6.111  0.00  0.00    -0.234 N 
HETATM    3  N   UNK N   1      32.683  16.044   8.006  0.00  0.00    -0.191 N 
ATOM      4  HN  UNK N   1      32.016  15.288   7.854  1.00  0.00     0.184 HD
HETATM    5  C   UNK N   1      33.560  15.964   9.037  0.00  0.00     0.067 A 
HETATM    6  C   UNK N   1      33.541  14.842   9.884  0.00  0.00     0.063 A 
HETATM    7  C   UNK N   1      34.462  14.813  10.923  0.00  0.00     0.062 A 
HETATM    8  N   UNK N   1      34.628  13.857  11.846  0.00  0.00    -0.344 N 
ATOM      9  HN  UNK N   1      34.110  12.985  11.950  1.00  0.00     0.167 HD
HETATM   10  C   UNK N   1      35.647  14.324  12.611  0.00  0.00     0.078 A 
HETATM   11  C   UNK N   1      36.192  13.590  13.781  0.00  0.00     0.089 C 
HETATM   12  N   UNK N   1      36.117  15.527  12.198  0.00  0.00    -0.344 N 
HETATM   13  C   UNK N   1      35.357  15.817  11.134  0.00  0.00     0.061 A 
HETATM   14  C   UNK N   1      35.414  16.944  10.324  0.00  0.00     0.051 A 
HETATM   15  C   UNK N   1      34.496  17.017   9.254  0.00  0.00     0.062 A 
HETATM   16  C   UNK N   1      34.472  18.110   8.382  0.00  0.00     0.272 A 
HETATM   17  O   UNK N   1      35.251  19.038   8.523  0.00  0.00    -0.267 OA
HETATM   18  N   UNK N   1      33.563  18.135   7.358  0.00  0.00    -0.156 N 
HETATM   19  H   UNK N   1      31.119  16.436   5.975  0.00  0.00     0.174 HD
HETATM   20  H   UNK N   1      31.752  17.948   5.504  0.00  0.00     0.174 HD
HETATM   21  H   UNK N   1      36.846  16.062  12.588  0.00  0.00     0.167 HD
HETATM   22  H   UNK N   1      33.547  18.905   6.744  0.00  0.00     0.187 HD
ENDROOT
TORSDOF 0
ENDMDL
MODEL 2
REMARK VINA RESULT:      -6.2      2.506      6.115
REMARK  0 active torsions:
REMARK  status: ('A' for Active; 'I' for Inactive)
REMARK       I    between atoms: C_1  and  N_2 
ROOT
HETATM    1  C   UNK N   1      36.474  13.818  13.847  0.00  0.00     0.679 A 
HETATM    2  N   UNK N   1      37.180  13.725  15.061  0.00  0.00    -0.234 N 
HETATM    3  N   UNK N   1      36.408  15.009  13.197  0.00  0.00    -0.191 N 
ATOM      4  HN  UNK N   1      36.871  15.825  13.595  1.00  0.00     0.184 HD
HETATM    5  C   UNK N   1      35.735  15.128  12.026  0.00  0.00     0.067 A 
HETATM    6  C   UNK N   1      35.682  16.372  11.374  0.00  0.00     0.063 A 
HETATM    7  C   UNK N   1      34.979  16.435  10.178  0.00  0.00     0.062 A 
HETATM    8  N   UNK N   1      34.796  17.502   9.390  0.00  0.00    -0.344 N 
ATOM      9  HN  UNK N   1      35.138  18.453   9.526  1.00  0.00     0.167 HD
HETATM   10  C   UNK N   1      34.047  17.019   8.367  0.00  0.00     0.078 A 
HETATM   11  C   UNK N   1      33.588  17.852   7.226  0.00  0.00     0.089 C 
HETATM   12  N   UNK N   1      33.761  15.699   8.491  0.00  0.00    -0.344 N 
HETATM   13  C   UNK N   1      34.357  15.351   9.639  0.00  0.00     0.061 A 
HETATM   14  C   UNK N   1      34.381  14.102  10.246  0.00  0.00     0.051 A 
HETATM   15  C   UNK N   1      35.084  13.990  11.464  0.00  0.00     0.062 A 
HETATM   16  C   UNK N   1      35.168  12.776  12.153  0.00  0.00     0.272 A 
HETATM   17  O   UNK N   1      34.630  11.773  11.716  0.00  0.00    -0.267 OA
HETATM   18  N   UNK N   1      35.862  12.717  13.333  0.00  0.00    -0.156 N 
HETATM   19  H   UNK N   1      37.623  14.520  15.436  0.00  0.00     0.174 HD
HETATM   20  H   UNK N   1      37.230  12.864  15.537  0.00  0.00     0.174 HD
HETATM   21  H   UNK N   1      33.237  15.130   7.881  0.00  0.00     0.167 HD
HETATM   22  H   UNK N   1      35.920  11.862  13.817  0.00  0.00     0.187 HD
ENDROOT
TORSDOF 0
ENDMDL
MODEL 3
REMARK VINA RESULT:      -6.2      2.939      6.789
REMARK  0 active torsions:
REMARK  status: ('A' for Active; 'I' for Inactive)
REMARK       I    between atoms: C_1  and  N_2 
ROOT
HETATM    1  C   UNK N   1      33.876  16.962   9.050  0.00  0.00     0.679 A 
HETATM    2  N   UNK N   1      34.491  16.918  10.315  0.00  0.00    -0.234 N 
HETATM    3  N   UNK N   1      32.540  17.193   8.959  0.00  0.00    -0.191 N 
ATOM      4  HN  UNK N   1      31.995  17.334   9.809  1.00  0.00     0.184 HD
HETATM    5  C   UNK N   1      31.921  17.241   7.753  0.00  0.00     0.067 A 
HETATM    6  C   UNK N   1      30.538  17.482   7.687  0.00  0.00     0.063 A 
HETATM    7  C   UNK N   1      29.958  17.520   6.427  0.00  0.00     0.062 A 
HETATM    8  N   UNK N   1      28.671  17.732   6.122  0.00  0.00    -0.344 N 
ATOM      9  HN  UNK N   1      27.892  17.903   6.759  1.00  0.00     0.167 HD
HETATM   10  C   UNK N   1      28.648  17.666   4.767  0.00  0.00     0.078 A 
HETATM   11  C   UNK N   1      27.412  17.843   3.963  0.00  0.00     0.089 C 
HETATM   12  N   UNK N   1      29.865  17.422   4.223  0.00  0.00    -0.344 N 
HETATM   13  C   UNK N   1      30.676  17.334   5.286  0.00  0.00     0.061 A 
HETATM   14  C   UNK N   1      32.044  17.092   5.301  0.00  0.00     0.051 A 
HETATM   15  C   UNK N   1      32.678  17.045   6.560  0.00  0.00     0.062 A 
HETATM   16  C   UNK N   1      34.050  16.808   6.682  0.00  0.00     0.272 A 
HETATM   17  O   UNK N   1      34.743  16.634   5.694  0.00  0.00    -0.267 OA
HETATM   18  N   UNK N   1      34.621  16.772   7.928  0.00  0.00    -0.156 N 
HETATM   19  H   UNK N   1      33.954  17.055  11.129  0.00  0.00     0.174 HD
HETATM   20  H   UNK N   1      35.459  16.750  10.387  0.00  0.00     0.174 HD
HETATM   21  H   UNK N   1      30.100  17.331   3.271  0.00  0.00     0.167 HD
HETATM   22  H   UNK N   1      35.587  16.605   8.012  0.00  0.00     0.187 HD
ENDROOT
TORSDOF 0
ENDMDL
MODEL 4
REMARK VINA RESULT:      -6.2     14.589     17.527
REMARK  0 active torsions:
REMARK  status: ('A' for Active; 'I' for Inactive)
REMARK       I    between atoms: C_1  and  N_2 
ROOT
HETATM    1  C   UNK N   1      31.323  20.755  -4.091  0.00  0.00     0.679 A 
HETATM    2  N   UNK N   1      32.163  19.648  -4.314  0.00  0.00    -0.234 N 
HETATM    3  N   UNK N   1      30.494  21.180  -5.079  0.00  0.00    -0.191 N 
ATOM      4  HN  UNK N   1      30.488  20.692  -5.975  1.00  0.00     0.184 HD
HETATM    5  C   UNK N   1      29.673  22.243  -4.893  0.00  0.00     0.067 A 
HETATM    6  C   UNK N   1      28.825  22.662  -5.933  0.00  0.00     0.063 A 
HETATM    7  C   UNK N   1      28.007  23.756  -5.686  0.00  0.00     0.062 A 
HETATM    8  N   UNK N   1      27.127  24.327  -6.519  0.00  0.00    -0.344 N 
ATOM      9  HN  UNK N   1      26.903  24.061  -7.477  1.00  0.00     0.167 HD
HETATM   10  C   UNK N   1      26.605  25.343  -5.785  0.00  0.00     0.078 A 
HETATM   11  C   UNK N   1      25.568  26.272  -6.301  0.00  0.00     0.089 C 
HETATM   12  N   UNK N   1      27.126  25.422  -4.536  0.00  0.00    -0.344 N 
HETATM   13  C   UNK N   1      28.007  24.414  -4.494  0.00  0.00     0.061 A 
HETATM   14  C   UNK N   1      28.827  24.038  -3.438  0.00  0.00     0.051 A 
HETATM   15  C   UNK N   1      29.676  22.930  -3.643  0.00  0.00     0.062 A 
HETATM   16  C   UNK N   1      30.539  22.472  -2.642  0.00  0.00     0.272 A 
HETATM   17  O   UNK N   1      30.581  23.023  -1.555  0.00  0.00    -0.267 OA
HETATM   18  N   UNK N   1      31.345  21.392  -2.889  0.00  0.00    -0.156 N 
HETATM   19  H   UNK N   1      32.149  19.186  -5.182  0.00  0.00     0.174 HD
HETATM   20  H   UNK N   1      32.766  19.336  -3.600  0.00  0.00     0.174 HD
HETATM   21  H   UNK N   1      26.909  26.069  -3.826  0.00  0.00     0.167 HD
HETATM   22  H   UNK N   1      31.952  21.071  -2.183  0.00  0.00     0.187 HD
ENDROOT
TORSDOF 0
ENDMDL
MODEL 5
REMARK VINA RESULT:      -6.2      4.591      8.370
REMARK  0 active torsions:
REMARK  status: ('A' for Active; 'I' for Inactive)
REMARK       I    between atoms: C_1  and  N_2 
ROOT
HETATM    1  C   UNK N   1      31.369  16.391   8.423  0.00  0.00     0.679 A 
HETATM    2  N   UNK N   1      32.407  15.490   8.723  0.00  0.00    -0.234 N 
HETATM    3  N   UNK N   1      30.971  16.556   7.134  0.00  0.00    -0.191 N 
ATOM      4  HN  UNK N   1      31.430  16.023   6.395  1.00  0.00     0.184 HD
HETATM    5  C   UNK N   1      29.974  17.417   6.816  0.00  0.00     0.067 A 
HETATM    6  C   UNK N   1      29.583  17.568   5.474  0.00  0.00     0.063 A 
HETATM    7  C   UNK N   1      28.557  18.464   5.207  0.00  0.00     0.062 A 
HETATM    8  N   UNK N   1      28.022  18.769   4.017  0.00  0.00    -0.344 N 
ATOM      9  HN  UNK N   1      28.273  18.399   3.101  1.00  0.00     0.167 HD
HETATM   10  C   UNK N   1      27.069  19.686   4.320  0.00  0.00     0.078 A 
HETATM   11  C   UNK N   1      26.198  20.324   3.301  0.00  0.00     0.089 C 
HETATM   12  N   UNK N   1      26.993  19.960   5.646  0.00  0.00    -0.344 N 
HETATM   13  C   UNK N   1      27.938  19.179   6.186  0.00  0.00     0.061 A 
HETATM   14  C   UNK N   1      28.290  19.065   7.525  0.00  0.00     0.051 A 
HETATM   15  C   UNK N   1      29.329  18.165   7.844  0.00  0.00     0.062 A 
HETATM   16  C   UNK N   1      29.757  17.977   9.162  0.00  0.00     0.272 A 
HETATM   17  O   UNK N   1      29.239  18.591  10.080  0.00  0.00    -0.267 OA
HETATM   18  N   UNK N   1      30.770  17.092   9.423  0.00  0.00    -0.156 N 
HETATM   19  H   UNK N   1      32.842  14.981   8.001  0.00  0.00     0.174 HD
HETATM   20  H   UNK N   1      32.699  15.367   9.656  0.00  0.00     0.174 HD
HETATM   21  H   UNK N   1      26.386  20.585   6.104  0.00  0.00     0.167 HD
HETATM   22  H   UNK N   1      31.070  16.961  10.351  0.00  0.00     0.187 HD
ENDROOT
TORSDOF 0
ENDMDL
MODEL 6
REMARK VINA RESULT:      -6.0      1.709      5.545
REMARK  0 active torsions:
REMARK  status: ('A' for Active; 'I' for Inactive)
REMARK       I    between atoms: C_1  and  N_2 
ROOT
HETATM    1  C   UNK N   1      34.417  14.576  11.026  0.00  0.00     0.679 A 
HETATM    2  N   UNK N   1      34.437  13.646  12.083  0.00  0.00    -0.234 N 
HETATM    3  N   UNK N   1      33.739  14.284   9.885  0.00  0.00    -0.191 N 
ATOM      4  HN  UNK N   1      33.251  13.392   9.806  1.00  0.00     0.184 HD
HETATM    5  C   UNK N   1      33.703  15.160   8.852  0.00  0.00     0.067 A 
HETATM    6  C   UNK N   1      32.994  14.832   7.683  0.00  0.00     0.063 A 
HETATM    7  C   UNK N   1      32.991  15.768   6.657  0.00  0.00     0.062 A 
HETATM    8  N   UNK N   1      32.390  15.674   5.464  0.00  0.00    -0.344 N 
ATOM      9  HN  UNK N   1      31.830  14.904   5.098  1.00  0.00     0.167 HD
HETATM   10  C   UNK N   1      32.701  16.847   4.856  0.00  0.00     0.078 A 
HETATM   11  C   UNK N   1      32.246  17.203   3.488  0.00  0.00     0.089 C 
HETATM   12  N   UNK N   1      33.468  17.660   5.624  0.00  0.00    -0.344 N 
HETATM   13  C   UNK N   1      33.639  16.960   6.754  0.00  0.00     0.061 A 
HETATM   14  C   UNK N   1      34.352  17.329   7.888  0.00  0.00     0.051 A 
HETATM   15  C   UNK N   1      34.383  16.409   8.957  0.00  0.00     0.062 A 
HETATM   16  C   UNK N   1      35.073  16.685  10.142  0.00  0.00     0.272 A 
HETATM   17  O   UNK N   1      35.672  17.738  10.284  0.00  0.00    -0.267 OA
HETATM   18  N   UNK N   1      35.074  15.760  11.153  0.00  0.00    -0.156 N 
HETATM   19  H   UNK N   1      33.962  12.789  11.994  0.00  0.00     0.174 HD
HETATM   20  H   UNK N   1      34.927  13.854  12.912  0.00  0.00     0.174 HD
HETATM   21  H   UNK N   1      33.818  18.553   5.404  0.00  0.00     0.167 HD
HETATM   22  H   UNK N   1      35.560  15.956  11.986  0.00  0.00     0.187 HD
ENDROOT
TORSDOF 0
ENDMDL
MODEL 7
REMARK VINA RESULT:      -6.0      2.119      5.946
REMARK  0 active torsions:
REMARK  status: ('A' for Active; 'I' for Inactive)
REMARK       I    between atoms: C_1  and  N_2 
ROOT
HETATM    1  C   UNK N   1      34.386  16.131  10.099  0.00  0.00     0.679 A 
HETATM    2  N   UNK N   1      34.748  15.550  11.329  0.00  0.00    -0.234 N 
HETATM    3  N   UNK N   1      33.528  15.478   9.273  0.00  0.00    -0.191 N 
ATOM      4  HN  UNK N   1      33.154  14.571   9.552  1.00  0.00     0.184 HD
HETATM    5  C   UNK N   1      33.162  16.013   8.082  0.00  0.00     0.067 A 
HETATM    6  C   UNK N   1      32.272  15.316   7.247  0.00  0.00     0.063 A 
HETATM    7  C   UNK N   1      31.932  15.912   6.040  0.00  0.00     0.062 A 
HETATM    8  N   UNK N   1      31.111  15.438   5.093  0.00  0.00    -0.344 N 
ATOM      9  HN  UNK N   1      30.593  14.560   5.091  1.00  0.00     0.167 HD
HETATM   10  C   UNK N   1      31.133  16.403   4.139  0.00  0.00     0.078 A 
HETATM   11  C   UNK N   1      30.359  16.317   2.875  0.00  0.00     0.089 C 
HETATM   12  N   UNK N   1      31.933  17.451   4.457  0.00  0.00    -0.344 N 
HETATM   13  C   UNK N   1      32.426  17.121   5.658  0.00  0.00     0.061 A 
HETATM   14  C   UNK N   1      33.307  17.847   6.449  0.00  0.00     0.051 A 
HETATM   15  C   UNK N   1      33.681  17.280   7.686  0.00  0.00     0.062 A 
HETATM   16  C   UNK N   1      34.563  17.932   8.554  0.00  0.00     0.272 A 
HETATM   17  O   UNK N   1      35.036  19.017   8.264  0.00  0.00    -0.267 OA
HETATM   18  N   UNK N   1      34.896  17.341   9.745  0.00  0.00    -0.156 N 
HETATM   19  H   UNK N   1      34.380  14.674  11.587  0.00  0.00     0.174 HD
HETATM   20  H   UNK N   1      35.370  16.020  11.931  0.00  0.00     0.174 HD
HETATM   21  H   UNK N   1      32.110  18.263   3.929  0.00  0.00     0.167 HD
HETATM   22  H   UNK N   1      35.517  17.801  10.356  0.00  0.00     0.187 HD
ENDROOT
TORSDOF 0
ENDMDL
MODEL 8
REMARK VINA RESULT:      -5.8     14.485     17.393
REMARK  0 active torsions:
REMARK  status: ('A' for Active; 'I' for Inactive)
REMARK       I    between atoms: C_1  and  N_2 
ROOT
HETATM    1  C   UNK N   1      32.143  20.655  -3.931  0.00  0.00     0.679 A 
HETATM    2  N   UNK N   1      33.178  19.702  -3.971  0.00  0.00    -0.234 N 
HETATM    3  N   UNK N   1      31.351  20.835  -5.021  0.00  0.00    -0.191 N 
ATOM      4  HN  UNK N   1      31.515  20.277  -5.858  1.00  0.00     0.184 HD
HETATM    5  C   UNK N   1      30.347  21.746  -5.010  0.00  0.00     0.067 A 
HETATM    6  C   UNK N   1      29.543  21.912  -6.152  0.00  0.00     0.063 A 
HETATM    7  C   UNK N   1      28.530  22.859  -6.084  0.00  0.00     0.062 A 
HETATM    8  N   UNK N   1      27.649  23.186  -7.038  0.00  0.00    -0.344 N 
ATOM      9  HN  UNK N   1      27.565  22.801  -7.979  1.00  0.00     0.167 HD
HETATM   10  C   UNK N   1      26.893  24.152  -6.458  0.00  0.00     0.078 A 
HETATM   11  C   UNK N   1      25.766  24.831  -7.146  0.00  0.00     0.089 C 
HETATM   12  N   UNK N   1      27.271  24.435  -5.186  0.00  0.00    -0.344 N 
HETATM   13  C   UNK N   1      28.304  23.608  -4.971  0.00  0.00     0.061 A 
HETATM   14  C   UNK N   1      29.071  23.480  -3.820  0.00  0.00     0.051 A 
HETATM   15  C   UNK N   1      30.113  22.529  -3.842  0.00  0.00     0.062 A 
HETATM   16  C   UNK N   1      30.942  22.325  -2.735  0.00  0.00     0.272 A 
HETATM   17  O   UNK N   1      30.785  22.968  -1.711  0.00  0.00    -0.267 OA
HETATM   18  N   UNK N   1      31.941  21.389  -2.804  0.00  0.00    -0.156 N 
HETATM   19  H   UNK N   1      33.326  19.169  -4.786  0.00  0.00     0.174 HD
HETATM   20  H   UNK N   1      33.754  19.568  -3.184  0.00  0.00     0.174 HD
HETATM   21  H   UNK N   1      26.879  25.092  -4.566  0.00  0.00     0.167 HD
HETATM   22  H   UNK N   1      32.524  21.246  -2.024  0.00  0.00     0.187 HD
ENDROOT
TORSDOF 0
ENDMDL
MODEL 9
REMARK VINA RESULT:      -5.7     14.278     16.970
REMARK  0 active torsions:
REMARK  status: ('A' for Active; 'I' for Inactive)
REMARK       I    between atoms: C_1  and  N_2 
ROOT
HETATM    1  C   UNK N   1      26.276  24.177  -6.233  0.00  0.00     0.679 A 
HETATM    2  N   UNK N   1      25.381  24.369  -7.302  0.00  0.00    -0.234 N 
HETATM    3  N   UNK N   1      27.399  23.437  -6.420  0.00  0.00    -0.191 N 
ATOM      4  HN  UNK N   1      27.584  23.026  -7.336  1.00  0.00     0.184 HD
HETATM    5  C   UNK N   1      28.279  23.235  -5.408  0.00  0.00     0.067 A 
HETATM    6  C   UNK N   1      29.434  22.464  -5.630  0.00  0.00     0.063 A 
HETATM    7  C   UNK N   1      30.298  22.291  -4.558  0.00  0.00     0.062 A 
HETATM    8  N   UNK N   1      31.448  21.604  -4.534  0.00  0.00    -0.344 N 
ATOM      9  HN  UNK N   1      31.890  21.088  -5.295  1.00  0.00     0.167 HD
HETATM   10  C   UNK N   1      31.885  21.756  -3.258  0.00  0.00     0.078 A 
HETATM   11  C   UNK N   1      33.146  21.158  -2.751  0.00  0.00     0.089 C 
HETATM   12  N   UNK N   1      31.054  22.507  -2.494  0.00  0.00    -0.344 N 
HETATM   13  C   UNK N   1      30.061  22.834  -3.332  0.00  0.00     0.061 A 
HETATM   14  C   UNK N   1      28.935  23.602  -3.066  0.00  0.00     0.051 A 
HETATM   15  C   UNK N   1      28.026  23.805  -4.126  0.00  0.00     0.062 A 
HETATM   16  C   UNK N   1      26.863  24.563  -3.960  0.00  0.00     0.272 A 
HETATM   17  O   UNK N   1      26.600  25.073  -2.884  0.00  0.00    -0.267 OA
HETATM   18  N   UNK N   1      26.011  24.733  -5.019  0.00  0.00    -0.156 N 
HETATM   19  H   UNK N   1      25.570  23.968  -8.181  0.00  0.00     0.174 HD
HETATM   20  H   UNK N   1      24.565  24.905  -7.171  0.00  0.00     0.174 HD
HETATM   21  H   UNK N   1      31.155  22.755  -1.547  0.00  0.00     0.167 HD
HETATM   22  H   UNK N   1      25.192  25.266  -4.901  0.00  0.00     0.187 HD
ENDROOT
TORSDOF 0
ENDMDL
