MODEL 1
REMARK VINA RESULT:      -9.2      0.000      0.000
REMARK  2 active torsions:
REMARK  status: ('A' for Active; 'I' for Inactive)
REMARK       I    between atoms: C_2  and  N_1 
REMARK       I    between atoms: N_10  and  C_9 
REMARK    1  A    between atoms: C_11  and  N_10 
REMARK    2  A    between atoms: C_12  and  C_11 
ROOT
HETATM    1  N   UNK N   1      32.992  18.323   7.805  0.00  0.00    -0.234 N 
HETATM    2  C   UNK N   1      33.337  17.164   8.525  0.00  0.00     0.679 A 
HETATM    3  N   UNK N   1      34.258  17.236   9.521  0.00  0.00    -0.191 N 
ATOM      4  HN  UNK N   1      34.711  18.128   9.723  1.00  0.00     0.184 HD
HETATM    5  C   UNK N   1      34.587  16.141  10.252  0.00  0.00     0.067 A 
HETATM    6  C   UNK N   1      35.521  16.250  11.297  0.00  0.00     0.063 A 
HETATM    7  C   UNK N   1      35.777  15.110  12.049  0.00  0.00     0.078 A 
HETATM    8  N   UNK N   1      36.568  14.996  13.125  0.00  0.00    -0.190 N 
HETATM    9  C   UNK N   1      36.395  13.708  13.512  0.00  0.00     0.679 A 
HETATM   10  N   UNK N   1      36.970  13.183  14.689  0.00  0.00    -0.222 N 
HETATM   11  N   UNK N   1      35.540  13.016  12.715  0.00  0.00    -0.190 N 
ATOM     12  HN  UNK N   1      35.252  12.041  12.797  1.00  0.00     0.184 HD
HETATM   13  C   UNK N   1      35.166  13.919  11.797  0.00  0.00     0.077 A 
HETATM   14  C   UNK N   1      34.258  13.755  10.759  0.00  0.00     0.052 A 
HETATM   15  C   UNK N   1      33.957  14.891   9.975  0.00  0.00     0.062 A 
HETATM   16  C   UNK N   1      33.026  14.840   8.932  0.00  0.00     0.272 A 
HETATM   17  O   UNK N   1      32.462  13.797   8.650  0.00  0.00    -0.267 OA
HETATM   18  N   UNK N   1      32.733  15.981   8.231  0.00  0.00    -0.156 N 
HETATM   19  H   UNK N   1      32.378  18.270   7.037  0.00  0.00     0.174 HD
HETATM   20  H   UNK N   1      33.368  19.193   8.071  0.00  0.00     0.174 HD
HETATM   21  H   UNK N   1      37.139  15.685  13.536  0.00  0.00     0.184 HD
HETATM   22  H   UNK N   1      37.702  13.671  15.130  0.00  0.00     0.178 HD
HETATM   23  H   UNK N   1      32.074  15.943   7.501  0.00  0.00     0.187 HD
ENDROOT
BRANCH  10  24
HETATM   24  C   UNK N   1      36.503  11.944  15.257  0.00  0.00     0.177 C 
BRANCH  24  25
HETATM   25  C   UNK N   1      35.999  12.158  16.645  0.00  0.00    -0.029 A 
HETATM   26  C   UNK N   1      35.877  11.084  17.547  0.00  0.00    -0.018 A 
HETATM   27  C   UNK N   1      36.226   9.776  17.173  0.00  0.00     0.013 A 
HETATM   28  C   UNK N   1      35.390  11.324  18.855  0.00  0.00    -0.025 A 
HETATM   29  C   UNK N   1      36.091   8.723  18.083  0.00  0.00     0.001 A 
HETATM   30  C   UNK N   1      35.611   8.968  19.373  0.00  0.00     0.001 A 
HETATM   31  C   UNK N   1      35.262  10.266  19.758  0.00  0.00     0.012 A 
HETATM   32  C   UNK N   1      35.034  12.618  19.242  0.00  0.00     0.012 A 
HETATM   33  C   UNK N   1      35.153  13.677  18.340  0.00  0.00     0.002 A 
HETATM   34  C   UNK N   1      35.629  13.448  17.048  0.00  0.00     0.010 A 
ENDBRANCH  24  25
ENDBRANCH  10  24
TORSDOF 2
ENDMDL
MODEL 2
REMARK VINA RESULT:      -9.0      3.822     10.205
REMARK  2 active torsions:
REMARK  status: ('A' for Active; 'I' for Inactive)
REMARK       I    between atoms: C_2  and  N_1 
REMARK       I    between atoms: N_10  and  C_9 
REMARK    1  A    between atoms: C_11  and  N_10 
REMARK    2  A    between atoms: C_12  and  C_11 
ROOT
HETATM    1  N   UNK N   1      38.287  11.528  14.368  0.00  0.00    -0.234 N 
HETATM    2  C   UNK N   1      37.568  12.018  13.261  0.00  0.00     0.679 A 
HETATM    3  N   UNK N   1      37.145  13.309  13.249  0.00  0.00    -0.191 N 
ATOM      4  HN  UNK N   1      37.331  13.906  14.055  1.00  0.00     0.184 HD
HETATM    5  C   UNK N   1      36.477  13.817  12.183  0.00  0.00     0.067 A 
HETATM    6  C   UNK N   1      36.077  15.165  12.183  0.00  0.00     0.063 A 
HETATM    7  C   UNK N   1      35.447  15.647  11.043  0.00  0.00     0.078 A 
HETATM    8  N   UNK N   1      35.045  16.901  10.793  0.00  0.00    -0.190 N 
HETATM    9  C   UNK N   1      34.577  16.839   9.522  0.00  0.00     0.679 A 
HETATM   10  N   UNK N   1      34.148  17.980   8.812  0.00  0.00    -0.222 N 
HETATM   11  N   UNK N   1      34.660  15.597   8.977  0.00  0.00    -0.190 N 
ATOM     12  HN  UNK N   1      34.373  15.297   8.046  1.00  0.00     0.184 HD
HETATM   13  C   UNK N   1      35.207  14.862   9.956  0.00  0.00     0.077 A 
HETATM   14  C   UNK N   1      35.559  13.518   9.919  0.00  0.00     0.052 A 
HETATM   15  C   UNK N   1      36.213  12.987  11.053  0.00  0.00     0.062 A 
HETATM   16  C   UNK N   1      36.643  11.656  11.099  0.00  0.00     0.272 A 
HETATM   17  O   UNK N   1      36.440  10.902  10.163  0.00  0.00    -0.267 OA
HETATM   18  N   UNK N   1      37.315  11.201  12.203  0.00  0.00    -0.156 N 
HETATM   19  H   UNK N   1      38.538  10.577  14.418  0.00  0.00     0.174 HD
HETATM   20  H   UNK N   1      38.539  12.139  15.097  0.00  0.00     0.174 HD
HETATM   21  H   UNK N   1      35.083  17.683  11.391  0.00  0.00     0.184 HD
HETATM   22  H   UNK N   1      33.954  18.811   9.303  0.00  0.00     0.178 HD
HETATM   23  H   UNK N   1      37.622  10.267  12.231  0.00  0.00     0.187 HD
ENDROOT
BRANCH  10  24
HETATM   24  C   UNK N   1      33.986  17.949   7.381  0.00  0.00     0.177 C 
BRANCH  24  25
HETATM   25  C   UNK N   1      32.577  17.616   7.017  0.00  0.00    -0.029 A 
HETATM   26  C   UNK N   1      32.221  17.316   5.689  0.00  0.00    -0.018 A 
HETATM   27  C   UNK N   1      33.179  17.317   4.661  0.00  0.00     0.013 A 
HETATM   28  C   UNK N   1      30.874  17.010   5.379  0.00  0.00    -0.025 A 
HETATM   29  C   UNK N   1      32.802  17.021   3.347  0.00  0.00     0.001 A 
HETATM   30  C   UNK N   1      31.470  16.718   3.050  0.00  0.00     0.001 A 
HETATM   31  C   UNK N   1      30.508  16.712   4.065  0.00  0.00     0.012 A 
HETATM   32  C   UNK N   1      29.909  17.008   6.389  0.00  0.00     0.012 A 
HETATM   33  C   UNK N   1      30.268  17.313   7.704  0.00  0.00     0.002 A 
HETATM   34  C   UNK N   1      31.594  17.618   8.015  0.00  0.00     0.010 A 
ENDBRANCH  24  25
ENDBRANCH  10  24
TORSDOF 2
ENDMDL
MODEL 3
REMARK VINA RESULT:      -8.8     13.916     16.171
REMARK  2 active torsions:
REMARK  status: ('A' for Active; 'I' for Inactive)
REMARK       I    between atoms: C_2  and  N_1 
REMARK       I    between atoms: N_10  and  C_9 
REMARK    1  A    between atoms: C_11  and  N_10 
REMARK    2  A    between atoms: C_12  and  C_11 
ROOT
HETATM    1  N   UNK N   1      20.575  21.135   0.470  0.00  0.00    -0.234 N 
HETATM    2  C   UNK N   1      20.597  19.934   1.206  0.00  0.00     0.679 A 
HETATM    3  N   UNK N   1      20.936  19.955   2.521  0.00  0.00    -0.191 N 
ATOM      4  HN  UNK N   1      21.196  20.838   2.959  1.00  0.00     0.184 HD
HETATM    5  C   UNK N   1      20.936  18.818   3.262  0.00  0.00     0.067 A 
HETATM    6  C   UNK N   1      21.261  18.872   4.629  0.00  0.00     0.063 A 
HETATM    7  C   UNK N   1      21.190  17.687   5.352  0.00  0.00     0.078 A 
HETATM    8  N   UNK N   1      21.386  17.513   6.666  0.00  0.00    -0.190 N 
HETATM    9  C   UNK N   1      21.115  16.199   6.857  0.00  0.00     0.679 A 
HETATM   10  N   UNK N   1      21.093  15.604   8.137  0.00  0.00    -0.222 N 
HETATM   11  N   UNK N   1      20.770  15.547   5.716  0.00  0.00    -0.190 N 
ATOM     12  HN  UNK N   1      20.526  14.565   5.600  1.00  0.00     0.184 HD
HETATM   13  C   UNK N   1      20.828  16.505   4.779  0.00  0.00     0.077 A 
HETATM   14  C   UNK N   1      20.525  16.397   3.427  0.00  0.00     0.052 A 
HETATM   15  C   UNK N   1      20.573  17.579   2.655  0.00  0.00     0.062 A 
HETATM   16  C   UNK N   1      20.246  17.583   1.295  0.00  0.00     0.272 A 
HETATM   17  O   UNK N   1      19.932  16.552   0.725  0.00  0.00    -0.267 OA
HETATM   18  N   UNK N   1      20.262  18.764   0.599  0.00  0.00    -0.156 N 
HETATM   19  H   UNK N   1      20.397  21.124  -0.498  0.00  0.00     0.174 HD
HETATM   20  H   UNK N   1      20.739  21.991   0.927  0.00  0.00     0.174 HD
HETATM   21  H   UNK N   1      21.662  18.182   7.334  0.00  0.00     0.184 HD
HETATM   22  H   UNK N   1      21.507  16.074   8.896  0.00  0.00     0.178 HD
HETATM   23  H   UNK N   1      20.026  18.765  -0.356  0.00  0.00     0.187 HD
ENDROOT
BRANCH  10  24
HETATM   24  C   UNK N   1      20.475  14.320   8.350  0.00  0.00     0.177 C 
BRANCH  24  25
HETATM   25  C   UNK N   1      21.460  13.350   8.913  0.00  0.00    -0.029 A 
HETATM   26  C   UNK N   1      22.068  12.376   8.097  0.00  0.00    -0.018 A 
HETATM   27  C   UNK N   1      21.770  12.286   6.728  0.00  0.00     0.013 A 
HETATM   28  C   UNK N   1      22.994  11.468   8.666  0.00  0.00    -0.025 A 
HETATM   29  C   UNK N   1      22.382  11.308   5.937  0.00  0.00     0.001 A 
HETATM   30  C   UNK N   1      23.296  10.416   6.506  0.00  0.00     0.001 A 
HETATM   31  C   UNK N   1      23.602  10.497   7.868  0.00  0.00     0.012 A 
HETATM   32  C   UNK N   1      23.297  11.542  10.028  0.00  0.00     0.012 A 
HETATM   33  C   UNK N   1      22.686  12.507  10.832  0.00  0.00     0.002 A 
HETATM   34  C   UNK N   1      21.771  13.403  10.278  0.00  0.00     0.010 A 
ENDBRANCH  24  25
ENDBRANCH  10  24
TORSDOF 2
ENDMDL
MODEL 4
REMARK VINA RESULT:      -8.6     10.029     13.959
REMARK  2 active torsions:
REMARK  status: ('A' for Active; 'I' for Inactive)
REMARK       I    between atoms: C_2  and  N_1 
REMARK       I    between atoms: N_10  and  C_9 
REMARK    1  A    between atoms: C_11  and  N_10 
REMARK    2  A    between atoms: C_12  and  C_11 
ROOT
HETATM    1  N   UNK N   1      18.416  18.743   2.322  0.00  0.00    -0.234 N 
HETATM    2  C   UNK N   1      19.649  18.143   2.641  0.00  0.00     0.679 A 
HETATM    3  N   UNK N   1      20.696  18.918   3.025  0.00  0.00    -0.191 N 
ATOM      4  HN  UNK N   1      20.588  19.931   3.056  1.00  0.00     0.184 HD
HETATM    5  C   UNK N   1      21.887  18.365   3.368  0.00  0.00     0.067 A 
HETATM    6  C   UNK N   1      22.947  19.187   3.792  0.00  0.00     0.063 A 
HETATM    7  C   UNK N   1      24.124  18.564   4.185  0.00  0.00     0.078 A 
HETATM    8  N   UNK N   1      25.229  19.134   4.685  0.00  0.00    -0.190 N 
HETATM    9  C   UNK N   1      26.030  18.079   4.973  0.00  0.00     0.679 A 
HETATM   10  N   UNK N   1      27.272  18.222   5.628  0.00  0.00    -0.222 N 
HETATM   11  N   UNK N   1      25.475  16.879   4.661  0.00  0.00    -0.190 N 
ATOM     12  HN  UNK N   1      25.876  15.950   4.778  1.00  0.00     0.184 HD
HETATM   13  C   UNK N   1      24.275  17.210   4.162  0.00  0.00     0.077 A 
HETATM   14  C   UNK N   1      23.268  16.358   3.725  0.00  0.00     0.052 A 
HETATM   15  C   UNK N   1      22.047  16.948   3.327  0.00  0.00     0.062 A 
HETATM   16  C   UNK N   1      20.958  16.174   2.909  0.00  0.00     0.272 A 
HETATM   17  O   UNK N   1      21.041  14.960   2.852  0.00  0.00    -0.267 OA
HETATM   18  N   UNK N   1      19.780  16.791   2.578  0.00  0.00    -0.156 N 
HETATM   19  H   UNK N   1      17.671  18.199   1.976  0.00  0.00     0.174 HD
HETATM   20  H   UNK N   1      18.297  19.712   2.444  0.00  0.00     0.174 HD
HETATM   21  H   UNK N   1      25.414  20.093   4.814  0.00  0.00     0.184 HD
HETATM   22  H   UNK N   1      27.693  19.110   5.678  0.00  0.00     0.178 HD
HETATM   23  H   UNK N   1      19.014  16.244   2.290  0.00  0.00     0.187 HD
ENDROOT
BRANCH  10  24
HETATM   24  C   UNK N   1      27.933  17.090   6.225  0.00  0.00     0.177 C 
BRANCH  24  25
HETATM   25  C   UNK N   1      28.839  17.531   7.326  0.00  0.00    -0.029 A 
HETATM   26  C   UNK N   1      30.238  17.516   7.166  0.00  0.00    -0.018 A 
HETATM   27  C   UNK N   1      30.828  17.088   5.965  0.00  0.00     0.013 A 
HETATM   28  C   UNK N   1      31.067  17.935   8.235  0.00  0.00    -0.025 A 
HETATM   29  C   UNK N   1      32.220  17.077   5.830  0.00  0.00     0.001 A 
HETATM   30  C   UNK N   1      33.032  17.494   6.889  0.00  0.00     0.001 A 
HETATM   31  C   UNK N   1      32.456  17.923   8.088  0.00  0.00     0.012 A 
HETATM   32  C   UNK N   1      30.496  18.359   9.437  0.00  0.00     0.012 A 
HETATM   33  C   UNK N   1      29.108  18.365   9.590  0.00  0.00     0.002 A 
HETATM   34  C   UNK N   1      28.285  17.950   8.542  0.00  0.00     0.010 A 
ENDBRANCH  24  25
ENDBRANCH  10  24
TORSDOF 2
ENDMDL
MODEL 5
REMARK VINA RESULT:      -8.6     11.105     14.230
REMARK  2 active torsions:
REMARK  status: ('A' for Active; 'I' for Inactive)
REMARK       I    between atoms: C_2  and  N_1 
REMARK       I    between atoms: N_10  and  C_9 
REMARK    1  A    between atoms: C_11  and  N_10 
REMARK    2  A    between atoms: C_12  and  C_11 
ROOT
HETATM    1  N   UNK N   1      20.180  11.894  12.039  0.00  0.00    -0.234 N 
HETATM    2  C   UNK N   1      21.352  12.115  11.290  0.00  0.00     0.679 A 
HETATM    3  N   UNK N   1      21.260  12.569  10.013  0.00  0.00    -0.191 N 
ATOM      4  HN  UNK N   1      20.340  12.724   9.599  1.00  0.00     0.184 HD
HETATM    5  C   UNK N   1      22.372  12.819   9.277  0.00  0.00     0.067 A 
HETATM    6  C   UNK N   1      22.250  13.318   7.968  0.00  0.00     0.063 A 
HETATM    7  C   UNK N   1      23.422  13.611   7.281  0.00  0.00     0.078 A 
HETATM    8  N   UNK N   1      23.547  14.154   6.063  0.00  0.00    -0.190 N 
HETATM    9  C   UNK N   1      24.887  14.297   5.913  0.00  0.00     0.679 A 
HETATM   10  N   UNK N   1      25.464  14.941   4.798  0.00  0.00    -0.222 N 
HETATM   11  N   UNK N   1      25.599  13.854   6.982  0.00  0.00    -0.190 N 
ATOM     12  HN  UNK N   1      26.610  13.851   7.108  1.00  0.00     0.184 HD
HETATM   13  C   UNK N   1      24.654  13.422   7.830  0.00  0.00     0.077 A 
HETATM   14  C   UNK N   1      24.826  12.906   9.109  0.00  0.00     0.052 A 
HETATM   15  C   UNK N   1      23.662  12.605   9.849  0.00  0.00     0.062 A 
HETATM   16  C   UNK N   1      23.728  12.119  11.160  0.00  0.00     0.272 A 
HETATM   17  O   UNK N   1      24.802  11.914  11.696  0.00  0.00    -0.267 OA
HETATM   18  N   UNK N   1      22.568  11.887  11.853  0.00  0.00    -0.156 N 
HETATM   19  H   UNK N   1      20.231  11.501  12.940  0.00  0.00     0.174 HD
HETATM   20  H   UNK N   1      19.304  12.134  11.660  0.00  0.00     0.174 HD
HETATM   21  H   UNK N   1      22.833  14.393   5.427  0.00  0.00     0.184 HD
HETATM   22  H   UNK N   1      24.922  15.089   3.990  0.00  0.00     0.178 HD
HETATM   23  H   UNK N   1      22.617  11.551  12.777  0.00  0.00     0.187 HD
ENDROOT
BRANCH  10  24
HETATM   24  C   UNK N   1      26.835  15.384   4.822  0.00  0.00     0.177 C 
BRANCH  24  25
HETATM   25  C   UNK N   1      26.905  16.874   4.878  0.00  0.00    -0.029 A 
HETATM   26  C   UNK N   1      27.363  17.537   6.033  0.00  0.00    -0.018 A 
HETATM   27  C   UNK N   1      27.771  16.819   7.169  0.00  0.00     0.013 A 
HETATM   28  C   UNK N   1      27.411  18.952   6.052  0.00  0.00    -0.025 A 
HETATM   29  C   UNK N   1      28.218  17.498   8.307  0.00  0.00     0.001 A 
HETATM   30  C   UNK N   1      28.265  18.896   8.318  0.00  0.00     0.001 A 
HETATM   31  C   UNK N   1      27.862  19.620   7.192  0.00  0.00     0.012 A 
HETATM   32  C   UNK N   1      27.004  19.680   4.932  0.00  0.00     0.012 A 
HETATM   33  C   UNK N   1      26.545  19.015   3.792  0.00  0.00     0.002 A 
HETATM   34  C   UNK N   1      26.493  17.621   3.767  0.00  0.00     0.010 A 
ENDBRANCH  24  25
ENDBRANCH  10  24
TORSDOF 2
ENDMDL
MODEL 6
REMARK VINA RESULT:      -8.5      9.218     13.437
REMARK  2 active torsions:
REMARK  status: ('A' for Active; 'I' for Inactive)
REMARK       I    between atoms: C_2  and  N_1 
REMARK       I    between atoms: N_10  and  C_9 
REMARK    1  A    between atoms: C_11  and  N_10 
REMARK    2  A    between atoms: C_12  and  C_11 
ROOT
HETATM    1  N   UNK N   1      20.523  21.263   2.552  0.00  0.00    -0.234 N 
HETATM    2  C   UNK N   1      21.548  20.391   2.965  0.00  0.00     0.679 A 
HETATM    3  N   UNK N   1      22.848  20.750   2.795  0.00  0.00    -0.191 N 
ATOM      4  HN  UNK N   1      23.070  21.638   2.346  1.00  0.00     0.184 HD
HETATM    5  C   UNK N   1      23.857  19.942   3.210  0.00  0.00     0.067 A 
HETATM    6  C   UNK N   1      25.193  20.351   3.049  0.00  0.00     0.063 A 
HETATM    7  C   UNK N   1      26.183  19.512   3.545  0.00  0.00     0.078 A 
HETATM    8  N   UNK N   1      27.506  19.724   3.566  0.00  0.00    -0.190 N 
HETATM    9  C   UNK N   1      27.992  18.644   4.225  0.00  0.00     0.679 A 
HETATM   10  N   UNK N   1      29.354  18.512   4.570  0.00  0.00    -0.222 N 
HETATM   11  N   UNK N   1      27.029  17.764   4.602  0.00  0.00    -0.190 N 
ATOM     12  HN  UNK N   1      27.141  16.883   5.102  1.00  0.00     0.184 HD
HETATM   13  C   UNK N   1      25.897  18.330   4.159  0.00  0.00     0.077 A 
HETATM   14  C   UNK N   1      24.594  17.871   4.316  0.00  0.00     0.052 A 
HETATM   15  C   UNK N   1      23.554  18.698   3.838  0.00  0.00     0.062 A 
HETATM   16  C   UNK N   1      22.207  18.345   3.985  0.00  0.00     0.272 A 
HETATM   17  O   UNK N   1      21.892  17.292   4.510  0.00  0.00    -0.267 OA
HETATM   18  N   UNK N   1      21.233  19.203   3.546  0.00  0.00    -0.156 N 
HETATM   19  H   UNK N   1      19.580  20.986   2.608  0.00  0.00     0.174 HD
HETATM   20  H   UNK N   1      20.750  22.156   2.205  0.00  0.00     0.174 HD
HETATM   21  H   UNK N   1      28.006  20.487   3.192  0.00  0.00     0.184 HD
HETATM   22  H   UNK N   1      30.023  19.087   4.133  0.00  0.00     0.178 HD
HETATM   23  H   UNK N   1      20.287  18.955   3.655  0.00  0.00     0.187 HD
ENDROOT
BRANCH  10  24
HETATM   24  C   UNK N   1      29.783  17.548   5.551  0.00  0.00     0.177 C 
BRANCH  24  25
HETATM   25  C   UNK N   1      31.214  17.181   5.337  0.00  0.00    -0.029 A 
HETATM   26  C   UNK N   1      32.136  17.198   6.401  0.00  0.00    -0.018 A 
HETATM   27  C   UNK N   1      31.741  17.559   7.700  0.00  0.00     0.013 A 
HETATM   28  C   UNK N   1      33.487  16.849   6.160  0.00  0.00    -0.025 A 
HETATM   29  C   UNK N   1      32.674  17.574   8.741  0.00  0.00     0.001 A 
HETATM   30  C   UNK N   1      34.005  17.226   8.495  0.00  0.00     0.001 A 
HETATM   31  C   UNK N   1      34.410  16.863   7.207  0.00  0.00     0.012 A 
HETATM   32  C   UNK N   1      33.897  16.492   4.873  0.00  0.00     0.012 A 
HETATM   33  C   UNK N   1      32.978  16.483   3.821  0.00  0.00     0.002 A 
HETATM   34  C   UNK N   1      31.646  16.829   4.051  0.00  0.00     0.010 A 
ENDBRANCH  24  25
ENDBRANCH  10  24
TORSDOF 2
ENDMDL
MODEL 7
REMARK VINA RESULT:      -8.5      3.786      9.755
REMARK  2 active torsions:
REMARK  status: ('A' for Active; 'I' for Inactive)
REMARK       I    between atoms: C_2  and  N_1 
REMARK       I    between atoms: N_10  and  C_9 
REMARK    1  A    between atoms: C_11  and  N_10 
REMARK    2  A    between atoms: C_12  and  C_11 
ROOT
HETATM    1  N   UNK N   1      37.290   9.760  12.810  0.00  0.00    -0.234 N 
HETATM    2  C   UNK N   1      36.705  11.014  12.551  0.00  0.00     0.679 A 
HETATM    3  N   UNK N   1      36.792  11.555  11.308  0.00  0.00    -0.191 N 
ATOM      4  HN  UNK N   1      37.303  11.059  10.578  1.00  0.00     0.184 HD
HETATM    5  C   UNK N   1      36.212  12.748  11.021  0.00  0.00     0.067 A 
HETATM    6  C   UNK N   1      36.291  13.272   9.718  0.00  0.00     0.063 A 
HETATM    7  C   UNK N   1      35.631  14.468   9.467  0.00  0.00     0.078 A 
HETATM    8  N   UNK N   1      35.512  15.112   8.298  0.00  0.00    -0.190 N 
HETATM    9  C   UNK N   1      34.711  16.165   8.593  0.00  0.00     0.679 A 
HETATM   10  N   UNK N   1      34.235  17.059   7.611  0.00  0.00    -0.222 N 
HETATM   11  N   UNK N   1      34.339  16.209   9.899  0.00  0.00    -0.190 N 
ATOM     12  HN  UNK N   1      33.748  16.898  10.363  1.00  0.00     0.184 HD
HETATM   13  C   UNK N   1      34.934  15.132  10.431  0.00  0.00     0.077 A 
HETATM   14  C   UNK N   1      34.851  14.669  11.739  0.00  0.00     0.052 A 
HETATM   15  C   UNK N   1      35.497  13.449  12.038  0.00  0.00     0.062 A 
HETATM   16  C   UNK N   1      35.439  12.879  13.314  0.00  0.00     0.272 A 
HETATM   17  O   UNK N   1      34.845  13.436  14.220  0.00  0.00    -0.267 OA
HETATM   18  N   UNK N   1      36.043  11.669  13.542  0.00  0.00    -0.156 N 
HETATM   19  H   UNK N   1      37.293   9.390  13.722  0.00  0.00     0.174 HD
HETATM   20  H   UNK N   1      37.699   9.250  12.074  0.00  0.00     0.174 HD
HETATM   21  H   UNK N   1      35.911  14.874   7.429  0.00  0.00     0.184 HD
HETATM   22  H   UNK N   1      34.663  17.078   6.725  0.00  0.00     0.178 HD
HETATM   23  H   UNK N   1      35.996  11.267  14.439  0.00  0.00     0.187 HD
ENDROOT
BRANCH  10  24
HETATM   24  C   UNK N   1      33.131  17.944   7.882  0.00  0.00     0.177 C 
BRANCH  24  25
HETATM   25  C   UNK N   1      31.875  17.423   7.266  0.00  0.00    -0.029 A 
HETATM   26  C   UNK N   1      30.625  17.627   7.881  0.00  0.00    -0.018 A 
HETATM   27  C   UNK N   1      30.517  18.327   9.093  0.00  0.00     0.013 A 
HETATM   28  C   UNK N   1      29.455  17.114   7.270  0.00  0.00    -0.025 A 
HETATM   29  C   UNK N   1      29.265  18.513   9.689  0.00  0.00     0.001 A 
HETATM   30  C   UNK N   1      28.114  18.006   9.079  0.00  0.00     0.001 A 
HETATM   31  C   UNK N   1      28.210  17.308   7.871  0.00  0.00     0.012 A 
HETATM   32  C   UNK N   1      29.546  16.412   6.066  0.00  0.00     0.012 A 
HETATM   33  C   UNK N   1      30.791  16.209   5.465  0.00  0.00     0.002 A 
HETATM   34  C   UNK N   1      31.948  16.709   6.063  0.00  0.00     0.010 A 
ENDBRANCH  24  25
ENDBRANCH  10  24
TORSDOF 2
ENDMDL
MODEL 8
REMARK VINA RESULT:      -8.3      2.392      3.739
REMARK  2 active torsions:
REMARK  status: ('A' for Active; 'I' for Inactive)
REMARK       I    between atoms: C_2  and  N_1 
REMARK       I    between atoms: N_10  and  C_9 
REMARK    1  A    between atoms: C_11  and  N_10 
REMARK    2  A    between atoms: C_12  and  C_11 
ROOT
HETATM    1  N   UNK N   1      30.513  17.313   4.572  0.00  0.00    -0.234 N 
HETATM    2  C   UNK N   1      31.534  16.683   5.309  0.00  0.00     0.679 A 
HETATM    3  N   UNK N   1      31.896  17.179   6.521  0.00  0.00    -0.191 N 
ATOM      4  HN  UNK N   1      31.441  18.021   6.876  1.00  0.00     0.184 HD
HETATM    5  C   UNK N   1      32.855  16.575   7.267  0.00  0.00     0.067 A 
HETATM    6  C   UNK N   1      33.189  17.092   8.532  0.00  0.00     0.063 A 
HETATM    7  C   UNK N   1      34.136  16.400   9.276  0.00  0.00     0.078 A 
HETATM    8  N   UNK N   1      34.556  16.664  10.521  0.00  0.00    -0.190 N 
HETATM    9  C   UNK N   1      35.410  15.647  10.792  0.00  0.00     0.679 A 
HETATM   10  N   UNK N   1      36.008  15.471  12.058  0.00  0.00    -0.222 N 
HETATM   11  N   UNK N   1      35.547  14.770   9.764  0.00  0.00    -0.190 N 
ATOM     12  HN  UNK N   1      36.128  13.933   9.723  1.00  0.00     0.184 HD
HETATM   13  C   UNK N   1      34.738  15.267   8.818  0.00  0.00     0.077 A 
HETATM   14  C   UNK N   1      34.461  14.734   7.565  0.00  0.00     0.052 A 
HETATM   15  C   UNK N   1      33.495  15.398   6.777  0.00  0.00     0.062 A 
HETATM   16  C   UNK N   1      33.116  14.918   5.518  0.00  0.00     0.272 A 
HETATM   17  O   UNK N   1      33.633  13.920   5.049  0.00  0.00    -0.267 OA
HETATM   18  N   UNK N   1      32.140  15.572   4.812  0.00  0.00    -0.156 N 
HETATM   19  H   UNK N   1      30.290  17.004   3.664  0.00  0.00     0.174 HD
HETATM   20  H   UNK N   1      30.020  18.069   4.966  0.00  0.00     0.174 HD
HETATM   21  H   UNK N   1      34.303  17.419  11.102  0.00  0.00     0.184 HD
HETATM   22  H   UNK N   1      36.006  16.216  12.702  0.00  0.00     0.178 HD
HETATM   23  H   UNK N   1      31.871  15.229   3.929  0.00  0.00     0.187 HD
ENDROOT
BRANCH  10  24
HETATM   24  C   UNK N   1      36.622  14.221  12.425  0.00  0.00     0.177 C 
BRANCH  24  25
HETATM   25  C   UNK N   1      36.294  13.867  13.837  0.00  0.00    -0.029 A 
HETATM   26  C   UNK N   1      35.468  12.766  14.137  0.00  0.00    -0.018 A 
HETATM   27  C   UNK N   1      34.928  11.963  13.119  0.00  0.00     0.013 A 
HETATM   28  C   UNK N   1      35.173  12.464  15.489  0.00  0.00    -0.025 A 
HETATM   29  C   UNK N   1      34.107  10.878  13.440  0.00  0.00     0.001 A 
HETATM   30  C   UNK N   1      33.822  10.584  14.777  0.00  0.00     0.001 A 
HETATM   31  C   UNK N   1      34.355  11.375  15.799  0.00  0.00     0.012 A 
HETATM   32  C   UNK N   1      35.699  13.255  16.513  0.00  0.00     0.012 A 
HETATM   33  C   UNK N   1      36.512  14.349  16.207  0.00  0.00     0.002 A 
HETATM   34  C   UNK N   1      36.804  14.655  14.877  0.00  0.00     0.010 A 
ENDBRANCH  24  25
ENDBRANCH  10  24
TORSDOF 2
ENDMDL
MODEL 9
REMARK VINA RESULT:      -8.3     19.240     23.509
REMARK  2 active torsions:
REMARK  status: ('A' for Active; 'I' for Inactive)
REMARK       I    between atoms: C_2  and  N_1 
REMARK       I    between atoms: N_10  and  C_9 
REMARK    1  A    between atoms: C_11  and  N_10 
REMARK    2  A    between atoms: C_12  and  C_11 
ROOT
HETATM    1  N   UNK N   1      35.302  18.664  -4.413  0.00  0.00    -0.234 N 
HETATM    2  C   UNK N   1      34.150  19.472  -4.444  0.00  0.00     0.679 A 
HETATM    3  N   UNK N   1      33.377  19.504  -5.562  0.00  0.00    -0.191 N 
ATOM      4  HN  UNK N   1      33.653  18.960  -6.379  1.00  0.00     0.184 HD
HETATM    5  C   UNK N   1      32.245  20.250  -5.609  0.00  0.00     0.067 A 
HETATM    6  C   UNK N   1      31.447  20.240  -6.767  0.00  0.00     0.063 A 
HETATM    7  C   UNK N   1      30.269  20.977  -6.740  0.00  0.00     0.078 A 
HETATM    8  N   UNK N   1      29.329  21.060  -7.691  0.00  0.00    -0.190 N 
HETATM    9  C   UNK N   1      28.370  21.833  -7.125  0.00  0.00     0.679 A 
HETATM   10  N   UNK N   1      27.131  22.089  -7.751  0.00  0.00    -0.222 N 
HETATM   11  N   UNK N   1      28.680  22.243  -5.868  0.00  0.00    -0.190 N 
ATOM     12  HN  UNK N   1      28.129  22.829  -5.242  1.00  0.00     0.184 HD
HETATM   13  C   UNK N   1      29.884  21.695  -5.648  0.00  0.00     0.077 A 
HETATM   14  C   UNK N   1      30.652  21.757  -4.491  0.00  0.00     0.052 A 
HETATM   15  C   UNK N   1      31.853  21.014  -4.469  0.00  0.00     0.062 A 
HETATM   16  C   UNK N   1      32.676  20.978  -3.338  0.00  0.00     0.272 A 
HETATM   17  O   UNK N   1      32.391  21.614  -2.339  0.00  0.00    -0.267 OA
HETATM   18  N   UNK N   1      33.807  20.204  -3.350  0.00  0.00    -0.156 N 
HETATM   19  H   UNK N   1      35.906  18.686  -3.636  0.00  0.00     0.174 HD
HETATM   20  H   UNK N   1      35.506  18.074  -5.175  0.00  0.00     0.174 HD
HETATM   21  H   UNK N   1      29.334  20.654  -8.589  0.00  0.00     0.184 HD
HETATM   22  H   UNK N   1      27.028  21.910  -8.713  0.00  0.00     0.178 HD
HETATM   23  H   UNK N   1      34.381  20.176  -2.551  0.00  0.00     0.187 HD
ENDROOT
BRANCH  10  24
HETATM   24  C   UNK N   1      26.014  22.610  -7.005  0.00  0.00     0.177 C 
BRANCH  24  25
HETATM   25  C   UNK N   1      25.990  24.101  -7.065  0.00  0.00    -0.029 A 
HETATM   26  C   UNK N   1      26.130  24.878  -5.899  0.00  0.00    -0.018 A 
HETATM   27  C   UNK N   1      26.298  24.277  -4.641  0.00  0.00     0.013 A 
HETATM   28  C   UNK N   1      26.097  26.290  -5.993  0.00  0.00    -0.025 A 
HETATM   29  C   UNK N   1      26.430  25.068  -3.495  0.00  0.00     0.001 A 
HETATM   30  C   UNK N   1      26.398  26.462  -3.596  0.00  0.00     0.001 A 
HETATM   31  C   UNK N   1      26.233  27.071  -4.843  0.00  0.00     0.012 A 
HETATM   32  C   UNK N   1      25.926  26.903  -7.237  0.00  0.00     0.012 A 
HETATM   33  C   UNK N   1      25.782  26.126  -8.388  0.00  0.00     0.002 A 
HETATM   34  C   UNK N   1      25.811  24.734  -8.302  0.00  0.00     0.010 A 
ENDBRANCH  24  25
ENDBRANCH  10  24
TORSDOF 2
ENDMDL
