REMARK  2 active torsions:
REMARK  status: ('A' for Active; 'I' for Inactive)
REMARK       I    between atoms: C_2  and  N_1 
REMARK       I    between atoms: N_10  and  C_9 
REMARK    1  A    between atoms: C_11  and  N_10 
REMARK    2  A    between atoms: C_12  and  C_11 
ROOT
HETATM    1  N   UNK N   1      -7.606  -1.712   0.699  0.00  0.00    -0.234 N 
HETATM    2  C   UNK N   1      -6.323  -1.155   0.537  0.00  0.00     0.679 A 
HETATM    3  N   UNK N   1      -5.237  -1.969   0.476  0.00  0.00    -0.191 N 
ATOM      4  HN  UNK N   1      -5.358  -2.977   0.573  1.00  0.00     0.184 HD
HETATM    5  C   UNK N   1      -3.992  -1.462   0.290  0.00  0.00     0.067 A 
HETATM    6  C   UNK N   1      -2.888  -2.329   0.200  0.00  0.00     0.063 A 
HETATM    7  C   UNK N   1      -1.645  -1.760  -0.048  0.00  0.00     0.078 A 
HETATM    8  N   UNK N   1      -0.477  -2.388  -0.240  0.00  0.00    -0.190 N 
HETATM    9  C   UNK N   1       0.385  -1.380  -0.520  0.00  0.00     0.679 A 
HETATM   10  N   UNK N   1       1.725  -1.607  -0.899  0.00  0.00    -0.222 N 
HETATM   11  N   UNK N   1      -0.196  -0.152  -0.498  0.00  0.00    -0.190 N 
ATOM     12  HN  UNK N   1       0.238   0.754  -0.671  1.00  0.00     0.184 HD
HETATM   13  C   UNK N   1      -1.475  -0.416  -0.194  0.00  0.00     0.077 A 
HETATM   14  C   UNK N   1      -2.530   0.482  -0.086  0.00  0.00     0.052 A 
HETATM   15  C   UNK N   1      -3.815  -0.053   0.154  0.00  0.00     0.062 A 
HETATM   16  C   UNK N   1      -4.948   0.764   0.239  0.00  0.00     0.272 A 
HETATM   17  O   UNK N   1      -4.854   1.974   0.134  0.00  0.00    -0.267 OA
HETATM   18  N   UNK N   1      -6.180   0.193   0.426  0.00  0.00    -0.156 N 
HETATM   19  H   UNK N   1      -8.392  -1.130   0.813  0.00  0.00     0.174 HD
HETATM   20  H   UNK N   1      -7.718  -2.690   0.699  0.00  0.00     0.174 HD
HETATM   21  H   UNK N   1      -0.290  -3.354  -0.190  0.00  0.00     0.184 HD
HETATM   22  H   UNK N   1       2.131  -2.489  -0.738  0.00  0.00     0.178 HD
HETATM   23  H   UNK N   1      -6.976   0.769   0.480  0.00  0.00     0.187 HD
ENDROOT
BRANCH  10  24
HETATM   24  C   UNK N   1       2.510  -0.569  -1.517  0.00  0.00     0.177 C 
BRANCH  24  25
HETATM   25  C   UNK N   1       3.673  -0.205  -0.655  0.00  0.00    -0.029 A 
HETATM   26  C   UNK N   1       3.863   1.118  -0.212  0.00  0.00    -0.018 A 
HETATM   27  C   UNK N   1       2.965   2.139  -0.564  0.00  0.00     0.013 A 
HETATM   28  C   UNK N   1       4.981   1.428   0.600  0.00  0.00    -0.025 A 
HETATM   29  C   UNK N   1       3.176   3.447  -0.117  0.00  0.00     0.001 A 
HETATM   30  C   UNK N   1       4.281   3.745   0.686  0.00  0.00     0.001 A 
HETATM   31  C   UNK N   1       5.181   2.737   1.044  0.00  0.00     0.012 A 
HETATM   32  C   UNK N   1       5.886   0.425   0.955  0.00  0.00     0.012 A 
HETATM   33  C   UNK N   1       5.694  -0.884   0.507  0.00  0.00     0.002 A 
HETATM   34  C   UNK N   1       4.596  -1.196  -0.296  0.00  0.00     0.010 A 
ENDBRANCH  24  25
ENDBRANCH  10  24
TORSDOF 2
