REMARK  7 active torsions:
REMARK  status: ('A' for Active; 'I' for Inactive)
REMARK    1  A    between atoms: C_1  and  C_7 
REMARK    2  A    between atoms: C_4  and  N_22 
REMARK    3  A    between atoms: C_7  and  C_8 
REMARK    4  A    between atoms: C_8  and  O_9 
REMARK    5  A    between atoms: C_13  and  N_21 
REMARK    6  A    between atoms: C_14  and  C_19 
REMARK       I    between atoms: C_18  and  N_22 
REMARK       I    between atoms: C_19  and  N_23 
REMARK    7  A    between atoms: N_21  and  C_27 
ROOT
HETATM    1  N   UNK N   1      -0.046  -1.287  -0.303  0.00  0.00    -0.175 N 
ATOM      2  HN  UNK N   1       0.852  -1.770  -0.297  1.00  0.00     0.186 HD
HETATM    3  C   UNK N   1      -1.185  -2.017  -0.168  0.00  0.00     0.138 A 
HETATM    4  C   UNK N   1      -2.435  -1.353  -0.206  0.00  0.00     0.092 A 
HETATM    5  C   UNK N   1      -2.426   0.038  -0.368  0.00  0.00     0.127 A 
HETATM    6  N   UNK N   1      -1.255   0.710  -0.479  0.00  0.00    -0.201 N 
ATOM      7  HN  UNK N   1      -1.267   1.724  -0.592  1.00  0.00     0.183 HD
HETATM    8  C   UNK N   1      -0.065   0.054  -0.444  0.00  0.00     0.684 A 
HETATM    9  N   UNK N   1       1.156   0.758  -0.595  0.00  0.00    -0.192 N 
HETATM   10  H   UNK N   1       1.963   0.264  -0.868  0.00  0.00     0.184 HD
ENDROOT
BRANCH   9  11
HETATM   11  C   UNK N   1       1.248   2.150  -0.365  0.00  0.00     0.049 A 
HETATM   12  C   UNK N   1       2.139   2.921  -1.116  0.00  0.00     0.030 A 
HETATM   13  C   UNK N   1       2.153   4.311  -0.963  0.00  0.00     0.010 A 
HETATM   14  C   UNK N   1       1.298   4.923  -0.039  0.00  0.00    -0.048 A 
HETATM   15  C   UNK N   1       0.452   4.144   0.754  0.00  0.00     0.010 A 
HETATM   16  C   UNK N   1       0.422   2.765   0.585  0.00  0.00     0.030 A 
BRANCH  14  17
HETATM   17  C   UNK N   1       1.228   6.411   0.035  0.00  0.00     0.148 C 
BRANCH  17  18
HETATM   18  C   UNK N   1      -0.180   6.892  -0.188  0.00  0.00     0.143 C 
HETATM   19  O   UNK N   1      -0.869   6.407  -1.074  0.00  0.00    -0.650 OA
BRANCH  18  20
HETATM   20  O   UNK N   1      -0.692   7.848   0.607  0.00  0.00    -0.776 OA
HETATM   21  H   UNK N   1      -0.293   8.490   1.161  0.00  0.00     0.167 HD
ENDBRANCH  18  20
ENDBRANCH  17  18
ENDBRANCH  14  17
ENDBRANCH   9  11
BRANCH   3  22
HETATM   22  N   UNK N   1      -1.098  -3.431  -0.009  0.00  0.00    -0.341 N 
HETATM   23  H   UNK N   1      -1.939  -3.942   0.013  0.00  0.00     0.167 HD
BRANCH  22  24
HETATM   24  C   UNK N   1       0.125  -4.155   0.122  0.00  0.00     0.034 A 
HETATM   25  C   UNK N   1       0.099  -5.554   0.102  0.00  0.00     0.029 A 
HETATM   26  C   UNK N   1       1.290  -6.283   0.210  0.00  0.00     0.003 A 
HETATM   27  C   UNK N   1       2.513  -5.617   0.343  0.00  0.00     0.007 A 
HETATM   28  C   UNK N   1       2.546  -4.223   0.372  0.00  0.00    -0.060 A 
HETATM   29  C   UNK N   1       1.361  -3.501   0.263  0.00  0.00     0.036 A 
HETATM   30  C   UNK N   1       3.839  -3.503   0.514  0.00  0.00     0.048 C 
ENDBRANCH  22  24
ENDBRANCH   3  22
BRANCH   4  31
HETATM   31  C   UNK N   1      -3.748  -2.042  -0.086  0.00  0.00     0.254 C 
HETATM   32  O   UNK N   1      -4.782  -1.394  -0.155  0.00  0.00    -0.268 OA
HETATM   33  N   UNK N   1      -3.823  -3.375   0.099  0.00  0.00    -0.366 N 
HETATM   34  H   UNK N   1      -4.694  -3.815   0.234  0.00  0.00     0.159 HD
HETATM   35  H   UNK N   1      -2.999  -3.914   0.099  0.00  0.00     0.159 HD
ENDBRANCH   4  31
TORSDOF 7
