MODEL 1
REMARK VINA RESULT:      -8.1      0.000      0.000
REMARK  7 active torsions:
REMARK  status: ('A' for Active; 'I' for Inactive)
REMARK    1  A    between atoms: C_1  and  C_7 
REMARK    2  A    between atoms: C_4  and  N_22 
REMARK    3  A    between atoms: C_7  and  C_8 
REMARK    4  A    between atoms: C_8  and  O_9 
REMARK    5  A    between atoms: C_13  and  N_21 
REMARK    6  A    between atoms: C_14  and  C_19 
REMARK       I    between atoms: C_18  and  N_22 
REMARK       I    between atoms: C_19  and  N_23 
REMARK    7  A    between atoms: N_21  and  C_27 
ROOT
HETATM    1  N   UNK N   1      35.205  15.683  11.342  0.00  0.00    -0.175 N 
ATOM      2  HN  UNK N   1      34.727  16.202  12.078  1.00  0.00     0.186 HD
HETATM    3  C   UNK N   1      36.149  14.769  11.691  0.00  0.00     0.138 A 
HETATM    4  C   UNK N   1      36.836  14.067  10.670  0.00  0.00     0.092 A 
HETATM    5  C   UNK N   1      36.489  14.349   9.343  0.00  0.00     0.127 A 
HETATM    6  N   UNK N   1      35.526  15.260   9.062  0.00  0.00    -0.201 N 
ATOM      7  HN  UNK N   1      35.283  15.449   8.090  1.00  0.00     0.183 HD
HETATM    8  C   UNK N   1      34.880  15.925  10.056  0.00  0.00     0.684 A 
HETATM    9  N   UNK N   1      33.897  16.902   9.756  0.00  0.00    -0.192 N 
HETATM   10  H   UNK N   1      33.665  17.573  10.438  0.00  0.00     0.184 HD
ENDROOT
BRANCH   9  11
HETATM   11  C   UNK N   1      33.242  16.940   8.504  0.00  0.00     0.049 A 
HETATM   12  C   UNK N   1      31.959  16.402   8.375  0.00  0.00     0.030 A 
HETATM   13  C   UNK N   1      31.269  16.535   7.166  0.00  0.00     0.010 A 
HETATM   14  C   UNK N   1      31.875  17.178   6.080  0.00  0.00    -0.048 A 
HETATM   15  C   UNK N   1      33.181  17.661   6.193  0.00  0.00     0.010 A 
HETATM   16  C   UNK N   1      33.857  17.549   7.402  0.00  0.00     0.030 A 
BRANCH  14  17
HETATM   17  C   UNK N   1      31.094  17.426   4.834  0.00  0.00     0.148 C 
BRANCH  17  18
HETATM   18  C   UNK N   1      31.688  16.677   3.672  0.00  0.00     0.143 C 
HETATM   19  O   UNK N   1      31.913  15.478   3.756  0.00  0.00    -0.650 OA
BRANCH  18  20
HETATM   20  O   UNK N   1      31.955  17.327   2.526  0.00  0.00    -0.776 OA
HETATM   21  H   UNK N   1      31.731  17.151   1.633  0.00  0.00     0.167 HD
ENDBRANCH  18  20
ENDBRANCH  17  18
ENDBRANCH  14  17
ENDBRANCH   9  11
BRANCH   3  22
HETATM   22  N   UNK N   1      36.438  14.548  13.069  0.00  0.00    -0.341 N 
HETATM   23  H   UNK N   1      37.174  15.063  13.471  0.00  0.00     0.167 HD
BRANCH  22  24
HETATM   24  C   UNK N   1      35.733  13.631  13.905  0.00  0.00     0.034 A 
HETATM   25  C   UNK N   1      34.979  12.609  13.319  0.00  0.00     0.029 A 
HETATM   26  C   UNK N   1      34.295  11.687  14.122  0.00  0.00     0.003 A 
HETATM   27  C   UNK N   1      34.358  11.786  15.516  0.00  0.00     0.007 A 
HETATM   28  C   UNK N   1      35.101  12.807  16.108  0.00  0.00    -0.060 A 
HETATM   29  C   UNK N   1      35.781  13.720  15.307  0.00  0.00     0.036 A 
HETATM   30  C   UNK N   1      35.175  12.923  17.588  0.00  0.00     0.048 C 
ENDBRANCH  22  24
ENDBRANCH   3  22
BRANCH   4  31
HETATM   31  C   UNK N   1      37.898  13.057  10.924  0.00  0.00     0.254 C 
HETATM   32  O   UNK N   1      37.601  11.971  11.400  0.00  0.00    -0.268 OA
HETATM   33  N   UNK N   1      39.189  13.315  10.638  0.00  0.00    -0.366 N 
HETATM   34  H   UNK N   1      39.893  12.662  10.862  0.00  0.00     0.159 HD
HETATM   35  H   UNK N   1      39.432  14.163  10.202  0.00  0.00     0.159 HD
ENDBRANCH   4  31
TORSDOF 7
ENDMDL
MODEL 2
REMARK VINA RESULT:      -8.0      1.285      1.806
REMARK  7 active torsions:
REMARK  status: ('A' for Active; 'I' for Inactive)
REMARK    1  A    between atoms: C_1  and  C_7 
REMARK    2  A    between atoms: C_4  and  N_22 
REMARK    3  A    between atoms: C_7  and  C_8 
REMARK    4  A    between atoms: C_8  and  O_9 
REMARK    5  A    between atoms: C_13  and  N_21 
REMARK    6  A    between atoms: C_14  and  C_19 
REMARK       I    between atoms: C_18  and  N_22 
REMARK       I    between atoms: C_19  and  N_23 
REMARK    7  A    between atoms: N_21  and  C_27 
ROOT
HETATM    1  N   UNK N   1      34.247  14.065  11.325  0.00  0.00    -0.175 N 
ATOM      2  HN  UNK N   1      33.393  14.028  11.882  1.00  0.00     0.186 HD
HETATM    3  C   UNK N   1      35.315  13.317  11.711  0.00  0.00     0.138 A 
HETATM    4  C   UNK N   1      36.511  13.388  10.957  0.00  0.00     0.092 A 
HETATM    5  C   UNK N   1      36.522  14.226   9.835  0.00  0.00     0.127 A 
HETATM    6  N   UNK N   1      35.418  14.932   9.493  0.00  0.00    -0.201 N 
ATOM      7  HN  UNK N   1      35.442  15.534   8.670  1.00  0.00     0.183 HD
HETATM    8  C   UNK N   1      34.279  14.853  10.232  0.00  0.00     0.684 A 
HETATM    9  N   UNK N   1      33.138  15.620   9.890  0.00  0.00    -0.192 N 
HETATM   10  H   UNK N   1      32.451  15.788  10.575  0.00  0.00     0.184 HD
ENDROOT
BRANCH   9  11
HETATM   11  C   UNK N   1      32.958  16.152   8.592  0.00  0.00     0.049 A 
HETATM   12  C   UNK N   1      33.444  17.426   8.289  0.00  0.00     0.030 A 
HETATM   13  C   UNK N   1      33.361  17.908   6.979  0.00  0.00     0.010 A 
HETATM   14  C   UNK N   1      32.765  17.127   5.982  0.00  0.00    -0.048 A 
HETATM   15  C   UNK N   1      32.224  15.879   6.301  0.00  0.00     0.010 A 
HETATM   16  C   UNK N   1      32.328  15.391   7.598  0.00  0.00     0.030 A 
BRANCH  14  17
HETATM   17  C   UNK N   1      32.786  17.590   4.565  0.00  0.00     0.148 C 
BRANCH  17  18
HETATM   18  C   UNK N   1      31.468  17.316   3.892  0.00  0.00     0.143 C 
HETATM   19  O   UNK N   1      31.386  16.483   3.001  0.00  0.00    -0.650 OA
BRANCH  18  20
HETATM   20  O   UNK N   1      30.367  17.978   4.290  0.00  0.00    -0.776 OA
HETATM   21  H   UNK N   1      29.690  17.767   4.902  0.00  0.00     0.167 HD
ENDBRANCH  18  20
ENDBRANCH  17  18
ENDBRANCH  14  17
ENDBRANCH   9  11
BRANCH   3  22
HETATM   22  N   UNK N   1      35.213  12.493  12.870  0.00  0.00    -0.341 N 
HETATM   23  H   UNK N   1      34.991  11.543  12.738  0.00  0.00     0.167 HD
BRANCH  22  24
HETATM   24  C   UNK N   1      35.411  12.952  14.206  0.00  0.00     0.034 A 
HETATM   25  C   UNK N   1      34.697  12.352  15.250  0.00  0.00     0.029 A 
HETATM   26  C   UNK N   1      34.891  12.775  16.571  0.00  0.00     0.003 A 
HETATM   27  C   UNK N   1      35.796  13.803  16.855  0.00  0.00     0.007 A 
HETATM   28  C   UNK N   1      36.505  14.411  15.820  0.00  0.00    -0.060 A 
HETATM   29  C   UNK N   1      36.312  13.988  14.508  0.00  0.00     0.036 A 
HETATM   30  C   UNK N   1      37.469  15.505  16.108  0.00  0.00     0.048 C 
ENDBRANCH  22  24
ENDBRANCH   3  22
BRANCH   4  31
HETATM   31  C   UNK N   1      37.750  12.633  11.287  0.00  0.00     0.254 C 
HETATM   32  O   UNK N   1      37.671  11.572  11.889  0.00  0.00    -0.268 OA
HETATM   33  N   UNK N   1      38.965  13.095  10.933  0.00  0.00    -0.366 N 
HETATM   34  H   UNK N   1      39.783  12.617  11.204  0.00  0.00     0.159 HD
HETATM   35  H   UNK N   1      39.036  13.919  10.398  0.00  0.00     0.159 HD
ENDBRANCH   4  31
TORSDOF 7
ENDMDL
MODEL 3
REMARK VINA RESULT:      -7.3      3.090      9.544
REMARK  7 active torsions:
REMARK  status: ('A' for Active; 'I' for Inactive)
REMARK    1  A    between atoms: C_1  and  C_7 
REMARK    2  A    between atoms: C_4  and  N_22 
REMARK    3  A    between atoms: C_7  and  C_8 
REMARK    4  A    between atoms: C_8  and  O_9 
REMARK    5  A    between atoms: C_13  and  N_21 
REMARK    6  A    between atoms: C_14  and  C_19 
REMARK       I    between atoms: C_18  and  N_22 
REMARK       I    between atoms: C_19  and  N_23 
REMARK    7  A    between atoms: N_21  and  C_27 
ROOT
HETATM    1  N   UNK N   1      34.536  12.620  11.469  0.00  0.00    -0.175 N 
ATOM      2  HN  UNK N   1      33.530  12.624  11.300  1.00  0.00     0.186 HD
HETATM    3  C   UNK N   1      35.368  13.058  10.487  0.00  0.00     0.138 A 
HETATM    4  C   UNK N   1      36.767  13.026  10.707  0.00  0.00     0.092 A 
HETATM    5  C   UNK N   1      37.218  12.551  11.945  0.00  0.00     0.127 A 
HETATM    6  N   UNK N   1      36.336  12.144  12.889  0.00  0.00    -0.201 N 
ATOM      7  HN  UNK N   1      36.682  11.805  13.787  1.00  0.00     0.183 HD
HETATM    8  C   UNK N   1      34.997  12.180  12.658  0.00  0.00     0.684 A 
HETATM    9  N   UNK N   1      34.079  11.721  13.636  0.00  0.00    -0.192 N 
HETATM   10  H   UNK N   1      33.169  11.470  13.358  0.00  0.00     0.184 HD
ENDROOT
BRANCH   9  11
HETATM   11  C   UNK N   1      34.435  11.614  15.000  0.00  0.00     0.049 A 
HETATM   12  C   UNK N   1      34.503  10.356  15.604  0.00  0.00     0.030 A 
HETATM   13  C   UNK N   1      34.958  10.242  16.922  0.00  0.00     0.010 A 
HETATM   14  C   UNK N   1      35.315  11.389  17.641  0.00  0.00    -0.048 A 
HETATM   15  C   UNK N   1      35.187  12.651  17.055  0.00  0.00     0.010 A 
HETATM   16  C   UNK N   1      34.757  12.761  15.738  0.00  0.00     0.030 A 
BRANCH  14  17
HETATM   17  C   UNK N   1      35.914  11.256  19.001  0.00  0.00     0.148 C 
BRANCH  17  18
HETATM   18  C   UNK N   1      35.104  12.012  20.018  0.00  0.00     0.143 C 
HETATM   19  O   UNK N   1      35.073  13.234  20.003  0.00  0.00    -0.650 OA
BRANCH  18  20
HETATM   20  O   UNK N   1      34.392  11.338  20.939  0.00  0.00    -0.776 OA
HETATM   21  H   UNK N   1      34.551  10.537  21.398  0.00  0.00     0.167 HD
ENDBRANCH  18  20
ENDBRANCH  17  18
ENDBRANCH  14  17
ENDBRANCH   9  11
BRANCH   3  22
HETATM   22  N   UNK N   1      34.819  13.524   9.257  0.00  0.00    -0.341 N 
HETATM   23  H   UNK N   1      34.812  12.902   8.494  0.00  0.00     0.167 HD
BRANCH  22  24
HETATM   24  C   UNK N   1      34.279  14.830   9.057  0.00  0.00     0.034 A 
HETATM   25  C   UNK N   1      35.071  15.949   9.338  0.00  0.00     0.029 A 
HETATM   26  C   UNK N   1      34.567  17.239   9.130  0.00  0.00     0.003 A 
HETATM   27  C   UNK N   1      33.267  17.417   8.644  0.00  0.00     0.007 A 
HETATM   28  C   UNK N   1      32.470  16.307   8.369  0.00  0.00    -0.060 A 
HETATM   29  C   UNK N   1      32.973  15.026   8.575  0.00  0.00     0.036 A 
HETATM   30  C   UNK N   1      31.086  16.482   7.854  0.00  0.00     0.048 C 
ENDBRANCH  22  24
ENDBRANCH   3  22
BRANCH   4  31
HETATM   31  C   UNK N   1      37.777  13.462   9.706  0.00  0.00     0.254 C 
HETATM   32  O   UNK N   1      37.911  12.835   8.666  0.00  0.00    -0.268 OA
HETATM   33  N   UNK N   1      38.554  14.542   9.924  0.00  0.00    -0.366 N 
HETATM   34  H   UNK N   1      39.259  14.790   9.282  0.00  0.00     0.159 HD
HETATM   35  H   UNK N   1      38.416  15.087  10.732  0.00  0.00     0.159 HD
ENDBRANCH   4  31
TORSDOF 7
ENDMDL
MODEL 4
REMARK VINA RESULT:      -7.3     15.978     20.708
REMARK  7 active torsions:
REMARK  status: ('A' for Active; 'I' for Inactive)
REMARK    1  A    between atoms: C_1  and  C_7 
REMARK    2  A    between atoms: C_4  and  N_22 
REMARK    3  A    between atoms: C_7  and  C_8 
REMARK    4  A    between atoms: C_8  and  O_9 
REMARK    5  A    between atoms: C_13  and  N_21 
REMARK    6  A    between atoms: C_14  and  C_19 
REMARK       I    between atoms: C_18  and  N_22 
REMARK       I    between atoms: C_19  and  N_23 
REMARK    7  A    between atoms: N_21  and  C_27 
ROOT
HETATM    1  N   UNK N   1      27.924  25.196  -5.265  0.00  0.00    -0.175 N 
ATOM      2  HN  UNK N   1      28.083  26.015  -4.680  1.00  0.00     0.186 HD
HETATM    3  C   UNK N   1      26.965  25.252  -6.227  0.00  0.00     0.138 A 
HETATM    4  C   UNK N   1      26.721  24.106  -7.022  0.00  0.00     0.092 A 
HETATM    5  C   UNK N   1      27.501  22.969  -6.777  0.00  0.00     0.127 A 
HETATM    6  N   UNK N   1      28.454  22.982  -5.815  0.00  0.00    -0.201 N 
ATOM      7  HN  UNK N   1      29.016  22.146  -5.653  1.00  0.00     0.183 HD
HETATM    8  C   UNK N   1      28.671  24.092  -5.060  0.00  0.00     0.684 A 
HETATM    9  N   UNK N   1      29.646  24.089  -4.031  0.00  0.00    -0.192 N 
HETATM   10  H   UNK N   1      29.587  24.762  -3.314  0.00  0.00     0.184 HD
ENDROOT
BRANCH   9  11
HETATM   11  C   UNK N   1      30.700  23.148  -4.004  0.00  0.00     0.049 A 
HETATM   12  C   UNK N   1      31.891  23.418  -4.683  0.00  0.00     0.030 A 
HETATM   13  C   UNK N   1      32.970  22.536  -4.568  0.00  0.00     0.010 A 
HETATM   14  C   UNK N   1      32.846  21.373  -3.800  0.00  0.00    -0.048 A 
HETATM   15  C   UNK N   1      31.635  21.075  -3.172  0.00  0.00     0.010 A 
HETATM   16  C   UNK N   1      30.570  21.963  -3.268  0.00  0.00     0.030 A 
BRANCH  14  17
HETATM   17  C   UNK N   1      34.035  20.499  -3.580  0.00  0.00     0.148 C 
BRANCH  17  18
HETATM   18  C   UNK N   1      33.869  19.182  -4.289  0.00  0.00     0.143 C 
HETATM   19  O   UNK N   1      34.009  19.108  -5.502  0.00  0.00    -0.650 OA
BRANCH  18  20
HETATM   20  O   UNK N   1      33.586  18.074  -3.582  0.00  0.00    -0.776 OA
HETATM   21  H   UNK N   1      34.099  17.327  -3.345  0.00  0.00     0.167 HD
ENDBRANCH  18  20
ENDBRANCH  17  18
ENDBRANCH  14  17
ENDBRANCH   9  11
BRANCH   3  22
HETATM   22  N   UNK N   1      26.218  26.453  -6.404  0.00  0.00    -0.341 N 
HETATM   23  H   UNK N   1      25.416  26.414  -6.974  0.00  0.00     0.167 HD
BRANCH  22  24
HETATM   24  C   UNK N   1      26.554  27.708  -5.812  0.00  0.00     0.034 A 
HETATM   25  C   UNK N   1      25.871  28.130  -4.666  0.00  0.00     0.029 A 
HETATM   26  C   UNK N   1      26.198  29.349  -4.059  0.00  0.00     0.003 A 
HETATM   27  C   UNK N   1      27.208  30.154  -4.597  0.00  0.00     0.007 A 
HETATM   28  C   UNK N   1      27.888  29.744  -5.744  0.00  0.00    -0.060 A 
HETATM   29  C   UNK N   1      27.561  28.531  -6.344  0.00  0.00     0.036 A 
HETATM   30  C   UNK N   1      28.962  30.591  -6.326  0.00  0.00     0.048 C 
ENDBRANCH  22  24
ENDBRANCH   3  22
BRANCH   4  31
HETATM   31  C   UNK N   1      25.690  24.039  -8.092  0.00  0.00     0.254 C 
HETATM   32  O   UNK N   1      25.650  24.907  -8.952  0.00  0.00    -0.268 OA
HETATM   33  N   UNK N   1      24.792  23.035  -8.136  0.00  0.00    -0.366 N 
HETATM   34  H   UNK N   1      24.078  23.028  -8.814  0.00  0.00     0.159 HD
HETATM   35  H   UNK N   1      24.850  22.300  -7.482  0.00  0.00     0.159 HD
ENDBRANCH   4  31
TORSDOF 7
ENDMDL
MODEL 5
REMARK VINA RESULT:      -7.2      3.482      9.782
REMARK  7 active torsions:
REMARK  status: ('A' for Active; 'I' for Inactive)
REMARK    1  A    between atoms: C_1  and  C_7 
REMARK    2  A    between atoms: C_4  and  N_22 
REMARK    3  A    between atoms: C_7  and  C_8 
REMARK    4  A    between atoms: C_8  and  O_9 
REMARK    5  A    between atoms: C_13  and  N_21 
REMARK    6  A    between atoms: C_14  and  C_19 
REMARK       I    between atoms: C_18  and  N_22 
REMARK       I    between atoms: C_19  and  N_23 
REMARK    7  A    between atoms: N_21  and  C_27 
ROOT
HETATM    1  N   UNK N   1      31.415  16.948   6.618  0.00  0.00    -0.175 N 
ATOM      2  HN  UNK N   1      31.778  16.647   5.714  1.00  0.00     0.186 HD
HETATM    3  C   UNK N   1      30.183  17.520   6.674  0.00  0.00     0.138 A 
HETATM    4  C   UNK N   1      29.689  17.967   7.924  0.00  0.00     0.092 A 
HETATM    5  C   UNK N   1      30.502  17.777   9.048  0.00  0.00     0.127 A 
HETATM    6  N   UNK N   1      31.713  17.183   8.929  0.00  0.00    -0.201 N 
ATOM      7  HN  UNK N   1      32.291  17.049   9.759  1.00  0.00     0.183 HD
HETATM    8  C   UNK N   1      32.172  16.764   7.719  0.00  0.00     0.684 A 
HETATM    9  N   UNK N   1      33.455  16.174   7.595  0.00  0.00    -0.192 N 
HETATM   10  H   UNK N   1      33.890  16.157   6.712  0.00  0.00     0.184 HD
ENDROOT
BRANCH   9  11
HETATM   11  C   UNK N   1      34.127  15.610   8.703  0.00  0.00     0.049 A 
HETATM   12  C   UNK N   1      33.965  14.253   8.997  0.00  0.00     0.030 A 
HETATM   13  C   UNK N   1      34.712  13.673  10.027  0.00  0.00     0.010 A 
HETATM   14  C   UNK N   1      35.596  14.456  10.779  0.00  0.00    -0.048 A 
HETATM   15  C   UNK N   1      35.710  15.824  10.522  0.00  0.00     0.010 A 
HETATM   16  C   UNK N   1      34.985  16.396   9.484  0.00  0.00     0.030 A 
BRANCH  14  17
HETATM   17  C   UNK N   1      36.480  13.811  11.793  0.00  0.00     0.148 C 
BRANCH  17  18
HETATM   18  C   UNK N   1      36.029  14.150  13.188  0.00  0.00     0.143 C 
HETATM   19  O   UNK N   1      34.979  13.703  13.627  0.00  0.00    -0.650 OA
BRANCH  18  20
HETATM   20  O   UNK N   1      36.797  14.935  13.964  0.00  0.00    -0.776 OA
HETATM   21  H   UNK N   1      37.721  15.087  13.991  0.00  0.00     0.167 HD
ENDBRANCH  18  20
ENDBRANCH  17  18
ENDBRANCH  14  17
ENDBRANCH   9  11
BRANCH   3  22
HETATM   22  N   UNK N   1      29.426  17.674   5.476  0.00  0.00    -0.341 N 
HETATM   23  H   UNK N   1      29.314  18.584   5.119  0.00  0.00     0.167 HD
BRANCH  22  24
HETATM   24  C   UNK N   1      28.818  16.598   4.761  0.00  0.00     0.034 A 
HETATM   25  C   UNK N   1      29.021  16.491   3.381  0.00  0.00     0.029 A 
HETATM   26  C   UNK N   1      28.449  15.432   2.664  0.00  0.00     0.003 A 
HETATM   27  C   UNK N   1      27.668  14.478   3.323  0.00  0.00     0.007 A 
HETATM   28  C   UNK N   1      27.454  14.583   4.698  0.00  0.00    -0.060 A 
HETATM   29  C   UNK N   1      28.025  15.635   5.408  0.00  0.00     0.036 A 
HETATM   30  C   UNK N   1      26.624  13.575   5.410  0.00  0.00     0.048 C 
ENDBRANCH  22  24
ENDBRANCH   3  22
BRANCH   4  31
HETATM   31  C   UNK N   1      28.366  18.622   8.110  0.00  0.00     0.254 C 
HETATM   32  O   UNK N   1      27.992  19.472   7.315  0.00  0.00    -0.268 OA
HETATM   33  N   UNK N   1      27.566  18.297   9.144  0.00  0.00    -0.366 N 
HETATM   34  H   UNK N   1      26.717  18.776   9.292  0.00  0.00     0.159 HD
HETATM   35  H   UNK N   1      27.831  17.574   9.758  0.00  0.00     0.159 HD
ENDBRANCH   4  31
TORSDOF 7
ENDMDL
MODEL 6
REMARK VINA RESULT:      -7.1      6.907     12.196
REMARK  7 active torsions:
REMARK  status: ('A' for Active; 'I' for Inactive)
REMARK    1  A    between atoms: C_1  and  C_7 
REMARK    2  A    between atoms: C_4  and  N_22 
REMARK    3  A    between atoms: C_7  and  C_8 
REMARK    4  A    between atoms: C_8  and  O_9 
REMARK    5  A    between atoms: C_13  and  N_21 
REMARK    6  A    between atoms: C_14  and  C_19 
REMARK       I    between atoms: C_18  and  N_22 
REMARK       I    between atoms: C_19  and  N_23 
REMARK    7  A    between atoms: N_21  and  C_27 
ROOT
HETATM    1  N   UNK N   1      25.947  17.153   5.474  0.00  0.00    -0.175 N 
ATOM      2  HN  UNK N   1      25.976  17.897   4.777  1.00  0.00     0.186 HD
HETATM    3  C   UNK N   1      24.891  16.297   5.476  0.00  0.00     0.138 A 
HETATM    4  C   UNK N   1      24.832  15.281   6.461  0.00  0.00     0.092 A 
HETATM    5  C   UNK N   1      25.886  15.207   7.380  0.00  0.00     0.127 A 
HETATM    6  N   UNK N   1      26.920  16.080   7.313  0.00  0.00    -0.201 N 
ATOM      7  HN  UNK N   1      27.681  16.008   7.988  1.00  0.00     0.183 HD
HETATM    8  C   UNK N   1      26.956  17.050   6.362  0.00  0.00     0.684 A 
HETATM    9  N   UNK N   1      28.023  17.983   6.318  0.00  0.00    -0.192 N 
HETATM   10  H   UNK N   1      27.894  18.836   5.843  0.00  0.00     0.184 HD
ENDROOT
BRANCH   9  11
HETATM   11  C   UNK N   1      29.267  17.723   6.937  0.00  0.00     0.049 A 
HETATM   12  C   UNK N   1      30.186  16.869   6.320  0.00  0.00     0.030 A 
HETATM   13  C   UNK N   1      31.456  16.697   6.879  0.00  0.00     0.010 A 
HETATM   14  C   UNK N   1      31.794  17.354   8.068  0.00  0.00    -0.048 A 
HETATM   15  C   UNK N   1      30.853  18.158   8.715  0.00  0.00     0.010 A 
HETATM   16  C   UNK N   1      29.599  18.347   8.147  0.00  0.00     0.030 A 
BRANCH  14  17
HETATM   17  C   UNK N   1      33.187  17.265   8.595  0.00  0.00     0.148 C 
BRANCH  17  18
HETATM   18  C   UNK N   1      34.109  18.168   7.822  0.00  0.00     0.143 C 
HETATM   19  O   UNK N   1      34.640  19.126   8.367  0.00  0.00    -0.650 OA
BRANCH  18  20
HETATM   20  O   UNK N   1      34.369  17.908   6.529  0.00  0.00    -0.776 OA
HETATM   21  H   UNK N   1      33.999  17.299   5.920  0.00  0.00     0.167 HD
ENDBRANCH  18  20
ENDBRANCH  17  18
ENDBRANCH  14  17
ENDBRANCH   9  11
BRANCH   3  22
HETATM   22  N   UNK N   1      23.861  16.449   4.502  0.00  0.00    -0.341 N 
HETATM   23  H   UNK N   1      23.145  17.097   4.690  0.00  0.00     0.167 HD
BRANCH  22  24
HETATM   24  C   UNK N   1      23.799  15.725   3.273  0.00  0.00     0.034 A 
HETATM   25  C   UNK N   1      24.987  15.375   2.622  0.00  0.00     0.029 A 
HETATM   26  C   UNK N   1      24.948  14.648   1.426  0.00  0.00     0.003 A 
HETATM   27  C   UNK N   1      23.720  14.271   0.871  0.00  0.00     0.007 A 
HETATM   28  C   UNK N   1      22.532  14.624   1.510  0.00  0.00    -0.060 A 
HETATM   29  C   UNK N   1      22.573  15.345   2.700  0.00  0.00     0.036 A 
HETATM   30  C   UNK N   1      21.220  14.230   0.931  0.00  0.00     0.048 C 
ENDBRANCH  22  24
ENDBRANCH   3  22
BRANCH   4  31
HETATM   31  C   UNK N   1      23.723  14.297   6.577  0.00  0.00     0.254 C 
HETATM   32  O   UNK N   1      23.605  13.414   5.740  0.00  0.00    -0.268 OA
HETATM   33  N   UNK N   1      22.838  14.357   7.592  0.00  0.00    -0.366 N 
HETATM   34  H   UNK N   1      22.074  13.736   7.629  0.00  0.00     0.159 HD
HETATM   35  H   UNK N   1      22.957  15.029   8.302  0.00  0.00     0.159 HD
ENDBRANCH   4  31
TORSDOF 7
ENDMDL
MODEL 7
REMARK VINA RESULT:      -6.9      2.601      3.828
REMARK  7 active torsions:
REMARK  status: ('A' for Active; 'I' for Inactive)
REMARK    1  A    between atoms: C_1  and  C_7 
REMARK    2  A    between atoms: C_4  and  N_22 
REMARK    3  A    between atoms: C_7  and  C_8 
REMARK    4  A    between atoms: C_8  and  O_9 
REMARK    5  A    between atoms: C_13  and  N_21 
REMARK    6  A    between atoms: C_14  and  C_19 
REMARK       I    between atoms: C_18  and  N_22 
REMARK       I    between atoms: C_19  and  N_23 
REMARK    7  A    between atoms: N_21  and  C_27 
ROOT
HETATM    1  N   UNK N   1      34.607  12.201  13.234  0.00  0.00    -0.175 N 
ATOM      2  HN  UNK N   1      33.680  12.415  13.601  1.00  0.00     0.186 HD
HETATM    3  C   UNK N   1      35.367  11.271  13.872  0.00  0.00     0.138 A 
HETATM    4  C   UNK N   1      36.666  10.993  13.383  0.00  0.00     0.092 A 
HETATM    5  C   UNK N   1      37.094  11.689  12.245  0.00  0.00     0.127 A 
HETATM    6  N   UNK N   1      36.281  12.590  11.644  0.00  0.00    -0.201 N 
ATOM      7  HN  UNK N   1      36.607  13.085  10.814  1.00  0.00     0.183 HD
HETATM    8  C   UNK N   1      35.038  12.847  12.132  0.00  0.00     0.684 A 
HETATM    9  N   UNK N   1      34.205  13.816  11.519  0.00  0.00    -0.192 N 
HETATM   10  H   UNK N   1      33.462  14.204  12.036  0.00  0.00     0.184 HD
ENDROOT
BRANCH   9  11
HETATM   11  C   UNK N   1      34.410  14.242  10.186  0.00  0.00     0.049 A 
HETATM   12  C   UNK N   1      34.059  13.402   9.127  0.00  0.00     0.030 A 
HETATM   13  C   UNK N   1      34.162  13.864   7.811  0.00  0.00     0.010 A 
HETATM   14  C   UNK N   1      34.645  15.154   7.558  0.00  0.00    -0.048 A 
HETATM   15  C   UNK N   1      35.053  15.969   8.616  0.00  0.00     0.010 A 
HETATM   16  C   UNK N   1      34.928  15.517   9.924  0.00  0.00     0.030 A 
BRANCH  14  17
HETATM   17  C   UNK N   1      34.640  15.688   6.165  0.00  0.00     0.148 C 
BRANCH  17  18
HETATM   18  C   UNK N   1      33.714  16.868   6.048  0.00  0.00     0.143 C 
HETATM   19  O   UNK N   1      34.158  18.007   6.037  0.00  0.00    -0.650 OA
BRANCH  18  20
HETATM   20  O   UNK N   1      32.389  16.668   5.933  0.00  0.00    -0.776 OA
HETATM   21  H   UNK N   1      31.884  15.934   5.642  0.00  0.00     0.167 HD
ENDBRANCH  18  20
ENDBRANCH  17  18
ENDBRANCH  14  17
ENDBRANCH   9  11
BRANCH   3  22
HETATM   22  N   UNK N   1      34.849  10.613  15.026  0.00  0.00    -0.341 N 
HETATM   23  H   UNK N   1      34.361   9.769  14.891  0.00  0.00     0.167 HD
BRANCH  22  24
HETATM   24  C   UNK N   1      34.990  11.095  16.362  0.00  0.00     0.034 A 
HETATM   25  C   UNK N   1      35.057  10.178  17.417  0.00  0.00     0.029 A 
HETATM   26  C   UNK N   1      35.214  10.630  18.734  0.00  0.00     0.003 A 
HETATM   27  C   UNK N   1      35.300  12.000  19.002  0.00  0.00     0.007 A 
HETATM   28  C   UNK N   1      35.226  12.919  17.956  0.00  0.00    -0.060 A 
HETATM   29  C   UNK N   1      35.071  12.468  16.649  0.00  0.00     0.036 A 
HETATM   30  C   UNK N   1      35.315  14.378  18.228  0.00  0.00     0.048 C 
ENDBRANCH  22  24
ENDBRANCH   3  22
BRANCH   4  31
HETATM   31  C   UNK N   1      37.597  10.012  14.003  0.00  0.00     0.254 C 
HETATM   32  O   UNK N   1      38.000  10.194  15.142  0.00  0.00    -0.268 OA
HETATM   33  N   UNK N   1      38.009   8.918  13.330  0.00  0.00    -0.366 N 
HETATM   34  H   UNK N   1      38.669   8.304  13.727  0.00  0.00     0.159 HD
HETATM   35  H   UNK N   1      37.646   8.732  12.434  0.00  0.00     0.159 HD
ENDBRANCH   4  31
TORSDOF 7
ENDMDL
MODEL 8
REMARK VINA RESULT:      -6.9      4.753      8.073
REMARK  7 active torsions:
REMARK  status: ('A' for Active; 'I' for Inactive)
REMARK    1  A    between atoms: C_1  and  C_7 
REMARK    2  A    between atoms: C_4  and  N_22 
REMARK    3  A    between atoms: C_7  and  C_8 
REMARK    4  A    between atoms: C_8  and  O_9 
REMARK    5  A    between atoms: C_13  and  N_21 
REMARK    6  A    between atoms: C_14  and  C_19 
REMARK       I    between atoms: C_18  and  N_22 
REMARK       I    between atoms: C_19  and  N_23 
REMARK    7  A    between atoms: N_21  and  C_27 
ROOT
HETATM    1  N   UNK N   1      35.405   9.925  16.637  0.00  0.00    -0.175 N 
ATOM      2  HN  UNK N   1      35.393   8.950  16.339  1.00  0.00     0.186 HD
HETATM    3  C   UNK N   1      35.425  10.204  17.968  0.00  0.00     0.138 A 
HETATM    4  C   UNK N   1      35.412  11.557  18.386  0.00  0.00     0.092 A 
HETATM    5  C   UNK N   1      35.394  12.543  17.392  0.00  0.00     0.127 A 
HETATM    6  N   UNK N   1      35.394  12.199  16.081  0.00  0.00    -0.201 N 
ATOM      7  HN  UNK N   1      35.385  12.931  15.370  1.00  0.00     0.183 HD
HETATM    8  C   UNK N   1      35.403  10.894  15.700  0.00  0.00     0.684 A 
HETATM    9  N   UNK N   1      35.367  10.540  14.328  0.00  0.00    -0.192 N 
HETATM   10  H   UNK N   1      35.073   9.635  14.075  0.00  0.00     0.184 HD
ENDROOT
BRANCH   9  11
HETATM   11  C   UNK N   1      35.742  11.449  13.312  0.00  0.00     0.049 A 
HETATM   12  C   UNK N   1      37.085  11.564  12.944  0.00  0.00     0.030 A 
HETATM   13  C   UNK N   1      37.442  12.384  11.868  0.00  0.00     0.010 A 
HETATM   14  C   UNK N   1      36.459  13.108  11.184  0.00  0.00    -0.048 A 
HETATM   15  C   UNK N   1      35.125  13.039  11.594  0.00  0.00     0.010 A 
HETATM   16  C   UNK N   1      34.769  12.206  12.648  0.00  0.00     0.030 A 
BRANCH  14  17
HETATM   17  C   UNK N   1      36.824  13.885   9.964  0.00  0.00     0.148 C 
BRANCH  17  18
HETATM   18  C   UNK N   1      36.321  15.299  10.059  0.00  0.00     0.143 C 
HETATM   19  O   UNK N   1      35.403  15.682   9.348  0.00  0.00    -0.650 OA
BRANCH  18  20
HETATM   20  O   UNK N   1      36.872  16.144  10.949  0.00  0.00    -0.776 OA
HETATM   21  H   UNK N   1      37.732  16.204  11.315  0.00  0.00     0.167 HD
ENDBRANCH  18  20
ENDBRANCH  17  18
ENDBRANCH  14  17
ENDBRANCH   9  11
BRANCH   3  22
HETATM   22  N   UNK N   1      35.441   9.134  18.909  0.00  0.00    -0.341 N 
HETATM   23  H   UNK N   1      36.234   9.041  19.484  0.00  0.00     0.167 HD
BRANCH  22  24
HETATM   24  C   UNK N   1      34.385   8.188  19.074  0.00  0.00     0.034 A 
HETATM   25  C   UNK N   1      34.624   6.838  18.796  0.00  0.00     0.029 A 
HETATM   26  C   UNK N   1      33.607   5.891  18.969  0.00  0.00     0.003 A 
HETATM   27  C   UNK N   1      32.343   6.290  19.418  0.00  0.00     0.007 A 
HETATM   28  C   UNK N   1      32.095   7.635  19.690  0.00  0.00    -0.060 A 
HETATM   29  C   UNK N   1      33.108   8.574  19.518  0.00  0.00     0.036 A 
HETATM   30  C   UNK N   1      30.756   8.072  20.167  0.00  0.00     0.048 C 
ENDBRANCH  22  24
ENDBRANCH   3  22
BRANCH   4  31
HETATM   31  C   UNK N   1      35.415  11.988  19.809  0.00  0.00     0.254 C 
HETATM   32  O   UNK N   1      35.917  11.269  20.661  0.00  0.00    -0.268 OA
HETATM   33  N   UNK N   1      34.870  13.163  20.184  0.00  0.00    -0.366 N 
HETATM   34  H   UNK N   1      34.826  13.415  21.136  0.00  0.00     0.159 HD
HETATM   35  H   UNK N   1      34.514  13.775  19.500  0.00  0.00     0.159 HD
ENDBRANCH   4  31
TORSDOF 7
ENDMDL
MODEL 9
REMARK VINA RESULT:      -6.8      7.378     10.605
REMARK  7 active torsions:
REMARK  status: ('A' for Active; 'I' for Inactive)
REMARK    1  A    between atoms: C_1  and  C_7 
REMARK    2  A    between atoms: C_4  and  N_22 
REMARK    3  A    between atoms: C_7  and  C_8 
REMARK    4  A    between atoms: C_8  and  O_9 
REMARK    5  A    between atoms: C_13  and  N_21 
REMARK    6  A    between atoms: C_14  and  C_19 
REMARK       I    between atoms: C_18  and  N_22 
REMARK       I    between atoms: C_19  and  N_23 
REMARK    7  A    between atoms: N_21  and  C_27 
ROOT
HETATM    1  N   UNK N   1      28.995  17.992   5.045  0.00  0.00    -0.175 N 
ATOM      2  HN  UNK N   1      28.500  18.321   4.217  1.00  0.00     0.186 HD
HETATM    3  C   UNK N   1      28.477  18.267   6.272  0.00  0.00     0.138 A 
HETATM    4  C   UNK N   1      29.178  17.837   7.425  0.00  0.00     0.092 A 
HETATM    5  C   UNK N   1      30.372  17.132   7.233  0.00  0.00     0.127 A 
HETATM    6  N   UNK N   1      30.826  16.875   5.983  0.00  0.00    -0.201 N 
ATOM      7  HN  UNK N   1      31.696  16.356   5.862  1.00  0.00     0.183 HD
HETATM    8  C   UNK N   1      30.141  17.299   4.888  0.00  0.00     0.684 A 
HETATM    9  N   UNK N   1      30.638  17.057   3.583  0.00  0.00    -0.192 N 
HETATM   10  H   UNK N   1      30.313  17.611   2.837  0.00  0.00     0.184 HD
ENDROOT
BRANCH   9  11
HETATM   11  C   UNK N   1      31.588  16.043   3.323  0.00  0.00     0.049 A 
HETATM   12  C   UNK N   1      31.172  14.714   3.208  0.00  0.00     0.030 A 
HETATM   13  C   UNK N   1      32.094  13.727   2.845  0.00  0.00     0.010 A 
HETATM   14  C   UNK N   1      33.434  14.066   2.627  0.00  0.00    -0.048 A 
HETATM   15  C   UNK N   1      33.859  15.385   2.803  0.00  0.00     0.010 A 
HETATM   16  C   UNK N   1      32.938  16.369   3.141  0.00  0.00     0.030 A 
BRANCH  14  17
HETATM   17  C   UNK N   1      34.388  13.036   2.123  0.00  0.00     0.148 C 
BRANCH  17  18
HETATM   18  C   UNK N   1      35.090  13.519   0.883  0.00  0.00     0.143 C 
HETATM   19  O   UNK N   1      36.250  13.901   0.935  0.00  0.00    -0.650 OA
BRANCH  18  20
HETATM   20  O   UNK N   1      34.443  13.511  -0.296  0.00  0.00    -0.776 OA
HETATM   21  H   UNK N   1      34.697  13.775  -1.158  0.00  0.00     0.167 HD
ENDBRANCH  18  20
ENDBRANCH  17  18
ENDBRANCH  14  17
ENDBRANCH   9  11
BRANCH   3  22
HETATM   22  N   UNK N   1      27.254  18.992   6.371  0.00  0.00    -0.341 N 
HETATM   23  H   UNK N   1      26.934  19.229   7.272  0.00  0.00     0.167 HD
BRANCH  22  24
HETATM   24  C   UNK N   1      26.462  19.397   5.255  0.00  0.00     0.034 A 
HETATM   25  C   UNK N   1      27.015  20.255   4.298  0.00  0.00     0.029 A 
HETATM   26  C   UNK N   1      26.261  20.649   3.185  0.00  0.00     0.003 A 
HETATM   27  C   UNK N   1      24.950  20.190   3.025  0.00  0.00     0.007 A 
HETATM   28  C   UNK N   1      24.389  19.341   3.980  0.00  0.00    -0.060 A 
HETATM   29  C   UNK N   1      25.141  18.950   5.084  0.00  0.00     0.036 A 
HETATM   30  C   UNK N   1      22.995  18.848   3.823  0.00  0.00     0.048 C 
ENDBRANCH  22  24
ENDBRANCH   3  22
BRANCH   4  31
HETATM   31  C   UNK N   1      28.722  18.090   8.819  0.00  0.00     0.254 C 
HETATM   32  O   UNK N   1      27.622  17.698   9.178  0.00  0.00    -0.268 OA
HETATM   33  N   UNK N   1      29.502  18.749   9.699  0.00  0.00    -0.366 N 
HETATM   34  H   UNK N   1      29.170  18.962  10.602  0.00  0.00     0.159 HD
HETATM   35  H   UNK N   1      30.412  19.019   9.438  0.00  0.00     0.159 HD
ENDBRANCH   4  31
TORSDOF 7
ENDMDL
