MODEL 1
REMARK VINA RESULT:      -8.2      0.000      0.000
REMARK  2 active torsions:
REMARK  status: ('A' for Active; 'I' for Inactive)
REMARK       I    between atoms: C_6  and  N_7 
REMARK    1  A    between atoms: N_7  and  C_8 
REMARK    2  A    between atoms: C_8  and  C_9 
REMARK       I    between atoms: C_16  and  N_17 
ROOT
HETATM    1  N   UNK N   1      36.118  15.534  12.187  0.00  0.00    -0.190 N 
HETATM    2  C   UNK N   1      35.360  15.826  11.121  0.00  0.00     0.077 A 
HETATM    3  C   UNK N   1      34.467  14.821  10.902  0.00  0.00     0.078 A 
HETATM    4  N   UNK N   1      34.629  13.863  11.820  0.00  0.00    -0.190 N 
ATOM      5  HN  UNK N   1      34.112  12.989  11.918  1.00  0.00     0.184 HD
HETATM    6  C   UNK N   1      35.644  14.329  12.588  0.00  0.00     0.679 A 
HETATM    7  N   UNK N   1      36.158  13.631  13.697  0.00  0.00    -0.221 N 
HETATM    8  C   UNK N   1      33.551  14.850   9.862  0.00  0.00     0.063 A 
HETATM    9  C   UNK N   1      33.567  15.971   9.018  0.00  0.00     0.067 A 
HETATM   10  C   UNK N   1      34.499  17.028   9.239  0.00  0.00     0.062 A 
HETATM   11  C   UNK N   1      34.471  18.121   8.367  0.00  0.00     0.272 A 
HETATM   12  O   UNK N   1      35.244  19.052   8.508  0.00  0.00    -0.267 OA
HETATM   13  N   UNK N   1      33.562  18.143   7.341  0.00  0.00    -0.156 N 
HETATM   14  C   UNK N   1      32.684  17.120   7.153  0.00  0.00     0.679 A 
HETATM   15  N   UNK N   1      31.764  17.172   6.091  0.00  0.00    -0.234 N 
HETATM   16  N   UNK N   1      32.692  16.048   7.986  0.00  0.00    -0.191 N 
ATOM     17  HN  UNK N   1      32.028  15.289   7.834  1.00  0.00     0.184 HD
HETATM   18  C   UNK N   1      35.416  16.956  10.313  0.00  0.00     0.052 A 
HETATM   19  H   UNK N   1      36.844  16.067  12.583  0.00  0.00     0.184 HD
HETATM   20  H   UNK N   1      36.897  14.018  14.219  0.00  0.00     0.178 HD
HETATM   21  H   UNK N   1      33.544  18.913   6.728  0.00  0.00     0.187 HD
HETATM   22  H   UNK N   1      31.127  16.433   5.953  0.00  0.00     0.174 HD
HETATM   23  H   UNK N   1      31.755  17.948   5.484  0.00  0.00     0.174 HD
ENDROOT
BRANCH   7  24
HETATM   24  C   UNK N   1      35.611  12.353  14.073  0.00  0.00     0.184 C 
BRANCH  24  25
HETATM   25  C   UNK N   1      35.486  12.253  15.552  0.00  0.00     0.001 A 
HETATM   26  C   UNK N   1      35.085  13.281  16.398  0.00  0.00     0.017 A 
HETATM   27  C   UNK N   1      35.060  12.888  17.767  0.00  0.00     0.008 A 
HETATM   28  C   UNK N   1      35.442  11.556  17.988  0.00  0.00     0.050 A 
HETATM   29  S   UNK N   1      35.789  10.928  16.495  0.00  0.00    -0.105 SA
ENDBRANCH  24  25
ENDBRANCH   7  24
TORSDOF 2
ENDMDL
MODEL 2
REMARK VINA RESULT:      -7.5      1.589      2.180
REMARK  2 active torsions:
REMARK  status: ('A' for Active; 'I' for Inactive)
REMARK       I    between atoms: C_6  and  N_7 
REMARK    1  A    between atoms: N_7  and  C_8 
REMARK    2  A    between atoms: C_8  and  C_9 
REMARK       I    between atoms: C_16  and  N_17 
ROOT
HETATM    1  N   UNK N   1      36.114  15.540  12.197  0.00  0.00    -0.190 N 
HETATM    2  C   UNK N   1      35.356  15.830  11.130  0.00  0.00     0.077 A 
HETATM    3  C   UNK N   1      34.460  14.826  10.916  0.00  0.00     0.078 A 
HETATM    4  N   UNK N   1      34.621  13.871  11.837  0.00  0.00    -0.190 N 
ATOM      5  HN  UNK N   1      34.103  12.999  11.939  1.00  0.00     0.184 HD
HETATM    6  C   UNK N   1      35.638  14.337  12.603  0.00  0.00     0.679 A 
HETATM    7  N   UNK N   1      36.151  13.642  13.714  0.00  0.00    -0.221 N 
HETATM    8  C   UNK N   1      33.543  14.853   9.877  0.00  0.00     0.063 A 
HETATM    9  C   UNK N   1      33.562  15.971   9.029  0.00  0.00     0.067 A 
HETATM   10  C   UNK N   1      34.496  17.027   9.245  0.00  0.00     0.062 A 
HETATM   11  C   UNK N   1      34.470  18.117   8.369  0.00  0.00     0.272 A 
HETATM   12  O   UNK N   1      35.245  19.047   8.506  0.00  0.00    -0.267 OA
HETATM   13  N   UNK N   1      33.560  18.137   7.343  0.00  0.00    -0.156 N 
HETATM   14  C   UNK N   1      32.680  17.115   7.160  0.00  0.00     0.679 A 
HETATM   15  N   UNK N   1      31.758  17.166   6.099  0.00  0.00    -0.234 N 
HETATM   16  N   UNK N   1      32.685  16.047   7.998  0.00  0.00    -0.191 N 
ATOM     17  HN  UNK N   1      32.020  15.288   7.849  1.00  0.00     0.184 HD
HETATM   18  C   UNK N   1      35.414  16.956  10.318  0.00  0.00     0.052 A 
HETATM   19  H   UNK N   1      36.842  16.073  12.591  0.00  0.00     0.184 HD
HETATM   20  H   UNK N   1      36.892  14.029  14.234  0.00  0.00     0.178 HD
HETATM   21  H   UNK N   1      33.543  18.905   6.728  0.00  0.00     0.187 HD
HETATM   22  H   UNK N   1      31.120  16.427   5.964  0.00  0.00     0.174 HD
HETATM   23  H   UNK N   1      31.751  17.939   5.489  0.00  0.00     0.174 HD
ENDROOT
BRANCH   7  24
HETATM   24  C   UNK N   1      35.602  12.367  14.095  0.00  0.00     0.184 C 
BRANCH  24  25
HETATM   25  C   UNK N   1      36.602  11.284  13.888  0.00  0.00     0.001 A 
HETATM   26  C   UNK N   1      37.558  10.883  14.812  0.00  0.00     0.017 A 
HETATM   27  C   UNK N   1      38.376   9.821  14.332  0.00  0.00     0.008 A 
HETATM   28  C   UNK N   1      38.057   9.394  13.034  0.00  0.00     0.050 A 
HETATM   29  S   UNK N   1      36.790  10.340  12.542  0.00  0.00    -0.105 SA
ENDBRANCH  24  25
ENDBRANCH   7  24
TORSDOF 2
ENDMDL
MODEL 3
REMARK VINA RESULT:      -7.3      6.453     11.126
REMARK  2 active torsions:
REMARK  status: ('A' for Active; 'I' for Inactive)
REMARK       I    between atoms: C_6  and  N_7 
REMARK    1  A    between atoms: N_7  and  C_8 
REMARK    2  A    between atoms: C_8  and  C_9 
REMARK       I    between atoms: C_16  and  N_17 
ROOT
HETATM    1  N   UNK N   1      29.630  17.430   4.354  0.00  0.00    -0.190 N 
HETATM    2  C   UNK N   1      30.492  17.355   5.377  0.00  0.00     0.077 A 
HETATM    3  C   UNK N   1      29.817  17.452   6.556  0.00  0.00     0.078 A 
HETATM    4  N   UNK N   1      28.509  17.592   6.320  0.00  0.00    -0.190 N 
ATOM      5  HN  UNK N   1      27.752  17.688   6.996  1.00  0.00     0.184 HD
HETATM    6  C   UNK N   1      28.428  17.575   4.966  0.00  0.00     0.679 A 
HETATM    7  N   UNK N   1      27.215  17.695   4.262  0.00  0.00    -0.221 N 
HETATM    8  C   UNK N   1      30.453  17.406   7.786  0.00  0.00     0.063 A 
HETATM    9  C   UNK N   1      31.848  17.252   7.786  0.00  0.00     0.067 A 
HETATM   10  C   UNK N   1      32.564  17.150   6.557  0.00  0.00     0.062 A 
HETATM   11  C   UNK N   1      33.953  16.998   6.616  0.00  0.00     0.272 A 
HETATM   12  O   UNK N   1      34.614  16.905   5.597  0.00  0.00    -0.267 OA
HETATM   13  N   UNK N   1      34.576  16.953   7.837  0.00  0.00    -0.156 N 
HETATM   14  C   UNK N   1      33.868  17.053   8.995  0.00  0.00     0.679 A 
HETATM   15  N   UNK N   1      34.536  17.003  10.231  0.00  0.00    -0.234 N 
HETATM   16  N   UNK N   1      32.519  17.201   8.963  0.00  0.00    -0.191 N 
ATOM     17  HN  UNK N   1      32.001  17.275   9.839  1.00  0.00     0.184 HD
HETATM   18  C   UNK N   1      31.873  17.202   5.325  0.00  0.00     0.052 A 
HETATM   19  H   UNK N   1      29.822  17.391   3.389  0.00  0.00     0.184 HD
HETATM   20  H   UNK N   1      27.217  17.675   3.278  0.00  0.00     0.178 HD
HETATM   21  H   UNK N   1      35.553  16.846   7.876  0.00  0.00     0.187 HD
HETATM   22  H   UNK N   1      34.026  17.076  11.071  0.00  0.00     0.174 HD
HETATM   23  H   UNK N   1      35.515  16.896  10.258  0.00  0.00     0.174 HD
ENDROOT
BRANCH   7  24
HETATM   24  C   UNK N   1      25.971  17.845   4.970  0.00  0.00     0.184 C 
BRANCH  24  25
HETATM   25  C   UNK N   1      25.064  18.772   4.241  0.00  0.00     0.001 A 
HETATM   26  C   UNK N   1      23.685  18.635   4.140  0.00  0.00     0.017 A 
HETATM   27  C   UNK N   1      23.083  19.677   3.378  0.00  0.00     0.008 A 
HETATM   28  C   UNK N   1      23.993  20.626   2.886  0.00  0.00     0.050 A 
HETATM   29  S   UNK N   1      25.486  20.139   3.410  0.00  0.00    -0.105 SA
ENDBRANCH  24  25
ENDBRANCH   7  24
TORSDOF 2
ENDMDL
MODEL 4
REMARK VINA RESULT:      -7.2     12.798     14.972
REMARK  2 active torsions:
REMARK  status: ('A' for Active; 'I' for Inactive)
REMARK       I    between atoms: C_6  and  N_7 
REMARK    1  A    between atoms: N_7  and  C_8 
REMARK    2  A    between atoms: C_8  and  C_9 
REMARK       I    between atoms: C_16  and  N_17 
ROOT
HETATM    1  N   UNK N   1      21.106  17.062   7.247  0.00  0.00    -0.190 N 
HETATM    2  C   UNK N   1      20.802  17.022   5.942  0.00  0.00     0.077 A 
HETATM    3  C   UNK N   1      20.245  15.817   5.636  0.00  0.00     0.078 A 
HETATM    4  N   UNK N   1      20.178  15.057   6.733  0.00  0.00    -0.190 N 
ATOM      5  HN  UNK N   1      19.812  14.109   6.823  1.00  0.00     0.184 HD
HETATM    6  C   UNK N   1      20.711  15.846   7.698  0.00  0.00     0.679 A 
HETATM    7  N   UNK N   1      20.843  15.443   9.041  0.00  0.00    -0.221 N 
HETATM    8  C   UNK N   1      19.830  15.491   4.355  0.00  0.00     0.063 A 
HETATM    9  C   UNK N   1      20.003  16.460   3.354  0.00  0.00     0.067 A 
HETATM   10  C   UNK N   1      20.586  17.724   3.665  0.00  0.00     0.062 A 
HETATM   11  C   UNK N   1      20.734  18.651   2.628  0.00  0.00     0.272 A 
HETATM   12  O   UNK N   1      21.225  19.747   2.837  0.00  0.00    -0.267 OA
HETATM   13  N   UNK N   1      20.321  18.322   1.363  0.00  0.00    -0.156 N 
HETATM   14  C   UNK N   1      19.769  17.107   1.095  0.00  0.00     0.679 A 
HETATM   15  N   UNK N   1      19.355  16.799  -0.214  0.00  0.00    -0.234 N 
HETATM   16  N   UNK N   1      19.614  16.190   2.084  0.00  0.00    -0.191 N 
ATOM     17  HN  UNK N   1      19.198  15.284   1.868  1.00  0.00     0.184 HD
HETATM   18  C   UNK N   1      20.994  18.013   4.987  0.00  0.00     0.052 A 
HETATM   19  H   UNK N   1      21.517  17.798   7.756  0.00  0.00     0.184 HD
HETATM   20  H   UNK N   1      21.238  16.059   9.699  0.00  0.00     0.178 HD
HETATM   21  H   UNK N   1      20.427  18.976   0.635  0.00  0.00     0.187 HD
HETATM   22  H   UNK N   1      18.955  15.921  -0.411  0.00  0.00     0.174 HD
HETATM   23  H   UNK N   1      19.466  17.462  -0.934  0.00  0.00     0.174 HD
ENDROOT
BRANCH   7  24
HETATM   24  C   UNK N   1      20.405  14.138   9.459  0.00  0.00     0.184 C 
BRANCH  24  25
HETATM   25  C   UNK N   1      21.548  13.346   9.986  0.00  0.00     0.001 A 
HETATM   26  C   UNK N   1      21.488  12.454  11.050  0.00  0.00     0.017 A 
HETATM   27  C   UNK N   1      22.744  11.843  11.327  0.00  0.00     0.008 A 
HETATM   28  C   UNK N   1      23.783  12.258  10.480  0.00  0.00     0.050 A 
HETATM   29  S   UNK N   1      23.109  13.352   9.436  0.00  0.00    -0.105 SA
ENDBRANCH  24  25
ENDBRANCH   7  24
TORSDOF 2
ENDMDL
MODEL 5
REMARK VINA RESULT:      -7.1      3.995      8.061
REMARK  2 active torsions:
REMARK  status: ('A' for Active; 'I' for Inactive)
REMARK       I    between atoms: C_6  and  N_7 
REMARK    1  A    between atoms: N_7  and  C_8 
REMARK    2  A    between atoms: C_8  and  C_9 
REMARK       I    between atoms: C_16  and  N_17 
ROOT
HETATM    1  N   UNK N   1      35.081  16.921  11.000  0.00  0.00    -0.190 N 
HETATM    2  C   UNK N   1      35.573  15.722  11.341  0.00  0.00     0.077 A 
HETATM    3  C   UNK N   1      35.676  14.934  10.234  0.00  0.00     0.078 A 
HETATM    4  N   UNK N   1      35.254  15.606   9.158  0.00  0.00    -0.190 N 
ATOM      5  HN  UNK N   1      35.211  15.287   8.191  1.00  0.00     0.184 HD
HETATM    6  C   UNK N   1      34.898  16.815   9.660  0.00  0.00     0.679 A 
HETATM    7  N   UNK N   1      34.387  17.860   8.868  0.00  0.00    -0.221 N 
HETATM    8  C   UNK N   1      36.157  13.636  10.285  0.00  0.00     0.063 A 
HETATM    9  C   UNK N   1      36.544  13.139  11.539  0.00  0.00     0.067 A 
HETATM   10  C   UNK N   1      36.440  13.956  12.703  0.00  0.00     0.062 A 
HETATM   11  C   UNK N   1      36.841  13.409  13.927  0.00  0.00     0.272 A 
HETATM   12  O   UNK N   1      36.773  14.062  14.954  0.00  0.00    -0.267 OA
HETATM   13  N   UNK N   1      37.315  12.124  13.969  0.00  0.00    -0.156 N 
HETATM   14  C   UNK N   1      37.404  11.366  12.842  0.00  0.00     0.679 A 
HETATM   15  N   UNK N   1      37.895  10.050  12.919  0.00  0.00    -0.234 N 
HETATM   16  N   UNK N   1      37.021  11.874  11.642  0.00  0.00    -0.191 N 
ATOM     17  HN  UNK N   1      37.094  11.295  10.806  1.00  0.00     0.184 HD
HETATM   18  C   UNK N   1      35.944  15.275  12.604  0.00  0.00     0.052 A 
HETATM   19  H   UNK N   1      34.896  17.693  11.581  0.00  0.00     0.184 HD
HETATM   20  H   UNK N   1      34.145  18.717   9.287  0.00  0.00     0.178 HD
HETATM   21  H   UNK N   1      37.597  11.741  14.831  0.00  0.00     0.187 HD
HETATM   22  H   UNK N   1      37.961   9.500  12.104  0.00  0.00     0.174 HD
HETATM   23  H   UNK N   1      38.174   9.678  13.786  0.00  0.00     0.174 HD
ENDROOT
BRANCH   7  24
HETATM   24  C   UNK N   1      34.216  17.686   7.450  0.00  0.00     0.184 C 
BRANCH  24  25
HETATM   25  C   UNK N   1      32.781  17.474   7.118  0.00  0.00     0.001 A 
HETATM   26  C   UNK N   1      31.724  17.569   8.015  0.00  0.00     0.017 A 
HETATM   27  C   UNK N   1      30.462  17.313   7.408  0.00  0.00     0.008 A 
HETATM   28  C   UNK N   1      30.535  17.018   6.037  0.00  0.00     0.050 A 
HETATM   29  S   UNK N   1      32.142  17.087   5.642  0.00  0.00    -0.105 SA
ENDBRANCH  24  25
ENDBRANCH   7  24
TORSDOF 2
ENDMDL
MODEL 6
REMARK VINA RESULT:      -7.1      8.854     12.406
REMARK  2 active torsions:
REMARK  status: ('A' for Active; 'I' for Inactive)
REMARK       I    between atoms: C_6  and  N_7 
REMARK    1  A    between atoms: N_7  and  C_8 
REMARK    2  A    between atoms: C_8  and  C_9 
REMARK       I    between atoms: C_16  and  N_17 
ROOT
HETATM    1  N   UNK N   1      26.914  19.722   3.897  0.00  0.00    -0.190 N 
HETATM    2  C   UNK N   1      25.628  19.353   3.815  0.00  0.00     0.077 A 
HETATM    3  C   UNK N   1      25.499  18.049   4.190  0.00  0.00     0.078 A 
HETATM    4  N   UNK N   1      26.695  17.552   4.522  0.00  0.00    -0.190 N 
ATOM      5  HN  UNK N   1      26.921  16.611   4.841  1.00  0.00     0.184 HD
HETATM    6  C   UNK N   1      27.536  18.599   4.332  0.00  0.00     0.679 A 
HETATM    7  N   UNK N   1      28.923  18.528   4.563  0.00  0.00    -0.221 N 
HETATM    8  C   UNK N   1      24.278  17.395   4.204  0.00  0.00     0.063 A 
HETATM    9  C   UNK N   1      23.148  18.128   3.811  0.00  0.00     0.067 A 
HETATM   10  C   UNK N   1      23.273  19.493   3.416  0.00  0.00     0.062 A 
HETATM   11  C   UNK N   1      22.113  20.175   3.034  0.00  0.00     0.272 A 
HETATM   12  O   UNK N   1      22.162  21.342   2.687  0.00  0.00    -0.267 OA
HETATM   13  N   UNK N   1      20.909  19.520   3.050  0.00  0.00    -0.156 N 
HETATM   14  C   UNK N   1      20.818  18.217   3.431  0.00  0.00     0.679 A 
HETATM   15  N   UNK N   1      19.567  17.574   3.437  0.00  0.00    -0.234 N 
HETATM   16  N   UNK N   1      21.929  17.533   3.807  0.00  0.00    -0.191 N 
ATOM     17  HN  UNK N   1      21.847  16.557   4.090  1.00  0.00     0.184 HD
HETATM   18  C   UNK N   1      24.539  20.120   3.417  0.00  0.00     0.052 A 
HETATM   19  H   UNK N   1      27.311  20.599   3.691  0.00  0.00     0.184 HD
HETATM   20  H   UNK N   1      29.486  19.320   4.408  0.00  0.00     0.178 HD
HETATM   21  H   UNK N   1      20.094  20.002   2.781  0.00  0.00     0.187 HD
HETATM   22  H   UNK N   1      19.499  16.630   3.713  0.00  0.00     0.174 HD
HETATM   23  H   UNK N   1      18.759  18.066   3.166  0.00  0.00     0.174 HD
ENDROOT
BRANCH   7  24
HETATM   24  C   UNK N   1      29.525  17.305   5.025  0.00  0.00     0.184 C 
BRANCH  24  25
HETATM   25  C   UNK N   1      29.922  17.424   6.454  0.00  0.00     0.001 A 
HETATM   26  C   UNK N   1      31.195  17.187   6.958  0.00  0.00     0.017 A 
HETATM   27  C   UNK N   1      31.274  17.383   8.367  0.00  0.00     0.008 A 
HETATM   28  C   UNK N   1      30.063  17.771   8.960  0.00  0.00     0.050 A 
HETATM   29  S   UNK N   1      28.959  17.856   7.728  0.00  0.00    -0.105 SA
ENDBRANCH  24  25
ENDBRANCH   7  24
TORSDOF 2
ENDMDL
MODEL 7
REMARK VINA RESULT:      -6.8      2.541      3.541
REMARK  2 active torsions:
REMARK  status: ('A' for Active; 'I' for Inactive)
REMARK       I    between atoms: C_6  and  N_7 
REMARK    1  A    between atoms: N_7  and  C_8 
REMARK    2  A    between atoms: C_8  and  C_9 
REMARK       I    between atoms: C_16  and  N_17 
ROOT
HETATM    1  N   UNK N   1      32.632  15.256  10.275  0.00  0.00    -0.190 N 
HETATM    2  C   UNK N   1      32.504  15.641   8.998  0.00  0.00     0.077 A 
HETATM    3  C   UNK N   1      33.654  15.374   8.318  0.00  0.00     0.078 A 
HETATM    4  N   UNK N   1      34.546  14.812   9.140  0.00  0.00    -0.190 N 
ATOM      5  HN  UNK N   1      35.493  14.501   8.926  1.00  0.00     0.184 HD
HETATM    6  C   UNK N   1      33.891  14.754  10.326  0.00  0.00     0.679 A 
HETATM    7  N   UNK N   1      34.462  14.226  11.499  0.00  0.00    -0.221 N 
HETATM    8  C   UNK N   1      33.810  15.666   6.973  0.00  0.00     0.063 A 
HETATM    9  C   UNK N   1      32.725  16.261   6.311  0.00  0.00     0.067 A 
HETATM   10  C   UNK N   1      31.517  16.545   7.014  0.00  0.00     0.062 A 
HETATM   11  C   UNK N   1      30.468  17.138   6.304  0.00  0.00     0.272 A 
HETATM   12  O   UNK N   1      29.413  17.402   6.854  0.00  0.00    -0.267 OA
HETATM   13  N   UNK N   1      30.630  17.424   4.973  0.00  0.00    -0.156 N 
HETATM   14  C   UNK N   1      31.794  17.142   4.327  0.00  0.00     0.679 A 
HETATM   15  N   UNK N   1      31.930  17.449   2.961  0.00  0.00    -0.234 N 
HETATM   16  N   UNK N   1      32.827  16.567   4.994  0.00  0.00    -0.191 N 
ATOM     17  HN  UNK N   1      33.694  16.361   4.497  1.00  0.00     0.184 HD
HETATM   18  C   UNK N   1      31.402  16.229   8.387  0.00  0.00     0.052 A 
HETATM   19  H   UNK N   1      31.972  15.321  11.002  0.00  0.00     0.184 HD
HETATM   20  H   UNK N   1      33.939  14.209  12.333  0.00  0.00     0.178 HD
HETATM   21  H   UNK N   1      29.891  17.842   4.475  0.00  0.00     0.187 HD
HETATM   22  H   UNK N   1      32.771  17.246   2.491  0.00  0.00     0.174 HD
HETATM   23  H   UNK N   1      31.183  17.866   2.473  0.00  0.00     0.174 HD
ENDROOT
BRANCH   7  24
HETATM   24  C   UNK N   1      35.804  13.707  11.489  0.00  0.00     0.184 C 
BRANCH  24  25
HETATM   25  C   UNK N   1      36.250  13.383  12.871  0.00  0.00     0.001 A 
HETATM   26  C   UNK N   1      36.366  14.294  13.915  0.00  0.00     0.017 A 
HETATM   27  C   UNK N   1      36.817  13.691  15.123  0.00  0.00     0.008 A 
HETATM   28  C   UNK N   1      37.052  12.310  15.022  0.00  0.00     0.050 A 
HETATM   29  S   UNK N   1      36.695  11.902  13.458  0.00  0.00    -0.105 SA
ENDBRANCH  24  25
ENDBRANCH   7  24
TORSDOF 2
ENDMDL
MODEL 8
REMARK VINA RESULT:      -6.8     11.990     14.328
REMARK  2 active torsions:
REMARK  status: ('A' for Active; 'I' for Inactive)
REMARK       I    between atoms: C_6  and  N_7 
REMARK    1  A    between atoms: N_7  and  C_8 
REMARK    2  A    between atoms: C_8  and  C_9 
REMARK       I    between atoms: C_16  and  N_17 
ROOT
HETATM    1  N   UNK N   1      22.210  16.644   5.831  0.00  0.00    -0.190 N 
HETATM    2  C   UNK N   1      22.259  15.713   6.794  0.00  0.00     0.077 A 
HETATM    3  C   UNK N   1      23.484  15.118   6.796  0.00  0.00     0.078 A 
HETATM    4  N   UNK N   1      24.249  15.650   5.838  0.00  0.00    -0.190 N 
ATOM      5  HN  UNK N   1      25.210  15.414   5.593  1.00  0.00     0.184 HD
HETATM    6  C   UNK N   1      23.442  16.578   5.267  0.00  0.00     0.679 A 
HETATM    7  N   UNK N   1      23.841  17.395   4.193  0.00  0.00    -0.221 N 
HETATM    8  C   UNK N   1      23.824  14.114   7.689  0.00  0.00     0.063 A 
HETATM    9  C   UNK N   1      22.847  13.715   8.615  0.00  0.00     0.067 A 
HETATM   10  C   UNK N   1      21.562  14.333   8.620  0.00  0.00     0.062 A 
HETATM   11  C   UNK N   1      20.627  13.896   9.565  0.00  0.00     0.272 A 
HETATM   12  O   UNK N   1      19.514  14.389   9.614  0.00  0.00    -0.267 OA
HETATM   13  N   UNK N   1      20.970  12.902  10.444  0.00  0.00    -0.156 N 
HETATM   14  C   UNK N   1      22.205  12.330  10.417  0.00  0.00     0.679 A 
HETATM   15  N   UNK N   1      22.526  11.312  11.333  0.00  0.00    -0.234 N 
HETATM   16  N   UNK N   1      23.129  12.736   9.509  0.00  0.00    -0.191 N 
ATOM     17  HN  UNK N   1      24.051  12.299   9.500  1.00  0.00     0.184 HD
HETATM   18  C   UNK N   1      21.259  15.354   7.690  0.00  0.00     0.052 A 
HETATM   19  H   UNK N   1      21.459  17.234   5.590  0.00  0.00     0.184 HD
HETATM   20  H   UNK N   1      23.212  18.052   3.818  0.00  0.00     0.178 HD
HETATM   21  H   UNK N   1      20.311  12.596  11.108  0.00  0.00     0.187 HD
HETATM   22  H   UNK N   1      23.419  10.897  11.315  0.00  0.00     0.174 HD
HETATM   23  H   UNK N   1      21.859  11.015  11.993  0.00  0.00     0.174 HD
ENDROOT
BRANCH   7  24
HETATM   24  C   UNK N   1      25.164  17.277   3.638  0.00  0.00     0.184 C 
BRANCH  24  25
HETATM   25  C   UNK N   1      26.013  18.423   4.061  0.00  0.00     0.001 A 
HETATM   26  C   UNK N   1      27.402  18.438   4.067  0.00  0.00     0.017 A 
HETATM   27  C   UNK N   1      27.937  19.676   4.524  0.00  0.00     0.008 A 
HETATM   28  C   UNK N   1      26.965  20.626   4.874  0.00  0.00     0.050 A 
HETATM   29  S   UNK N   1      25.502  19.900   4.605  0.00  0.00    -0.105 SA
ENDBRANCH  24  25
ENDBRANCH   7  24
TORSDOF 2
ENDMDL
MODEL 9
REMARK VINA RESULT:      -6.8      4.792      7.407
REMARK  2 active torsions:
REMARK  status: ('A' for Active; 'I' for Inactive)
REMARK       I    between atoms: C_6  and  N_7 
REMARK    1  A    between atoms: N_7  and  C_8 
REMARK    2  A    between atoms: C_8  and  C_9 
REMARK       I    between atoms: C_16  and  N_17 
ROOT
HETATM    1  N   UNK N   1      29.813  17.734   9.092  0.00  0.00    -0.190 N 
HETATM    2  C   UNK N   1      29.207  18.226   8.002  0.00  0.00     0.077 A 
HETATM    3  C   UNK N   1      29.707  17.624   6.887  0.00  0.00     0.078 A 
HETATM    4  N   UNK N   1      30.643  16.735   7.232  0.00  0.00    -0.190 N 
ATOM      5  HN  UNK N   1      31.195  16.131   6.624  1.00  0.00     0.184 HD
HETATM    6  C   UNK N   1      30.683  16.826   8.584  0.00  0.00     0.679 A 
HETATM    7  N   UNK N   1      31.544  16.054   9.386  0.00  0.00    -0.221 N 
HETATM    8  C   UNK N   1      29.266  17.936   5.610  0.00  0.00     0.063 A 
HETATM    9  C   UNK N   1      28.265  18.912   5.493  0.00  0.00     0.067 A 
HETATM   10  C   UNK N   1      27.735  19.547   6.655  0.00  0.00     0.062 A 
HETATM   11  C   UNK N   1      26.739  20.513   6.479  0.00  0.00     0.272 A 
HETATM   12  O   UNK N   1      26.251  21.087   7.437  0.00  0.00    -0.267 OA
HETATM   13  N   UNK N   1      26.308  20.815   5.214  0.00  0.00    -0.156 N 
HETATM   14  C   UNK N   1      26.831  20.194   4.122  0.00  0.00     0.679 A 
HETATM   15  N   UNK N   1      26.367  20.527   2.836  0.00  0.00    -0.234 N 
HETATM   16  N   UNK N   1      27.799  19.253   4.267  0.00  0.00    -0.191 N 
ATOM     17  HN  UNK N   1      28.182  18.795   3.440  1.00  0.00     0.184 HD
HETATM   18  C   UNK N   1      28.215  19.198   7.938  0.00  0.00     0.052 A 
HETATM   19  H   UNK N   1      29.662  17.974  10.035  0.00  0.00     0.184 HD
HETATM   20  H   UNK N   1      31.530  16.163  10.364  0.00  0.00     0.178 HD
HETATM   21  H   UNK N   1      25.607  21.495   5.092  0.00  0.00     0.187 HD
HETATM   22  H   UNK N   1      26.744  20.078   2.045  0.00  0.00     0.174 HD
HETATM   23  H   UNK N   1      25.665  21.208   2.727  0.00  0.00     0.174 HD
ENDROOT
BRANCH   7  24
HETATM   24  C   UNK N   1      32.446  15.106   8.787  0.00  0.00     0.184 C 
BRANCH  24  25
HETATM   25  C   UNK N   1      33.769  15.140   9.468  0.00  0.00     0.001 A 
HETATM   26  C   UNK N   1      34.515  16.284   9.723  0.00  0.00     0.017 A 
HETATM   27  C   UNK N   1      35.741  16.004  10.391  0.00  0.00     0.008 A 
HETATM   28  C   UNK N   1      35.951  14.641  10.656  0.00  0.00     0.050 A 
HETATM   29  S   UNK N   1      34.623  13.852  10.058  0.00  0.00    -0.105 SA
ENDBRANCH  24  25
ENDBRANCH   7  24
TORSDOF 2
ENDMDL
