REMARK  4 active torsions:
REMARK  status: ('A' for Active; 'I' for Inactive)
REMARK    1  A    between atoms: C_9  and  C_10 
REMARK    2  A    between atoms: C_9  and  C_18 
REMARK    3  A    between atoms: C_11  and  C_10 
REMARK    4  A    between atoms: C_10  and  O_17 
ROOT
HETATM    1  C   UNK N   1      -2.052   2.422  -0.067  0.00  0.00     0.170 C 
HETATM    2  O   UNK N   1      -1.579   1.136   0.266  0.00  0.00    -0.377 OA
HETATM    3  C   UNK N   1      -0.293   1.251   0.853  0.00  0.00     0.103 C 
HETATM    4  C   UNK N   1      -0.413   0.928   2.343  0.00  0.00     0.050 C 
HETATM    5  C   UNK N   1       0.159   2.700   0.630  0.00  0.00     0.117 C 
HETATM    6  C   UNK N   1       0.865   2.561  -0.671  0.00  0.00     0.226 C 
HETATM    7  O   UNK N   1       1.225   3.503  -1.356  0.00  0.00    -0.273 OA
HETATM    8  N   UNK N   1       1.172   1.298  -0.980  0.00  0.00    -0.340 N 
HETATM    9  C   UNK N   1       0.733   0.373   0.037  0.00  0.00     0.144 C 
HETATM   10  C   UNK N   1      -1.129   3.452   0.528  0.00  0.00     0.043 C 
HETATM   11  H   UNK N   1       1.642   1.031  -1.803  0.00  0.00     0.163 HD
ENDROOT
BRANCH   9  12
HETATM   12  C   UNK N   1       0.133  -0.892  -0.664  0.00  0.00     0.164 C 
BRANCH  12  13
HETATM   13  C   UNK N   1      -0.364  -2.048   0.249  0.00  0.00     0.040 C 
HETATM   14  C   UNK N   1      -0.833  -3.202  -0.623  0.00  0.00    -0.023 C 
HETATM   15  C   UNK N   1      -2.113  -3.609  -0.694  0.00  0.00    -0.030 C 
HETATM   16  C   UNK N   1      -3.228  -2.926   0.056  0.00  0.00     0.027 C 
HETATM   17  C   UNK N   1      -2.822  -1.547   0.561  0.00  0.00     0.004 C 
HETATM   18  C   UNK N   1      -1.465  -1.645   1.241  0.00  0.00     0.011 C 
ENDBRANCH  12  13
BRANCH  12  19
HETATM   19  O   UNK N   1       1.110  -1.410  -1.524  0.00  0.00    -0.392 OA
HETATM   20  H   UNK N   1       1.139  -2.175  -2.120  0.00  0.00     0.210 HD
ENDBRANCH  12  19
ENDBRANCH   9  12
BRANCH   9  21
HETATM   21  C   UNK N   1       1.926  -0.022   0.890  0.00  0.00     0.268 C 
HETATM   22  O   UNK N   1       3.053   0.386   0.649  0.00  0.00    -0.304 OA
ENDBRANCH   9  21
TORSDOF 4
