MODEL 1
REMARK VINA RESULT:      -6.7      0.000      0.000
REMARK  4 active torsions:
REMARK  status: ('A' for Active; 'I' for Inactive)
REMARK    1  A    between atoms: C_9  and  C_10 
REMARK    2  A    between atoms: C_9  and  C_18 
REMARK    3  A    between atoms: C_11  and  C_10 
REMARK    4  A    between atoms: C_10  and  O_17 
ROOT
HETATM    1  C   UNK N   1      34.135  13.792  10.157  0.00  0.00     0.170 C 
HETATM    2  O   UNK N   1      33.373  14.284   9.077  0.00  0.00    -0.377 OA
HETATM    3  C   UNK N   1      34.152  15.214   8.343  0.00  0.00     0.103 C 
HETATM    4  C   UNK N   1      34.522  14.580   7.002  0.00  0.00     0.050 C 
HETATM    5  C   UNK N   1      35.400  15.499   9.189  0.00  0.00     0.117 C 
HETATM    6  C   UNK N   1      34.923  16.663   9.983  0.00  0.00     0.226 C 
HETATM    7  O   UNK N   1      35.510  17.116  10.950  0.00  0.00    -0.273 OA
HETATM    8  N   UNK N   1      33.834  17.246   9.473  0.00  0.00    -0.340 N 
HETATM    9  C   UNK N   1      33.386  16.591   8.268  0.00  0.00     0.144 C 
HETATM   10  C   UNK N   1      35.559  14.254  10.001  0.00  0.00     0.043 C 
HETATM   11  H   UNK N   1      33.391  18.030   9.873  0.00  0.00     0.163 HD
ENDROOT
BRANCH   9  12
HETATM   12  C   UNK N   1      31.823  16.498   8.302  0.00  0.00     0.164 C 
BRANCH  12  13
HETATM   13  C   UNK N   1      31.022  17.762   7.878  0.00  0.00     0.040 C 
HETATM   14  C   UNK N   1      30.568  18.502   9.127  0.00  0.00    -0.023 C 
HETATM   15  C   UNK N   1      29.279  18.631   9.489  0.00  0.00    -0.030 C 
HETATM   16  C   UNK N   1      28.148  18.009   8.710  0.00  0.00     0.027 C 
HETATM   17  C   UNK N   1      28.636  16.938   7.742  0.00  0.00     0.004 C 
HETATM   18  C   UNK N   1      29.825  17.476   6.960  0.00  0.00     0.011 C 
ENDBRANCH  12  13
BRANCH  12  19
HETATM   19  O   UNK N   1      31.441  16.161   9.606  0.00  0.00    -0.392 OA
HETATM   20  H   UNK N   1      31.209  16.682  10.391  0.00  0.00     0.210 HD
ENDBRANCH  12  19
ENDBRANCH   9  12
BRANCH   9  21
HETATM   21  C   UNK N   1      33.833  17.409   7.069  0.00  0.00     0.268 C 
HETATM   22  O   UNK N   1      34.556  18.387   7.190  0.00  0.00    -0.304 OA
ENDBRANCH   9  21
TORSDOF 4
ENDMDL
MODEL 2
REMARK VINA RESULT:      -6.3      1.447      2.010
REMARK  4 active torsions:
REMARK  status: ('A' for Active; 'I' for Inactive)
REMARK    1  A    between atoms: C_9  and  C_10 
REMARK    2  A    between atoms: C_9  and  C_18 
REMARK    3  A    between atoms: C_11  and  C_10 
REMARK    4  A    between atoms: C_10  and  O_17 
ROOT
HETATM    1  C   UNK N   1      34.126  12.242   9.353  0.00  0.00     0.170 C 
HETATM    2  O   UNK N   1      33.800  13.398   8.615  0.00  0.00    -0.377 OA
HETATM    3  C   UNK N   1      34.717  14.431   8.938  0.00  0.00     0.103 C 
HETATM    4  C   UNK N   1      35.631  14.659   7.733  0.00  0.00     0.050 C 
HETATM    5  C   UNK N   1      35.511  13.941  10.157  0.00  0.00     0.117 C 
HETATM    6  C   UNK N   1      34.664  14.473  11.257  0.00  0.00     0.226 C 
HETATM    7  O   UNK N   1      34.790  14.158  12.428  0.00  0.00    -0.273 OA
HETATM    8  N   UNK N   1      33.809  15.421  10.863  0.00  0.00    -0.340 N 
HETATM    9  C   UNK N   1      33.921  15.693   9.450  0.00  0.00     0.144 C 
HETATM   10  C   UNK N   1      35.454  12.453  10.031  0.00  0.00     0.043 C 
HETATM   11  H   UNK N   1      33.180  15.880  11.465  0.00  0.00     0.163 HD
ENDROOT
BRANCH   9  12
HETATM   12  C   UNK N   1      32.482  15.870   8.860  0.00  0.00     0.164 C 
BRANCH  12  13
HETATM   13  C   UNK N   1      32.151  17.225   8.172  0.00  0.00     0.040 C 
HETATM   14  C   UNK N   1      30.870  17.784   8.769  0.00  0.00    -0.023 C 
HETATM   15  C   UNK N   1      29.725  17.923   8.078  0.00  0.00    -0.030 C 
HETATM   16  C   UNK N   1      29.584  17.491   6.640  0.00  0.00     0.027 C 
HETATM   17  C   UNK N   1      30.708  16.559   6.206  0.00  0.00     0.004 C 
HETATM   18  C   UNK N   1      32.041  17.150   6.642  0.00  0.00     0.011 C 
ENDBRANCH  12  13
BRANCH  12  19
HETATM   19  O   UNK N   1      31.565  15.679   9.901  0.00  0.00    -0.392 OA
HETATM   20  H   UNK N   1      31.546  15.097  10.678  0.00  0.00     0.210 HD
ENDBRANCH  12  19
ENDBRANCH   9  12
BRANCH   9  21
HETATM   21  C   UNK N   1      34.722  16.969   9.257  0.00  0.00     0.268 C 
HETATM   22  O   UNK N   1      35.334  17.491  10.178  0.00  0.00    -0.304 OA
ENDBRANCH   9  21
TORSDOF 4
ENDMDL
MODEL 3
REMARK VINA RESULT:      -6.1     14.975     17.606
REMARK  4 active torsions:
REMARK  status: ('A' for Active; 'I' for Inactive)
REMARK    1  A    between atoms: C_9  and  C_10 
REMARK    2  A    between atoms: C_9  and  C_18 
REMARK    3  A    between atoms: C_11  and  C_10 
REMARK    4  A    between atoms: C_10  and  O_17 
ROOT
HETATM    1  C   UNK N   1      28.339  29.116  -4.742  0.00  0.00     0.170 C 
HETATM    2  O   UNK N   1      28.603  27.859  -5.324  0.00  0.00    -0.377 OA
HETATM    3  C   UNK N   1      27.376  27.246  -5.685  0.00  0.00     0.103 C 
HETATM    4  C   UNK N   1      27.266  27.249  -7.210  0.00  0.00     0.050 C 
HETATM    5  C   UNK N   1      26.265  28.087  -5.043  0.00  0.00     0.117 C 
HETATM    6  C   UNK N   1      26.125  27.390  -3.737  0.00  0.00     0.226 C 
HETATM    7  O   UNK N   1      25.490  27.829  -2.794  0.00  0.00    -0.273 OA
HETATM    8  N   UNK N   1      26.673  26.171  -3.721  0.00  0.00    -0.340 N 
HETATM    9  C   UNK N   1      27.274  25.834  -4.988  0.00  0.00     0.144 C 
HETATM   10  C   UNK N   1      26.881  29.444  -4.927  0.00  0.00     0.043 C 
HETATM   11  H   UNK N   1      26.666  25.575  -2.937  0.00  0.00     0.163 HD
ENDROOT
BRANCH   9  12
HETATM   12  C   UNK N   1      28.638  25.113  -4.718  0.00  0.00     0.164 C 
BRANCH  12  13
HETATM   13  C   UNK N   1      28.586  23.614  -4.310  0.00  0.00     0.040 C 
HETATM   14  C   UNK N   1      28.777  23.502  -2.806  0.00  0.00    -0.023 C 
HETATM   15  C   UNK N   1      29.848  22.927  -2.232  0.00  0.00    -0.030 C 
HETATM   16  C   UNK N   1      31.000  22.370  -3.030  0.00  0.00     0.027 C 
HETATM   17  C   UNK N   1      30.996  22.869  -4.470  0.00  0.00     0.004 C 
HETATM   18  C   UNK N   1      29.596  22.721  -5.046  0.00  0.00     0.011 C 
ENDBRANCH  12  13
BRANCH  12  19
HETATM   19  O   UNK N   1      29.300  25.815  -3.703  0.00  0.00    -0.392 OA
HETATM   20  H   UNK N   1      29.623  26.726  -3.620  0.00  0.00     0.210 HD
ENDBRANCH  12  19
ENDBRANCH   9  12
BRANCH   9  21
HETATM   21  C   UNK N   1      26.338  24.909  -5.746  0.00  0.00     0.268 C 
HETATM   22  O   UNK N   1      25.226  24.630  -5.321  0.00  0.00    -0.304 OA
ENDBRANCH   9  21
TORSDOF 4
ENDMDL
MODEL 4
REMARK VINA RESULT:      -6.1      6.147      8.366
REMARK  4 active torsions:
REMARK  status: ('A' for Active; 'I' for Inactive)
REMARK    1  A    between atoms: C_9  and  C_10 
REMARK    2  A    between atoms: C_9  and  C_18 
REMARK    3  A    between atoms: C_11  and  C_10 
REMARK    4  A    between atoms: C_10  and  O_17 
ROOT
HETATM    1  C   UNK N   1      37.904   9.711  11.977  0.00  0.00     0.170 C 
HETATM    2  O   UNK N   1      36.913  10.253  12.821  0.00  0.00    -0.377 OA
HETATM    3  C   UNK N   1      36.174  11.229  12.104  0.00  0.00     0.103 C 
HETATM    4  C   UNK N   1      34.776  10.671  11.834  0.00  0.00     0.050 C 
HETATM    5  C   UNK N   1      36.938  11.479  10.797  0.00  0.00     0.117 C 
HETATM    6  C   UNK N   1      37.827  12.594  11.219  0.00  0.00     0.226 C 
HETATM    7  O   UNK N   1      38.771  12.999  10.562  0.00  0.00    -0.273 OA
HETATM    8  N   UNK N   1      37.434  13.194  12.346  0.00  0.00    -0.340 N 
HETATM    9  C   UNK N   1      36.232  12.601  12.881  0.00  0.00     0.144 C 
HETATM   10  C   UNK N   1      37.666  10.193  10.571  0.00  0.00     0.043 C 
HETATM   11  H   UNK N   1      37.908  13.951  12.761  0.00  0.00     0.163 HD
ENDROOT
BRANCH   9  12
HETATM   12  C   UNK N   1      36.378  12.493  14.436  0.00  0.00     0.164 C 
BRANCH  12  13
HETATM   13  C   UNK N   1      35.075  12.332  15.267  0.00  0.00     0.040 C 
HETATM   14  C   UNK N   1      35.122  13.283  16.453  0.00  0.00    -0.023 C 
HETATM   15  C   UNK N   1      35.190  12.875  17.733  0.00  0.00    -0.030 C 
HETATM   16  C   UNK N   1      35.272  11.421  18.121  0.00  0.00     0.027 C 
HETATM   17  C   UNK N   1      35.655  10.532  16.944  0.00  0.00     0.004 C 
HETATM   18  C   UNK N   1      34.797  10.898  15.743  0.00  0.00     0.011 C 
ENDBRANCH  12  13
BRANCH  12  19
HETATM   19  O   UNK N   1      37.039  13.643  14.886  0.00  0.00    -0.392 OA
HETATM   20  H   UNK N   1      36.881  14.593  14.771  0.00  0.00     0.210 HD
ENDBRANCH  12  19
ENDBRANCH   9  12
BRANCH   9  21
HETATM   21  C   UNK N   1      35.049  13.487  12.530  0.00  0.00     0.268 C 
HETATM   22  O   UNK N   1      35.119  14.706  12.586  0.00  0.00    -0.304 OA
ENDBRANCH   9  21
TORSDOF 4
ENDMDL
MODEL 5
REMARK VINA RESULT:      -6.1     12.394     13.686
REMARK  4 active torsions:
REMARK  status: ('A' for Active; 'I' for Inactive)
REMARK    1  A    between atoms: C_9  and  C_10 
REMARK    2  A    between atoms: C_9  and  C_18 
REMARK    3  A    between atoms: C_11  and  C_10 
REMARK    4  A    between atoms: C_10  and  O_17 
ROOT
HETATM    1  C   UNK N   1      42.378  20.043   2.952  0.00  0.00     0.170 C 
HETATM    2  O   UNK N   1      42.168  20.873   1.831  0.00  0.00    -0.377 OA
HETATM    3  C   UNK N   1      43.316  21.682   1.630  0.00  0.00     0.103 C 
HETATM    4  C   UNK N   1      44.034  21.194   0.371  0.00  0.00     0.050 C 
HETATM    5  C   UNK N   1      44.194  21.509   2.876  0.00  0.00     0.117 C 
HETATM    6  C   UNK N   1      43.674  22.616   3.722  0.00  0.00     0.226 C 
HETATM    7  O   UNK N   1      43.935  22.750   4.906  0.00  0.00    -0.273 OA
HETATM    8  N   UNK N   1      42.973  23.526   3.041  0.00  0.00    -0.340 N 
HETATM    9  C   UNK N   1      42.891  23.201   1.637  0.00  0.00     0.144 C 
HETATM   10  C   UNK N   1      43.818  20.152   3.379  0.00  0.00     0.043 C 
HETATM   11  H   UNK N   1      42.562  24.323   3.448  0.00  0.00     0.163 HD
ENDROOT
BRANCH   9  12
HETATM   12  C   UNK N   1      41.436  23.499   1.140  0.00  0.00     0.164 C 
BRANCH  12  13
HETATM   13  C   UNK N   1      41.246  23.807  -0.372  0.00  0.00     0.040 C 
HETATM   14  C   UNK N   1      40.236  24.933  -0.526  0.00  0.00    -0.023 C 
HETATM   15  C   UNK N   1      39.027  24.776  -1.094  0.00  0.00    -0.030 C 
HETATM   16  C   UNK N   1      38.530  23.446  -1.600  0.00  0.00     0.027 C 
HETATM   17  C   UNK N   1      39.350  22.282  -1.057  0.00  0.00     0.004 C 
HETATM   18  C   UNK N   1      40.829  22.595  -1.219  0.00  0.00     0.011 C 
ENDBRANCH  12  13
BRANCH  12  19
HETATM   19  O   UNK N   1      40.949  24.592   1.868  0.00  0.00    -0.392 OA
HETATM   20  H   UNK N   1      41.372  25.276   2.412  0.00  0.00     0.210 HD
ENDBRANCH  12  19
ENDBRANCH   9  12
BRANCH   9  21
HETATM   21  C   UNK N   1      43.887  24.059   0.875  0.00  0.00     0.268 C 
HETATM   22  O   UNK N   1      44.025  25.250   1.114  0.00  0.00    -0.304 OA
ENDBRANCH   9  21
TORSDOF 4
ENDMDL
MODEL 6
REMARK VINA RESULT:      -6.0     16.124     18.336
REMARK  4 active torsions:
REMARK  status: ('A' for Active; 'I' for Inactive)
REMARK    1  A    between atoms: C_9  and  C_10 
REMARK    2  A    between atoms: C_9  and  C_18 
REMARK    3  A    between atoms: C_11  and  C_10 
REMARK    4  A    between atoms: C_10  and  O_17 
ROOT
HETATM    1  C   UNK N   1      27.333  24.166  -8.684  0.00  0.00     0.170 C 
HETATM    2  O   UNK N   1      27.635  24.964  -7.562  0.00  0.00    -0.377 OA
HETATM    3  C   UNK N   1      27.711  24.138  -6.411  0.00  0.00     0.103 C 
HETATM    4  C   UNK N   1      29.175  24.047  -5.979  0.00  0.00     0.050 C 
HETATM    5  C   UNK N   1      27.164  22.766  -6.824  0.00  0.00     0.117 C 
HETATM    6  C   UNK N   1      25.725  22.942  -6.491  0.00  0.00     0.226 C 
HETATM    7  O   UNK N   1      24.846  22.173  -6.839  0.00  0.00    -0.273 OA
HETATM    8  N   UNK N   1      25.488  23.973  -5.676  0.00  0.00    -0.340 N 
HETATM    9  C   UNK N   1      26.701  24.669  -5.321  0.00  0.00     0.144 C 
HETATM   10  C   UNK N   1      27.430  22.715  -8.294  0.00  0.00     0.043 C 
HETATM   11  H   UNK N   1      24.592  24.228  -5.356  0.00  0.00     0.163 HD
ENDROOT
BRANCH   9  12
HETATM   12  C   UNK N   1      26.421  26.209  -5.352  0.00  0.00     0.164 C 
BRANCH  12  13
HETATM   13  C   UNK N   1      27.262  27.109  -4.403  0.00  0.00     0.040 C 
HETATM   14  C   UNK N   1      26.323  27.986  -3.590  0.00  0.00    -0.023 C 
HETATM   15  C   UNK N   1      26.265  29.325  -3.709  0.00  0.00    -0.030 C 
HETATM   16  C   UNK N   1      27.100  30.091  -4.703  0.00  0.00     0.027 C 
HETATM   17  C   UNK N   1      27.692  29.187  -5.777  0.00  0.00     0.004 C 
HETATM   18  C   UNK N   1      28.317  27.969  -5.114  0.00  0.00     0.011 C 
ENDBRANCH  12  13
BRANCH  12  19
HETATM   19  O   UNK N   1      25.068  26.405  -5.047  0.00  0.00    -0.392 OA
HETATM   20  H   UNK N   1      24.385  27.005  -5.387  0.00  0.00     0.210 HD
ENDBRANCH  12  19
ENDBRANCH   9  12
BRANCH   9  21
HETATM   21  C   UNK N   1      27.120  24.245  -3.924  0.00  0.00     0.268 C 
HETATM   22  O   UNK N   1      26.302  24.063  -3.034  0.00  0.00    -0.304 OA
ENDBRANCH   9  21
TORSDOF 4
ENDMDL
MODEL 7
REMARK VINA RESULT:      -5.6     10.460     12.552
REMARK  4 active torsions:
REMARK  status: ('A' for Active; 'I' for Inactive)
REMARK    1  A    between atoms: C_9  and  C_10 
REMARK    2  A    between atoms: C_9  and  C_18 
REMARK    3  A    between atoms: C_11  and  C_10 
REMARK    4  A    between atoms: C_10  and  O_17 
ROOT
HETATM    1  C   UNK N   1      23.611  16.599   5.479  0.00  0.00     0.170 C 
HETATM    2  O   UNK N   1      22.711  15.514   5.425  0.00  0.00    -0.377 OA
HETATM    3  C   UNK N   1      21.452  15.977   4.967  0.00  0.00     0.103 C 
HETATM    4  C   UNK N   1      21.228  15.444   3.551  0.00  0.00     0.050 C 
HETATM    5  C   UNK N   1      21.519  17.509   4.983  0.00  0.00     0.117 C 
HETATM    6  C   UNK N   1      21.019  17.783   6.356  0.00  0.00     0.226 C 
HETATM    7  O   UNK N   1      21.085  18.871   6.902  0.00  0.00    -0.273 OA
HETATM    8  N   UNK N   1      20.383  16.747   6.910  0.00  0.00    -0.340 N 
HETATM    9  C   UNK N   1      20.343  15.606   6.027  0.00  0.00     0.144 C 
HETATM   10  C   UNK N   1      22.977  17.793   4.816  0.00  0.00     0.043 C 
HETATM   11  H   UNK N   1      19.988  16.761   7.811  0.00  0.00     0.163 HD
ENDROOT
BRANCH   9  12
HETATM   12  C   UNK N   1      20.617  14.314   6.868  0.00  0.00     0.164 C 
BRANCH  12  13
HETATM   13  C   UNK N   1      21.644  14.421   8.030  0.00  0.00     0.040 C 
HETATM   14  C   UNK N   1      22.441  13.128   8.109  0.00  0.00    -0.023 C 
HETATM   15  C   UNK N   1      22.372  12.274   9.146  0.00  0.00    -0.030 C 
HETATM   16  C   UNK N   1      21.455  12.492  10.322  0.00  0.00     0.027 C 
HETATM   17  C   UNK N   1      20.379  13.530  10.029  0.00  0.00     0.004 C 
HETATM   18  C   UNK N   1      21.025  14.753   9.396  0.00  0.00     0.011 C 
ENDBRANCH  12  13
BRANCH  12  19
HETATM   19  O   UNK N   1      21.060  13.316   5.990  0.00  0.00    -0.392 OA
HETATM   20  H   UNK N   1      20.606  12.656   5.443  0.00  0.00     0.210 HD
ENDBRANCH  12  19
ENDBRANCH   9  12
BRANCH   9  21
HETATM   21  C   UNK N   1      18.968  15.527   5.387  0.00  0.00     0.268 C 
HETATM   22  O   UNK N   1      17.972  15.964   5.945  0.00  0.00    -0.304 OA
ENDBRANCH   9  21
TORSDOF 4
ENDMDL
MODEL 8
REMARK VINA RESULT:      -5.5     15.296     17.875
REMARK  4 active torsions:
REMARK  status: ('A' for Active; 'I' for Inactive)
REMARK    1  A    between atoms: C_9  and  C_10 
REMARK    2  A    between atoms: C_9  and  C_18 
REMARK    3  A    between atoms: C_11  and  C_10 
REMARK    4  A    between atoms: C_10  and  O_17 
ROOT
HETATM    1  C   UNK N   1      26.282  27.389  -2.913  0.00  0.00     0.170 C 
HETATM    2  O   UNK N   1      27.336  26.642  -3.478  0.00  0.00    -0.377 OA
HETATM    3  C   UNK N   1      27.534  27.057  -4.820  0.00  0.00     0.103 C 
HETATM    4  C   UNK N   1      28.851  27.830  -4.895  0.00  0.00     0.050 C 
HETATM    5  C   UNK N   1      26.340  27.952  -5.178  0.00  0.00     0.117 C 
HETATM    6  C   UNK N   1      25.402  26.936  -5.726  0.00  0.00     0.226 C 
HETATM    7  O   UNK N   1      24.225  27.150  -5.960  0.00  0.00    -0.273 OA
HETATM    8  N   UNK N   1      25.993  25.782  -6.048  0.00  0.00    -0.340 N 
HETATM    9  C   UNK N   1      27.410  25.809  -5.776  0.00  0.00     0.144 C 
HETATM   10  C   UNK N   1      25.911  28.502  -3.856  0.00  0.00     0.043 C 
HETATM   11  H   UNK N   1      25.518  25.006  -6.425  0.00  0.00     0.163 HD
ENDROOT
BRANCH   9  12
HETATM   12  C   UNK N   1      27.825  24.434  -5.150  0.00  0.00     0.164 C 
BRANCH  12  13
HETATM   13  C   UNK N   1      29.344  24.119  -5.057  0.00  0.00     0.040 C 
HETATM   14  C   UNK N   1      29.595  22.722  -5.603  0.00  0.00    -0.023 C 
HETATM   15  C   UNK N   1      30.022  21.694  -4.848  0.00  0.00    -0.030 C 
HETATM   16  C   UNK N   1      30.251  21.813  -3.363  0.00  0.00     0.027 C 
HETATM   17  C   UNK N   1      29.595  23.057  -2.777  0.00  0.00     0.004 C 
HETATM   18  C   UNK N   1      29.936  24.257  -3.647  0.00  0.00     0.011 C 
ENDBRANCH  12  13
BRANCH  12  19
HETATM   19  O   UNK N   1      27.218  23.420  -5.903  0.00  0.00    -0.392 OA
HETATM   20  H   UNK N   1      26.947  22.510  -5.703  0.00  0.00     0.210 HD
ENDBRANCH  12  19
ENDBRANCH   9  12
BRANCH   9  21
HETATM   21  C   UNK N   1      28.157  26.032  -7.079  0.00  0.00     0.268 C 
HETATM   22  O   UNK N   1      27.924  25.365  -8.077  0.00  0.00    -0.304 OA
ENDBRANCH   9  21
TORSDOF 4
ENDMDL
MODEL 9
REMARK VINA RESULT:      -5.4     15.111     17.631
REMARK  4 active torsions:
REMARK  status: ('A' for Active; 'I' for Inactive)
REMARK    1  A    between atoms: C_9  and  C_10 
REMARK    2  A    between atoms: C_9  and  C_18 
REMARK    3  A    between atoms: C_11  and  C_10 
REMARK    4  A    between atoms: C_10  and  O_17 
ROOT
HETATM    1  C   UNK N   1      25.990  27.154  -6.686  0.00  0.00     0.170 C 
HETATM    2  O   UNK N   1      26.939  26.127  -6.503  0.00  0.00    -0.377 OA
HETATM    3  C   UNK N   1      26.545  25.320  -5.405  0.00  0.00     0.103 C 
HETATM    4  C   UNK N   1      26.083  23.965  -5.943  0.00  0.00     0.050 C 
HETATM    5  C   UNK N   1      25.400  26.064  -4.707  0.00  0.00     0.117 C 
HETATM    6  C   UNK N   1      26.168  26.871  -3.722  0.00  0.00     0.226 C 
HETATM    7  O   UNK N   1      25.692  27.784  -3.069  0.00  0.00    -0.273 OA
HETATM    8  N   UNK N   1      27.417  26.436  -3.533  0.00  0.00    -0.340 N 
HETATM    9  C   UNK N   1      27.712  25.279  -4.344  0.00  0.00     0.144 C 
HETATM   10  C   UNK N   1      24.800  26.883  -5.804  0.00  0.00     0.043 C 
HETATM   11  H   UNK N   1      28.058  26.854  -2.914  0.00  0.00     0.163 HD
ENDROOT
BRANCH   9  12
HETATM   12  C   UNK N   1      29.159  25.432  -4.923  0.00  0.00     0.164 C 
BRANCH  12  13
HETATM   13  C   UNK N   1      30.348  25.109  -3.975  0.00  0.00     0.040 C 
HETATM   14  C   UNK N   1      31.428  26.164  -4.157  0.00  0.00    -0.023 C 
HETATM   15  C   UNK N   1      32.643  25.903  -4.670  0.00  0.00    -0.030 C 
HETATM   16  C   UNK N   1      33.044  24.537  -5.164  0.00  0.00     0.027 C 
HETATM   17  C   UNK N   1      31.841  23.625  -5.375  0.00  0.00     0.004 C 
HETATM   18  C   UNK N   1      30.938  23.702  -4.153  0.00  0.00     0.011 C 
ENDBRANCH  12  13
BRANCH  12  19
HETATM   19  O   UNK N   1      29.306  26.753  -5.367  0.00  0.00    -0.392 OA
HETATM   20  H   UNK N   1      30.024  27.234  -5.808  0.00  0.00     0.210 HD
ENDBRANCH  12  19
ENDBRANCH   9  12
BRANCH   9  21
HETATM   21  C   UNK N   1      27.629  24.036  -3.475  0.00  0.00     0.268 C 
HETATM   22  O   UNK N   1      27.069  24.046  -2.389  0.00  0.00    -0.304 OA
ENDBRANCH   9  21
TORSDOF 4
ENDMDL
