MODEL 1
REMARK VINA RESULT:      -7.2      0.000      0.000
REMARK  6 active torsions:
REMARK  status: ('A' for Active; 'I' for Inactive)
REMARK    1  A    between atoms: C_7  and  C_8 
REMARK    2  A    between atoms: C_8  and  O_9 
REMARK    3  A    between atoms: O_9  and  C_10 
REMARK    4  A    between atoms: C_15  and  C_16 
REMARK    5  A    between atoms: N_17  and  C_19 
REMARK    6  A    between atoms: C_19  and  C_21 
REMARK       I    between atoms: C_21  and  N_23 
ROOT
HETATM    1  C   UNK N   1      27.416  18.456   4.246  0.00  0.00     0.069 A 
HETATM    2  C   UNK N   1      27.462  19.858   4.207  0.00  0.00     0.037 A 
HETATM    3  C   UNK N   1      26.325  20.587   3.837  0.00  0.00     0.015 A 
HETATM    4  C   UNK N   1      26.212  17.795   3.978  0.00  0.00     0.037 A 
HETATM    5  C   UNK N   1      25.078  18.522   3.643  0.00  0.00     0.015 A 
HETATM    6  C   UNK N   1      25.129  19.911   3.563  0.00  0.00    -0.021 A 
ENDROOT
BRANCH   6   7
HETATM    7  C   UNK N   1      23.981  20.568   2.966  0.00  0.00     0.095 C 
HETATM    8  N   UNK N   1      22.888  19.904   2.832  0.00  0.00    -0.385 N 
ATOM      9  HN  UNK N   1      22.914  18.887   2.904  1.00  0.00     0.159 HD
BRANCH   8  10
HETATM   10  C   UNK N   1      21.620  20.559   2.584  0.00  0.00     0.169 C 
HETATM   11  C   UNK N   1      20.597  20.177   3.642  0.00  0.00     0.042 C 
BRANCH  10  12
HETATM   12  C   UNK N   1      21.102  20.242   1.190  0.00  0.00     0.237 C 
HETATM   13  O   UNK N   1      21.406  20.965   0.253  0.00  0.00    -0.271 OA
HETATM   14  N   UNK N   1      20.327  19.160   0.961  0.00  0.00    -0.368 N 
HETATM   15  H   UNK N   1      20.026  18.599   1.712  0.00  0.00     0.159 HD
HETATM   16  H   UNK N   1      20.062  18.933   0.040  0.00  0.00     0.159 HD
ENDBRANCH  10  12
ENDBRANCH   8  10
ENDBRANCH   6   7
BRANCH   1  17
HETATM   17  O   UNK N   1      28.548  17.763   4.501  0.00  0.00    -0.347 OA
BRANCH  17  18
HETATM   18  C   UNK N   1      28.626  16.784   5.471  0.00  0.00     0.214 C 
BRANCH  18  19
HETATM   19  C   UNK N   1      29.555  17.187   6.561  0.00  0.00    -0.031 A 
HETATM   20  C   UNK N   1      29.065  17.867   7.680  0.00  0.00     0.051 A 
HETATM   21  C   UNK N   1      29.936  18.263   8.694  0.00  0.00     0.117 A 
HETATM   22  F   UNK N   1      29.452  18.904   9.783  0.00  0.00    -0.206 F 
HETATM   23  C   UNK N   1      31.305  17.997   8.584  0.00  0.00     0.042 A 
HETATM   24  C   UNK N   1      31.799  17.327   7.461  0.00  0.00     0.004 A 
HETATM   25  C   UNK N   1      30.923  16.916   6.449  0.00  0.00     0.009 A 
ENDBRANCH  18  19
ENDBRANCH  17  18
ENDBRANCH   1  17
TORSDOF 6
ENDMDL
MODEL 2
REMARK VINA RESULT:      -6.9      8.823     12.653
REMARK  6 active torsions:
REMARK  status: ('A' for Active; 'I' for Inactive)
REMARK    1  A    between atoms: C_7  and  C_8 
REMARK    2  A    between atoms: C_8  and  O_9 
REMARK    3  A    between atoms: O_9  and  C_10 
REMARK    4  A    between atoms: C_15  and  C_16 
REMARK    5  A    between atoms: N_17  and  C_19 
REMARK    6  A    between atoms: C_19  and  C_21 
REMARK       I    between atoms: C_21  and  N_23 
ROOT
HETATM    1  C   UNK N   1      35.881  13.540  12.333  0.00  0.00     0.069 A 
HETATM    2  C   UNK N   1      35.770  14.939  12.356  0.00  0.00     0.037 A 
HETATM    3  C   UNK N   1      35.035  15.601  11.365  0.00  0.00     0.015 A 
HETATM    4  C   UNK N   1      35.200  12.807  11.354  0.00  0.00     0.037 A 
HETATM    5  C   UNK N   1      34.446  13.464  10.391  0.00  0.00     0.015 A 
HETATM    6  C   UNK N   1      34.366  14.855  10.386  0.00  0.00    -0.021 A 
ENDROOT
BRANCH   6   7
HETATM    7  C   UNK N   1      33.773  15.464   9.210  0.00  0.00     0.095 C 
HETATM    8  N   UNK N   1      33.133  16.572   9.342  0.00  0.00    -0.385 N 
ATOM      9  HN  UNK N   1      32.837  16.864  10.272  1.00  0.00     0.159 HD
BRANCH   8  10
HETATM   10  C   UNK N   1      32.823  17.416   8.206  0.00  0.00     0.169 C 
HETATM   11  C   UNK N   1      32.113  16.621   7.120  0.00  0.00     0.042 C 
BRANCH  10  12
HETATM   12  C   UNK N   1      34.075  18.082   7.658  0.00  0.00     0.237 C 
HETATM   13  O   UNK N   1      34.356  17.961   6.476  0.00  0.00    -0.271 OA
HETATM   14  N   UNK N   1      34.874  18.829   8.450  0.00  0.00    -0.368 N 
HETATM   15  H   UNK N   1      34.694  18.891   9.416  0.00  0.00     0.159 HD
HETATM   16  H   UNK N   1      35.639  19.310   8.061  0.00  0.00     0.159 HD
ENDBRANCH  10  12
ENDBRANCH   8  10
ENDBRANCH   6   7
BRANCH   1  17
HETATM   17  O   UNK N   1      36.680  12.924  13.232  0.00  0.00    -0.347 OA
BRANCH  17  18
HETATM   18  C   UNK N   1      36.196  12.323  14.377  0.00  0.00     0.214 C 
BRANCH  18  19
HETATM   19  C   UNK N   1      36.192  13.277  15.518  0.00  0.00    -0.031 A 
HETATM   20  C   UNK N   1      37.025  14.399  15.492  0.00  0.00     0.051 A 
HETATM   21  C   UNK N   1      37.038  15.286  16.569  0.00  0.00     0.117 A 
HETATM   22  F   UNK N   1      37.832  16.381  16.527  0.00  0.00    -0.206 F 
HETATM   23  C   UNK N   1      36.231  15.043  17.686  0.00  0.00     0.042 A 
HETATM   24  C   UNK N   1      35.405  13.915  17.719  0.00  0.00     0.004 A 
HETATM   25  C   UNK N   1      35.381  13.032  16.633  0.00  0.00     0.009 A 
ENDBRANCH  18  19
ENDBRANCH  17  18
ENDBRANCH   1  17
TORSDOF 6
ENDMDL
MODEL 3
REMARK VINA RESULT:      -6.9      9.300     13.254
REMARK  6 active torsions:
REMARK  status: ('A' for Active; 'I' for Inactive)
REMARK    1  A    between atoms: C_7  and  C_8 
REMARK    2  A    between atoms: C_8  and  O_9 
REMARK    3  A    between atoms: O_9  and  C_10 
REMARK    4  A    between atoms: C_15  and  C_16 
REMARK    5  A    between atoms: N_17  and  C_19 
REMARK    6  A    between atoms: C_19  and  C_21 
REMARK       I    between atoms: C_21  and  N_23 
ROOT
HETATM    1  C   UNK N   1      35.820  13.524  12.810  0.00  0.00     0.069 A 
HETATM    2  C   UNK N   1      35.228  12.684  11.855  0.00  0.00     0.037 A 
HETATM    3  C   UNK N   1      34.640  13.229  10.707  0.00  0.00     0.015 A 
HETATM    4  C   UNK N   1      35.879  14.904  12.576  0.00  0.00     0.037 A 
HETATM    5  C   UNK N   1      35.325  15.439  11.422  0.00  0.00     0.015 A 
HETATM    6  C   UNK N   1      34.700  14.612  10.491  0.00  0.00    -0.021 A 
ENDROOT
BRANCH   6   7
HETATM    7  C   UNK N   1      33.932  15.273   9.451  0.00  0.00     0.095 C 
HETATM    8  N   UNK N   1      33.528  16.477   9.651  0.00  0.00    -0.385 N 
ATOM      9  HN  UNK N   1      33.525  16.848  10.600  1.00  0.00     0.159 HD
BRANCH   8  10
HETATM   10  C   UNK N   1      33.077  17.322   8.564  0.00  0.00     0.169 C 
HETATM   11  C   UNK N   1      32.305  16.512   7.533  0.00  0.00     0.042 C 
BRANCH  10  12
HETATM   12  C   UNK N   1      34.242  18.052   7.916  0.00  0.00     0.237 C 
HETATM   13  O   UNK N   1      34.462  17.901   6.723  0.00  0.00    -0.271 OA
HETATM   14  N   UNK N   1      35.030  18.886   8.629  0.00  0.00    -0.368 N 
HETATM   15  H   UNK N   1      34.902  18.976   9.601  0.00  0.00     0.159 HD
HETATM   16  H   UNK N   1      35.733  19.404   8.175  0.00  0.00     0.159 HD
ENDBRANCH  10  12
ENDBRANCH   8  10
ENDBRANCH   6   7
BRANCH   1  17
HETATM   17  O   UNK N   1      36.288  12.994  13.961  0.00  0.00    -0.347 OA
BRANCH  17  18
HETATM   18  C   UNK N   1      35.683  11.926  14.595  0.00  0.00     0.214 C 
BRANCH  18  19
HETATM   19  C   UNK N   1      35.541  12.185  16.052  0.00  0.00    -0.031 A 
HETATM   20  C   UNK N   1      35.517  11.116  16.952  0.00  0.00     0.051 A 
HETATM   21  C   UNK N   1      35.365  11.354  18.318  0.00  0.00     0.117 A 
HETATM   22  F   UNK N   1      35.362  10.314  19.185  0.00  0.00    -0.206 F 
HETATM   23  C   UNK N   1      35.217  12.663  18.788  0.00  0.00     0.042 A 
HETATM   24  C   UNK N   1      35.230  13.734  17.889  0.00  0.00     0.004 A 
HETATM   25  C   UNK N   1      35.397  13.497  16.520  0.00  0.00     0.009 A 
ENDBRANCH  18  19
ENDBRANCH  17  18
ENDBRANCH   1  17
TORSDOF 6
ENDMDL
MODEL 4
REMARK VINA RESULT:      -6.9      8.946     12.890
REMARK  6 active torsions:
REMARK  status: ('A' for Active; 'I' for Inactive)
REMARK    1  A    between atoms: C_7  and  C_8 
REMARK    2  A    between atoms: C_8  and  O_9 
REMARK    3  A    between atoms: O_9  and  C_10 
REMARK    4  A    between atoms: C_15  and  C_16 
REMARK    5  A    between atoms: N_17  and  C_19 
REMARK    6  A    between atoms: C_19  and  C_21 
REMARK       I    between atoms: C_21  and  N_23 
ROOT
HETATM    1  C   UNK N   1      35.362  13.079  12.440  0.00  0.00     0.069 A 
HETATM    2  C   UNK N   1      34.954  12.376  11.296  0.00  0.00     0.037 A 
HETATM    3  C   UNK N   1      34.457  13.068  10.186  0.00  0.00     0.015 A 
HETATM    4  C   UNK N   1      35.330  14.479  12.439  0.00  0.00     0.037 A 
HETATM    5  C   UNK N   1      34.867  15.164  11.325  0.00  0.00     0.015 A 
HETATM    6  C   UNK N   1      34.423  14.468  10.203  0.00  0.00    -0.021 A 
ENDROOT
BRANCH   6   7
HETATM    7  C   UNK N   1      33.725  15.245   9.194  0.00  0.00     0.095 C 
HETATM    8  N   UNK N   1      33.367  16.447   9.476  0.00  0.00    -0.385 N 
ATOM      9  HN  UNK N   1      33.345  16.741  10.452  1.00  0.00     0.159 HD
BRANCH   8  10
HETATM   10  C   UNK N   1      32.995  17.395   8.446  0.00  0.00     0.169 C 
HETATM   11  C   UNK N   1      32.179  16.717   7.356  0.00  0.00     0.042 C 
BRANCH  10  12
HETATM   12  C   UNK N   1      34.220  18.078   7.860  0.00  0.00     0.237 C 
HETATM   13  O   UNK N   1      34.511  17.895   6.687  0.00  0.00    -0.271 OA
HETATM   14  N   UNK N   1      34.984  18.905   8.605  0.00  0.00    -0.368 N 
HETATM   15  H   UNK N   1      34.798  19.020   9.565  0.00  0.00     0.159 HD
HETATM   16  H   UNK N   1      35.730  19.393   8.187  0.00  0.00     0.159 HD
ENDBRANCH  10  12
ENDBRANCH   8  10
ENDBRANCH   6   7
BRANCH   1  17
HETATM   17  O   UNK N   1      35.739  12.393  13.541  0.00  0.00    -0.347 OA
BRANCH  17  18
HETATM   18  C   UNK N   1      34.883  11.564  14.238  0.00  0.00     0.214 C 
BRANCH  18  19
HETATM   19  C   UNK N   1      35.016  11.774  15.704  0.00  0.00    -0.031 A 
HETATM   20  C   UNK N   1      34.939  13.065  16.234  0.00  0.00     0.051 A 
HETATM   21  C   UNK N   1      35.082  13.268  17.606  0.00  0.00     0.117 A 
HETATM   22  F   UNK N   1      34.987  14.519  18.114  0.00  0.00    -0.206 F 
HETATM   23  C   UNK N   1      35.321  12.181  18.454  0.00  0.00     0.042 A 
HETATM   24  C   UNK N   1      35.408  10.889  17.925  0.00  0.00     0.004 A 
HETATM   25  C   UNK N   1      35.251  10.683  16.549  0.00  0.00     0.009 A 
ENDBRANCH  18  19
ENDBRANCH  17  18
ENDBRANCH   1  17
TORSDOF 6
ENDMDL
MODEL 5
REMARK VINA RESULT:      -6.8      9.032     13.016
REMARK  6 active torsions:
REMARK  status: ('A' for Active; 'I' for Inactive)
REMARK    1  A    between atoms: C_7  and  C_8 
REMARK    2  A    between atoms: C_8  and  O_9 
REMARK    3  A    between atoms: O_9  and  C_10 
REMARK    4  A    between atoms: C_15  and  C_16 
REMARK    5  A    between atoms: N_17  and  C_19 
REMARK    6  A    between atoms: C_19  and  C_21 
REMARK       I    between atoms: C_21  and  N_23 
ROOT
HETATM    1  C   UNK N   1      35.931  13.654  13.247  0.00  0.00     0.069 A 
HETATM    2  C   UNK N   1      36.221  15.009  13.022  0.00  0.00     0.037 A 
HETATM    3  C   UNK N   1      35.770  15.640  11.856  0.00  0.00     0.015 A 
HETATM    4  C   UNK N   1      35.134  12.956  12.332  0.00  0.00     0.037 A 
HETATM    5  C   UNK N   1      34.661  13.593  11.193  0.00  0.00     0.015 A 
HETATM    6  C   UNK N   1      34.980  14.926  10.946  0.00  0.00    -0.021 A 
ENDROOT
BRANCH   6   7
HETATM    7  C   UNK N   1      34.662  15.433   9.624  0.00  0.00     0.095 C 
HETATM    8  N   UNK N   1      33.529  16.011   9.438  0.00  0.00    -0.385 N 
ATOM      9  HN  UNK N   1      32.788  15.881  10.126  1.00  0.00     0.159 HD
BRANCH   8  10
HETATM   10  C   UNK N   1      33.276  16.843   8.280  0.00  0.00     0.169 C 
HETATM   11  C   UNK N   1      34.189  18.059   8.276  0.00  0.00     0.042 C 
BRANCH  10  12
HETATM   12  C   UNK N   1      31.816  17.263   8.214  0.00  0.00     0.237 C 
HETATM   13  O   UNK N   1      31.286  17.442   7.128  0.00  0.00    -0.271 OA
HETATM   14  N   UNK N   1      31.082  17.422   9.337  0.00  0.00    -0.368 N 
HETATM   15  H   UNK N   1      31.507  17.337  10.221  0.00  0.00     0.159 HD
HETATM   16  H   UNK N   1      30.121  17.624   9.270  0.00  0.00     0.159 HD
ENDBRANCH  10  12
ENDBRANCH   8  10
ENDBRANCH   6   7
BRANCH   1  17
HETATM   17  O   UNK N   1      36.462  13.033  14.323  0.00  0.00    -0.347 OA
BRANCH  17  18
HETATM   18  C   UNK N   1      35.854  11.959  14.944  0.00  0.00     0.214 C 
BRANCH  18  19
HETATM   19  C   UNK N   1      35.608  12.247  16.382  0.00  0.00    -0.031 A 
HETATM   20  C   UNK N   1      35.427  13.566  16.809  0.00  0.00     0.051 A 
HETATM   21  C   UNK N   1      35.215  13.841  18.160  0.00  0.00     0.117 A 
HETATM   22  F   UNK N   1      35.021  15.119  18.563  0.00  0.00    -0.206 F 
HETATM   23  C   UNK N   1      35.201  12.799  19.093  0.00  0.00     0.042 A 
HETATM   24  C   UNK N   1      35.393  11.480  18.670  0.00  0.00     0.004 A 
HETATM   25  C   UNK N   1      35.592  11.202  17.313  0.00  0.00     0.009 A 
ENDBRANCH  18  19
ENDBRANCH  17  18
ENDBRANCH   1  17
TORSDOF 6
ENDMDL
MODEL 6
REMARK VINA RESULT:      -6.7      5.284     10.156
REMARK  6 active torsions:
REMARK  status: ('A' for Active; 'I' for Inactive)
REMARK    1  A    between atoms: C_7  and  C_8 
REMARK    2  A    between atoms: C_8  and  O_9 
REMARK    3  A    between atoms: O_9  and  C_10 
REMARK    4  A    between atoms: C_15  and  C_16 
REMARK    5  A    between atoms: N_17  and  C_19 
REMARK    6  A    between atoms: C_19  and  C_21 
REMARK       I    between atoms: C_21  and  N_23 
ROOT
HETATM    1  C   UNK N   1      28.625  18.029   7.048  0.00  0.00     0.069 A 
HETATM    2  C   UNK N   1      29.517  17.244   6.302  0.00  0.00     0.037 A 
HETATM    3  C   UNK N   1      30.821  17.031   6.766  0.00  0.00     0.015 A 
HETATM    4  C   UNK N   1      29.024  18.541   8.289  0.00  0.00     0.037 A 
HETATM    5  C   UNK N   1      30.307  18.301   8.761  0.00  0.00     0.015 A 
HETATM    6  C   UNK N   1      31.209  17.557   8.005  0.00  0.00    -0.021 A 
ENDROOT
BRANCH   6   7
HETATM    7  C   UNK N   1      32.590  17.569   8.449  0.00  0.00     0.095 C 
HETATM    8  N   UNK N   1      33.180  16.448   8.670  0.00  0.00    -0.385 N 
ATOM      9  HN  UNK N   1      32.617  15.605   8.777  1.00  0.00     0.159 HD
BRANCH   8  10
HETATM   10  C   UNK N   1      34.622  16.349   8.768  0.00  0.00     0.169 C 
HETATM   11  C   UNK N   1      35.107  14.997   8.267  0.00  0.00     0.042 C 
BRANCH  10  12
HETATM   12  C   UNK N   1      35.094  16.599  10.191  0.00  0.00     0.237 C 
HETATM   13  O   UNK N   1      35.829  17.547  10.427  0.00  0.00    -0.271 OA
HETATM   14  N   UNK N   1      34.698  15.806  11.210  0.00  0.00    -0.368 N 
HETATM   15  H   UNK N   1      34.153  15.006  11.031  0.00  0.00     0.159 HD
HETATM   16  H   UNK N   1      34.957  16.028  12.134  0.00  0.00     0.159 HD
ENDBRANCH  10  12
ENDBRANCH   8  10
ENDBRANCH   6   7
BRANCH   1  17
HETATM   17  O   UNK N   1      27.407  18.313   6.538  0.00  0.00    -0.347 OA
BRANCH  17  18
HETATM   18  C   UNK N   1      26.910  17.709   5.399  0.00  0.00     0.214 C 
BRANCH  18  19
HETATM   19  C   UNK N   1      26.178  18.689   4.554  0.00  0.00    -0.031 A 
HETATM   20  C   UNK N   1      24.788  18.604   4.431  0.00  0.00     0.051 A 
HETATM   21  C   UNK N   1      24.101  19.510   3.624  0.00  0.00     0.117 A 
HETATM   22  F   UNK N   1      22.753  19.434   3.526  0.00  0.00    -0.206 F 
HETATM   23  C   UNK N   1      24.803  20.494   2.920  0.00  0.00     0.042 A 
HETATM   24  C   UNK N   1      26.195  20.574   3.032  0.00  0.00     0.004 A 
HETATM   25  C   UNK N   1      26.884  19.674   3.853  0.00  0.00     0.009 A 
ENDBRANCH  18  19
ENDBRANCH  17  18
ENDBRANCH   1  17
TORSDOF 6
ENDMDL
MODEL 7
REMARK VINA RESULT:      -6.5      6.106     11.025
REMARK  6 active torsions:
REMARK  status: ('A' for Active; 'I' for Inactive)
REMARK    1  A    between atoms: C_7  and  C_8 
REMARK    2  A    between atoms: C_8  and  O_9 
REMARK    3  A    between atoms: O_9  and  C_10 
REMARK    4  A    between atoms: C_15  and  C_16 
REMARK    5  A    between atoms: N_17  and  C_19 
REMARK    6  A    between atoms: C_19  and  C_21 
REMARK       I    between atoms: C_21  and  N_23 
ROOT
HETATM    1  C   UNK N   1      31.414  17.172   6.530  0.00  0.00     0.069 A 
HETATM    2  C   UNK N   1      32.662  17.279   5.899  0.00  0.00     0.037 A 
HETATM    3  C   UNK N   1      33.838  17.063   6.627  0.00  0.00     0.015 A 
HETATM    4  C   UNK N   1      31.348  16.784   7.874  0.00  0.00     0.037 A 
HETATM    5  C   UNK N   1      32.515  16.538   8.585  0.00  0.00     0.015 A 
HETATM    6  C   UNK N   1      33.757  16.683   7.973  0.00  0.00    -0.021 A 
ENDROOT
BRANCH   6   7
HETATM    7  C   UNK N   1      34.916  16.656   8.847  0.00  0.00     0.095 C 
HETATM    8  N   UNK N   1      34.830  16.036   9.970  0.00  0.00    -0.385 N 
ATOM      9  HN  UNK N   1      33.908  15.802  10.337  1.00  0.00     0.159 HD
BRANCH   8  10
HETATM   10  C   UNK N   1      36.006  15.659  10.727  0.00  0.00     0.169 C 
HETATM   11  C   UNK N   1      36.934  14.792   9.890  0.00  0.00     0.042 C 
BRANCH  10  12
HETATM   12  C   UNK N   1      35.624  14.953  12.019  0.00  0.00     0.237 C 
HETATM   13  O   UNK N   1      34.592  14.302  12.070  0.00  0.00    -0.271 OA
HETATM   14  N   UNK N   1      36.419  15.011  13.109  0.00  0.00    -0.368 N 
HETATM   15  H   UNK N   1      37.226  15.575  13.104  0.00  0.00     0.159 HD
HETATM   16  H   UNK N   1      36.190  14.488  13.911  0.00  0.00     0.159 HD
ENDBRANCH  10  12
ENDBRANCH   8  10
ENDBRANCH   6   7
BRANCH   1  17
HETATM   17  O   UNK N   1      30.294  17.487   5.842  0.00  0.00    -0.347 OA
BRANCH  17  18
HETATM   18  C   UNK N   1      29.053  17.593   6.438  0.00  0.00     0.214 C 
BRANCH  18  19
HETATM   19  C   UNK N   1      28.287  18.735   5.870  0.00  0.00    -0.031 A 
HETATM   20  C   UNK N   1      27.792  19.732   6.715  0.00  0.00     0.051 A 
HETATM   21  C   UNK N   1      27.057  20.794   6.188  0.00  0.00     0.117 A 
HETATM   22  F   UNK N   1      26.598  21.767   7.010  0.00  0.00    -0.206 F 
HETATM   23  C   UNK N   1      26.798  20.853   4.814  0.00  0.00     0.042 A 
HETATM   24  C   UNK N   1      27.282  19.850   3.968  0.00  0.00     0.004 A 
HETATM   25  C   UNK N   1      28.032  18.792   4.495  0.00  0.00     0.009 A 
ENDBRANCH  18  19
ENDBRANCH  17  18
ENDBRANCH   1  17
TORSDOF 6
ENDMDL
MODEL 8
REMARK VINA RESULT:      -6.5      8.922     13.650
REMARK  6 active torsions:
REMARK  status: ('A' for Active; 'I' for Inactive)
REMARK    1  A    between atoms: C_7  and  C_8 
REMARK    2  A    between atoms: C_8  and  O_9 
REMARK    3  A    between atoms: O_9  and  C_10 
REMARK    4  A    between atoms: C_15  and  C_16 
REMARK    5  A    between atoms: N_17  and  C_19 
REMARK    6  A    between atoms: C_19  and  C_21 
REMARK       I    between atoms: C_21  and  N_23 
ROOT
HETATM    1  C   UNK N   1      35.168  15.632   9.186  0.00  0.00     0.069 A 
HETATM    2  C   UNK N   1      35.093  16.511  10.277  0.00  0.00     0.037 A 
HETATM    3  C   UNK N   1      35.357  16.048  11.572  0.00  0.00     0.015 A 
HETATM    4  C   UNK N   1      35.571  14.307   9.391  0.00  0.00     0.037 A 
HETATM    5  C   UNK N   1      35.863  13.858  10.671  0.00  0.00     0.015 A 
HETATM    6  C   UNK N   1      35.751  14.717  11.762  0.00  0.00    -0.021 A 
ENDROOT
BRANCH   6   7
HETATM    7  C   UNK N   1      35.827  14.106  13.076  0.00  0.00     0.095 C 
HETATM    8  N   UNK N   1      36.872  14.312  13.796  0.00  0.00    -0.385 N 
ATOM      9  HN  UNK N   1      37.716  14.672  13.351  1.00  0.00     0.159 HD
BRANCH   8  10
HETATM   10  C   UNK N   1      36.885  14.048  15.220  0.00  0.00     0.169 C 
HETATM   11  C   UNK N   1      35.596  13.367  15.655  0.00  0.00     0.042 C 
BRANCH  10  12
HETATM   12  C   UNK N   1      37.116  15.324  16.013  0.00  0.00     0.237 C 
HETATM   13  O   UNK N   1      37.550  16.317  15.449  0.00  0.00    -0.271 OA
HETATM   14  N   UNK N   1      36.830  15.391  17.332  0.00  0.00    -0.368 N 
HETATM   15  H   UNK N   1      36.533  14.586  17.814  0.00  0.00     0.159 HD
HETATM   16  H   UNK N   1      36.919  16.246  17.810  0.00  0.00     0.159 HD
ENDBRANCH  10  12
ENDBRANCH   8  10
ENDBRANCH   6   7
BRANCH   1  17
HETATM   17  O   UNK N   1      34.808  16.068   7.959  0.00  0.00    -0.347 OA
BRANCH  17  18
HETATM   18  C   UNK N   1      34.359  17.352   7.720  0.00  0.00     0.214 C 
BRANCH  18  19
HETATM   19  C   UNK N   1      33.206  17.346   6.781  0.00  0.00    -0.031 A 
HETATM   20  C   UNK N   1      31.915  17.113   7.263  0.00  0.00     0.051 A 
HETATM   21  C   UNK N   1      30.833  17.089   6.382  0.00  0.00     0.117 A 
HETATM   22  F   UNK N   1      29.584  16.881   6.859  0.00  0.00    -0.206 F 
HETATM   23  C   UNK N   1      31.041  17.279   5.012  0.00  0.00     0.042 A 
HETATM   24  C   UNK N   1      32.334  17.503   4.526  0.00  0.00     0.004 A 
HETATM   25  C   UNK N   1      33.417  17.542   5.411  0.00  0.00     0.009 A 
ENDBRANCH  18  19
ENDBRANCH  17  18
ENDBRANCH   1  17
TORSDOF 6
ENDMDL
MODEL 9
REMARK VINA RESULT:      -6.4      7.960     13.061
REMARK  6 active torsions:
REMARK  status: ('A' for Active; 'I' for Inactive)
REMARK    1  A    between atoms: C_7  and  C_8 
REMARK    2  A    between atoms: C_8  and  O_9 
REMARK    3  A    between atoms: O_9  and  C_10 
REMARK    4  A    between atoms: C_15  and  C_16 
REMARK    5  A    between atoms: N_17  and  C_19 
REMARK    6  A    between atoms: C_19  and  C_21 
REMARK       I    between atoms: C_21  and  N_23 
ROOT
HETATM    1  C   UNK N   1      33.762  16.153   9.003  0.00  0.00     0.069 A 
HETATM    2  C   UNK N   1      33.422  14.983   9.699  0.00  0.00     0.037 A 
HETATM    3  C   UNK N   1      34.108  14.638  10.870  0.00  0.00     0.015 A 
HETATM    4  C   UNK N   1      34.746  17.005   9.520  0.00  0.00     0.037 A 
HETATM    5  C   UNK N   1      35.402  16.677  10.698  0.00  0.00     0.015 A 
HETATM    6  C   UNK N   1      35.095  15.497  11.371  0.00  0.00    -0.021 A 
ENDROOT
BRANCH   6   7
HETATM    7  C   UNK N   1      35.995  15.110  12.442  0.00  0.00     0.095 C 
HETATM    8  N   UNK N   1      35.715  14.068  13.140  0.00  0.00    -0.385 N 
ATOM      9  HN  UNK N   1      34.769  13.690  13.108  1.00  0.00     0.159 HD
BRANCH   8  10
HETATM   10  C   UNK N   1      36.705  13.416  13.972  0.00  0.00     0.169 C 
HETATM   11  C   UNK N   1      36.479  11.912  14.005  0.00  0.00     0.042 C 
BRANCH  10  12
HETATM   12  C   UNK N   1      36.708  13.993  15.379  0.00  0.00     0.237 C 
HETATM   13  O   UNK N   1      37.522  14.853  15.679  0.00  0.00    -0.271 OA
HETATM   14  N   UNK N   1      35.809  13.589  16.303  0.00  0.00    -0.368 N 
HETATM   15  H   UNK N   1      35.182  12.858  16.096  0.00  0.00     0.159 HD
HETATM   16  H   UNK N   1      35.781  14.027  17.184  0.00  0.00     0.159 HD
ENDBRANCH  10  12
ENDBRANCH   8  10
ENDBRANCH   6   7
BRANCH   1  17
HETATM   17  O   UNK N   1      33.165  16.417   7.820  0.00  0.00    -0.347 OA
BRANCH  17  18
HETATM   18  C   UNK N   1      31.936  15.896   7.467  0.00  0.00     0.214 C 
BRANCH  18  19
HETATM   19  C   UNK N   1      30.852  16.889   7.697  0.00  0.00    -0.031 A 
HETATM   20  C   UNK N   1      30.791  17.588   8.906  0.00  0.00     0.051 A 
HETATM   21  C   UNK N   1      29.766  18.506   9.132  0.00  0.00     0.117 A 
HETATM   22  F   UNK N   1      29.724  19.193  10.297  0.00  0.00    -0.206 F 
HETATM   23  C   UNK N   1      28.786  18.715   8.156  0.00  0.00     0.042 A 
HETATM   24  C   UNK N   1      28.839  18.009   6.949  0.00  0.00     0.004 A 
HETATM   25  C   UNK N   1      29.875  17.098   6.716  0.00  0.00     0.009 A 
ENDBRANCH  18  19
ENDBRANCH  17  18
ENDBRANCH   1  17
TORSDOF 6
ENDMDL
