REMARK  4 active torsions:
REMARK  status: ('A' for Active; 'I' for Inactive)
REMARK    1  A    between atoms: C_3  and  O_4 
REMARK    2  A    between atoms: C_8  and  C_7 
REMARK    3  A    between atoms: C_16  and  O_17 
REMARK    4  A    between atoms: C_20  and  O_21 
ROOT
HETATM    1  C   UNK N   1      -0.964  -0.205   0.279  0.00  0.00     0.169 C 
HETATM    2  O   UNK N   1       0.128   0.461  -0.253  0.00  0.00    -0.340 OA
HETATM    3  C   UNK N   1      -1.086  -1.607  -0.340  0.00  0.00     0.121 C 
HETATM    4  C   UNK N   1       0.240  -2.316  -0.222  0.00  0.00     0.167 C 
HETATM    5  O   UNK N   1       0.273  -3.535  -0.208  0.00  0.00    -0.292 OA
HETATM    6  C   UNK N   1       1.489  -1.505  -0.157  0.00  0.00     0.076 A 
HETATM    7  C   UNK N   1       1.359  -0.105  -0.213  0.00  0.00     0.089 A 
HETATM    8  C   UNK N   1       2.490   0.710  -0.186  0.00  0.00     0.074 A 
HETATM    9  C   UNK N   1       3.770   0.143  -0.074  0.00  0.00     0.073 A 
HETATM   10  C   UNK N   1       3.901  -1.248  -0.005  0.00  0.00     0.074 A 
HETATM   11  C   UNK N   1       2.775  -2.077  -0.050  0.00  0.00     0.085 A 
ENDROOT
BRANCH   1  12
HETATM   12  C   UNK N   1      -2.202   0.645   0.186  0.00  0.00    -0.028 A 
HETATM   13  C   UNK N   1      -3.400   0.160  -0.364  0.00  0.00     0.012 A 
HETATM   14  C   UNK N   1      -4.550   0.959  -0.360  0.00  0.00     0.037 A 
HETATM   15  C   UNK N   1      -4.507   2.245   0.188  0.00  0.00     0.065 A 
HETATM   16  C   UNK N   1      -3.316   2.737   0.723  0.00  0.00     0.037 A 
HETATM   17  C   UNK N   1      -2.172   1.938   0.728  0.00  0.00     0.012 A 
BRANCH  15  18
HETATM   18  O   UNK N   1      -5.613   3.007   0.204  0.00  0.00    -0.361 OA
HETATM   19  H   UNK N   1      -5.538   3.941   0.215  0.00  0.00     0.217 HD
ENDBRANCH  15  18
ENDBRANCH   1  12
BRANCH  11  20
HETATM   20  O   UNK N   1       2.938  -3.409   0.018  0.00  0.00    -0.360 OA
HETATM   21  H   UNK N   1       2.190  -3.972   0.066  0.00  0.00     0.217 HD
ENDBRANCH  11  20
BRANCH   9  22
HETATM   22  O   UNK N   1       4.882   0.913  -0.013  0.00  0.00    -0.356 OA
HETATM   23  C   UNK N   1       4.846   2.290  -0.029  0.00  0.00     0.210 C 
ENDBRANCH   9  22
TORSDOF 4
