MODEL 1
REMARK VINA RESULT:      -7.1      0.000      0.000
REMARK  4 active torsions:
REMARK  status: ('A' for Active; 'I' for Inactive)
REMARK    1  A    between atoms: C_3  and  O_4 
REMARK    2  A    between atoms: C_8  and  C_7 
REMARK    3  A    between atoms: C_16  and  O_17 
REMARK    4  A    between atoms: C_20  and  O_21 
ROOT
HETATM    1  C   UNK N   1      28.798  24.166  -4.248  0.00  0.00     0.169 C 
HETATM    2  O   UNK N   1      28.910  23.005  -4.995  0.00  0.00    -0.340 OA
HETATM    3  C   UNK N   1      28.823  23.837  -2.746  0.00  0.00     0.121 C 
HETATM    4  C   UNK N   1      30.025  22.976  -2.449  0.00  0.00     0.167 C 
HETATM    5  O   UNK N   1      30.505  22.976  -1.328  0.00  0.00    -0.292 OA
HETATM    6  C   UNK N   1      30.583  22.117  -3.532  0.00  0.00     0.076 A 
HETATM    7  C   UNK N   1      29.946  22.156  -4.786  0.00  0.00     0.089 A 
HETATM    8  C   UNK N   1      30.401  21.355  -5.833  0.00  0.00     0.074 A 
HETATM    9  C   UNK N   1      31.517  20.521  -5.655  0.00  0.00     0.073 A 
HETATM   10  C   UNK N   1      32.160  20.490  -4.413  0.00  0.00     0.074 A 
HETATM   11  C   UNK N   1      31.702  21.275  -3.349  0.00  0.00     0.085 A 
ENDROOT
BRANCH   1  12
HETATM   12  C   UNK N   1      27.618  24.980  -4.705  0.00  0.00    -0.028 A 
HETATM   13  C   UNK N   1      26.778  24.555  -5.747  0.00  0.00     0.012 A 
HETATM   14  C   UNK N   1      25.645  25.305  -6.088  0.00  0.00     0.037 A 
HETATM   15  C   UNK N   1      25.351  26.483  -5.394  0.00  0.00     0.065 A 
HETATM   16  C   UNK N   1      26.190  26.917  -4.367  0.00  0.00     0.037 A 
HETATM   17  C   UNK N   1      27.313  26.165  -4.020  0.00  0.00     0.012 A 
BRANCH  15  18
HETATM   18  O   UNK N   1      24.258  27.196  -5.712  0.00  0.00    -0.361 OA
HETATM   19  H   UNK N   1      23.772  26.988  -6.485  0.00  0.00     0.217 HD
ENDBRANCH  15  18
ENDBRANCH   1  12
BRANCH  11  20
HETATM   20  O   UNK N   1      32.343  21.220  -2.170  0.00  0.00    -0.360 OA
HETATM   21  H   UNK N   1      31.898  20.905  -1.407  0.00  0.00     0.217 HD
ENDBRANCH  11  20
BRANCH   9  22
HETATM   22  O   UNK N   1      31.998  19.758  -6.664  0.00  0.00    -0.356 OA
HETATM   23  C   UNK N   1      33.309  19.805  -7.085  0.00  0.00     0.210 C 
ENDBRANCH   9  22
TORSDOF 4
ENDMDL
MODEL 2
REMARK VINA RESULT:      -7.0     19.757     22.841
REMARK  4 active torsions:
REMARK  status: ('A' for Active; 'I' for Inactive)
REMARK    1  A    between atoms: C_3  and  O_4 
REMARK    2  A    between atoms: C_8  and  C_7 
REMARK    3  A    between atoms: C_16  and  O_17 
REMARK    4  A    between atoms: C_20  and  O_21 
ROOT
HETATM    1  C   UNK N   1      35.257  12.080  14.927  0.00  0.00     0.169 C 
HETATM    2  O   UNK N   1      35.097  13.307  14.303  0.00  0.00    -0.340 OA
HETATM    3  C   UNK N   1      34.267  11.056  14.351  0.00  0.00     0.121 C 
HETATM    4  C   UNK N   1      34.382  11.050  12.847  0.00  0.00     0.167 C 
HETATM    5  O   UNK N   1      34.066  10.052  12.221  0.00  0.00    -0.292 OA
HETATM    6  C   UNK N   1      34.851  12.283  12.154  0.00  0.00     0.076 A 
HETATM    7  C   UNK N   1      35.163  13.399  12.952  0.00  0.00     0.089 A 
HETATM    8  C   UNK N   1      35.580  14.593  12.365  0.00  0.00     0.074 A 
HETATM    9  C   UNK N   1      35.721  14.685  10.970  0.00  0.00     0.073 A 
HETATM   10  C   UNK N   1      35.425  13.573  10.175  0.00  0.00     0.074 A 
HETATM   11  C   UNK N   1      34.988  12.376  10.752  0.00  0.00     0.085 A 
ENDROOT
BRANCH   1  12
HETATM   12  C   UNK N   1      35.218  12.236  16.423  0.00  0.00    -0.028 A 
HETATM   13  C   UNK N   1      35.331  11.137  17.291  0.00  0.00     0.012 A 
HETATM   14  C   UNK N   1      35.368  11.335  18.676  0.00  0.00     0.037 A 
HETATM   15  C   UNK N   1      35.286  12.630  19.200  0.00  0.00     0.065 A 
HETATM   16  C   UNK N   1      35.160  13.724  18.344  0.00  0.00     0.037 A 
HETATM   17  C   UNK N   1      35.133  13.528  16.963  0.00  0.00     0.012 A 
BRANCH  15  18
HETATM   18  O   UNK N   1      35.335  12.822  20.529  0.00  0.00    -0.361 OA
HETATM   19  H   UNK N   1      34.589  12.617  21.059  0.00  0.00     0.217 HD
ENDBRANCH  15  18
ENDBRANCH   1  12
BRANCH  11  20
HETATM   20  O   UNK N   1      34.711  11.328   9.958  0.00  0.00    -0.360 OA
HETATM   21  H   UNK N   1      35.087  11.276   9.100  0.00  0.00     0.217 HD
ENDBRANCH  11  20
BRANCH   9  22
HETATM   22  O   UNK N   1      36.155  15.822  10.377  0.00  0.00    -0.356 OA
HETATM   23  C   UNK N   1      35.331  16.892  10.105  0.00  0.00     0.210 C 
ENDBRANCH   9  22
TORSDOF 4
ENDMDL
MODEL 3
REMARK VINA RESULT:      -6.8     19.356     22.498
REMARK  4 active torsions:
REMARK  status: ('A' for Active; 'I' for Inactive)
REMARK    1  A    between atoms: C_3  and  O_4 
REMARK    2  A    between atoms: C_8  and  C_7 
REMARK    3  A    between atoms: C_16  and  O_17 
REMARK    4  A    between atoms: C_20  and  O_21 
ROOT
HETATM    1  C   UNK N   1      36.603  13.342  14.803  0.00  0.00     0.169 C 
HETATM    2  O   UNK N   1      35.781  14.176  14.062  0.00  0.00    -0.340 OA
HETATM    3  C   UNK N   1      36.735  11.975  14.114  0.00  0.00     0.121 C 
HETATM    4  C   UNK N   1      37.135  12.184  12.674  0.00  0.00     0.167 C 
HETATM    5  O   UNK N   1      37.730  11.301  12.079  0.00  0.00    -0.292 OA
HETATM    6  C   UNK N   1      36.762  13.460  12.000  0.00  0.00     0.076 A 
HETATM    7  C   UNK N   1      36.046  14.409  12.754  0.00  0.00     0.089 A 
HETATM    8  C   UNK N   1      35.642  15.611  12.174  0.00  0.00     0.074 A 
HETATM    9  C   UNK N   1      35.970  15.899  10.839  0.00  0.00     0.073 A 
HETATM   10  C   UNK N   1      36.692  14.963  10.091  0.00  0.00     0.074 A 
HETATM   11  C   UNK N   1      37.087  13.746  10.657  0.00  0.00     0.085 A 
ENDROOT
BRANCH   1  12
HETATM   12  C   UNK N   1      36.155  13.294  16.239  0.00  0.00    -0.028 A 
HETATM   13  C   UNK N   1      36.011  14.456  17.015  0.00  0.00     0.012 A 
HETATM   14  C   UNK N   1      35.517  14.372  18.322  0.00  0.00     0.037 A 
HETATM   15  C   UNK N   1      35.170  13.129  18.861  0.00  0.00     0.065 A 
HETATM   16  C   UNK N   1      35.325  11.970  18.100  0.00  0.00     0.037 A 
HETATM   17  C   UNK N   1      35.808  12.054  16.793  0.00  0.00     0.012 A 
BRANCH  15  18
HETATM   18  O   UNK N   1      34.684  13.049  20.111  0.00  0.00    -0.361 OA
HETATM   19  H   UNK N   1      35.157  13.434  20.823  0.00  0.00     0.217 HD
ENDBRANCH  15  18
ENDBRANCH   1  12
BRANCH  11  20
HETATM   20  O   UNK N   1      37.779  12.869   9.909  0.00  0.00    -0.360 OA
HETATM   21  H   UNK N   1      38.279  12.192  10.322  0.00  0.00     0.217 HD
ENDBRANCH  11  20
BRANCH   9  22
HETATM   22  O   UNK N   1      35.618  17.072  10.261  0.00  0.00    -0.356 OA
HETATM   23  C   UNK N   1      34.702  17.162   9.236  0.00  0.00     0.210 C 
ENDBRANCH   9  22
TORSDOF 4
ENDMDL
MODEL 4
REMARK VINA RESULT:      -6.6     13.122     15.562
REMARK  4 active torsions:
REMARK  status: ('A' for Active; 'I' for Inactive)
REMARK    1  A    between atoms: C_3  and  O_4 
REMARK    2  A    between atoms: C_8  and  C_7 
REMARK    3  A    between atoms: C_16  and  O_17 
REMARK    4  A    between atoms: C_20  and  O_21 
ROOT
HETATM    1  C   UNK N   1      33.372  16.690   7.389  0.00  0.00     0.169 C 
HETATM    2  O   UNK N   1      33.053  15.559   8.123  0.00  0.00    -0.340 OA
HETATM    3  C   UNK N   1      33.795  17.832   8.327  0.00  0.00     0.121 C 
HETATM    4  C   UNK N   1      34.865  17.331   9.263  0.00  0.00     0.167 C 
HETATM    5  O   UNK N   1      35.655  18.120   9.755  0.00  0.00    -0.292 OA
HETATM    6  C   UNK N   1      34.914  15.878   9.593  0.00  0.00     0.076 A 
HETATM    7  C   UNK N   1      33.943  15.045   9.006  0.00  0.00     0.089 A 
HETATM    8  C   UNK N   1      33.916  13.682   9.296  0.00  0.00     0.074 A 
HETATM    9  C   UNK N   1      34.874  13.120  10.155  0.00  0.00     0.073 A 
HETATM   10  C   UNK N   1      35.848  13.943  10.729  0.00  0.00     0.074 A 
HETATM   11  C   UNK N   1      35.875  15.316  10.461  0.00  0.00     0.085 A 
ENDROOT
BRANCH   1  12
HETATM   12  C   UNK N   1      32.265  17.029   6.427  0.00  0.00    -0.028 A 
HETATM   13  C   UNK N   1      32.517  17.355   5.085  0.00  0.00     0.012 A 
HETATM   14  C   UNK N   1      31.453  17.588   4.205  0.00  0.00     0.037 A 
HETATM   15  C   UNK N   1      30.134  17.501   4.664  0.00  0.00     0.065 A 
HETATM   16  C   UNK N   1      29.878  17.191   6.000  0.00  0.00     0.037 A 
HETATM   17  C   UNK N   1      30.938  16.949   6.874  0.00  0.00     0.012 A 
BRANCH  15  18
HETATM   18  O   UNK N   1      29.112  17.711   3.818  0.00  0.00    -0.361 OA
HETATM   19  H   UNK N   1      29.124  17.325   2.964  0.00  0.00     0.217 HD
ENDBRANCH  15  18
ENDBRANCH   1  12
BRANCH  11  20
HETATM   20  O   UNK N   1      36.824  16.077  11.030  0.00  0.00    -0.360 OA
HETATM   21  H   UNK N   1      37.643  15.696  11.283  0.00  0.00     0.217 HD
ENDBRANCH  11  20
BRANCH   9  22
HETATM   22  O   UNK N   1      34.889  11.793  10.427  0.00  0.00    -0.356 OA
HETATM   23  C   UNK N   1      35.927  11.172  11.086  0.00  0.00     0.210 C 
ENDBRANCH   9  22
TORSDOF 4
ENDMDL
MODEL 5
REMARK VINA RESULT:      -6.5      1.832      7.585
REMARK  4 active torsions:
REMARK  status: ('A' for Active; 'I' for Inactive)
REMARK    1  A    between atoms: C_3  and  O_4 
REMARK    2  A    between atoms: C_8  and  C_7 
REMARK    3  A    between atoms: C_16  and  O_17 
REMARK    4  A    between atoms: C_20  and  O_21 
ROOT
HETATM    1  C   UNK N   1      28.296  23.982  -5.180  0.00  0.00     0.169 C 
HETATM    2  O   UNK N   1      28.046  24.738  -4.047  0.00  0.00    -0.340 OA
HETATM    3  C   UNK N   1      26.974  23.519  -5.814  0.00  0.00     0.121 C 
HETATM    4  C   UNK N   1      26.073  24.713  -6.004  0.00  0.00     0.167 C 
HETATM    5  O   UNK N   1      25.212  24.688  -6.868  0.00  0.00    -0.292 OA
HETATM    6  C   UNK N   1      26.235  25.891  -5.105  0.00  0.00     0.076 A 
HETATM    7  C   UNK N   1      27.232  25.820  -4.114  0.00  0.00     0.089 A 
HETATM    8  C   UNK N   1      27.416  26.876  -3.222  0.00  0.00     0.074 A 
HETATM    9  C   UNK N   1      26.628  28.034  -3.322  0.00  0.00     0.073 A 
HETATM   10  C   UNK N   1      25.645  28.112  -4.315  0.00  0.00     0.074 A 
HETATM   11  C   UNK N   1      25.438  27.052  -5.203  0.00  0.00     0.085 A 
ENDROOT
BRANCH   1  12
HETATM   12  C   UNK N   1      29.280  22.884  -4.880  0.00  0.00    -0.028 A 
HETATM   13  C   UNK N   1      29.838  22.711  -3.602  0.00  0.00     0.012 A 
HETATM   14  C   UNK N   1      30.689  21.629  -3.347  0.00  0.00     0.037 A 
HETATM   15  C   UNK N   1      30.991  20.720  -4.366  0.00  0.00     0.065 A 
HETATM   16  C   UNK N   1      30.451  20.895  -5.641  0.00  0.00     0.037 A 
HETATM   17  C   UNK N   1      29.594  21.967  -5.893  0.00  0.00     0.012 A 
BRANCH  15  18
HETATM   18  O   UNK N   1      31.797  19.675  -4.118  0.00  0.00    -0.361 OA
HETATM   19  H   UNK N   1      32.547  19.783  -3.567  0.00  0.00     0.217 HD
ENDBRANCH  15  18
ENDBRANCH   1  12
BRANCH  11  20
HETATM   20  O   UNK N   1      24.485  27.161  -6.144  0.00  0.00    -0.360 OA
HETATM   21  H   UNK N   1      23.790  27.782  -6.039  0.00  0.00     0.217 HD
ENDBRANCH  11  20
BRANCH   9  22
HETATM   22  O   UNK N   1      26.808  29.086  -2.489  0.00  0.00    -0.356 OA
HETATM   23  C   UNK N   1      27.933  29.882  -2.514  0.00  0.00     0.210 C 
ENDBRANCH   9  22
TORSDOF 4
ENDMDL
MODEL 6
REMARK VINA RESULT:      -6.5     10.138     13.107
REMARK  4 active torsions:
REMARK  status: ('A' for Active; 'I' for Inactive)
REMARK    1  A    between atoms: C_3  and  O_4 
REMARK    2  A    between atoms: C_8  and  C_7 
REMARK    3  A    between atoms: C_16  and  O_17 
REMARK    4  A    between atoms: C_20  and  O_21 
ROOT
HETATM    1  C   UNK N   1      26.717  19.207   5.356  0.00  0.00     0.169 C 
HETATM    2  O   UNK N   1      25.701  18.268   5.289  0.00  0.00    -0.340 OA
HETATM    3  C   UNK N   1      27.044  19.740   3.952  0.00  0.00     0.121 C 
HETATM    4  C   UNK N   1      25.769  20.196   3.287  0.00  0.00     0.167 C 
HETATM    5  O   UNK N   1      25.815  21.044   2.412  0.00  0.00    -0.292 OA
HETATM    6  C   UNK N   1      24.479  19.572   3.697  0.00  0.00     0.076 A 
HETATM    7  C   UNK N   1      24.524  18.578   4.692  0.00  0.00     0.089 A 
HETATM    8  C   UNK N   1      23.356  17.935   5.099  0.00  0.00     0.074 A 
HETATM    9  C   UNK N   1      22.118  18.292   4.541  0.00  0.00     0.073 A 
HETATM   10  C   UNK N   1      22.069  19.289   3.562  0.00  0.00     0.074 A 
HETATM   11  C   UNK N   1      23.236  19.929   3.131  0.00  0.00     0.085 A 
ENDROOT
BRANCH   1  12
HETATM   12  C   UNK N   1      27.892  18.665   6.124  0.00  0.00    -0.028 A 
HETATM   13  C   UNK N   1      28.107  18.975   7.477  0.00  0.00     0.012 A 
HETATM   14  C   UNK N   1      29.169  18.386   8.173  0.00  0.00     0.037 A 
HETATM   15  C   UNK N   1      30.023  17.490   7.522  0.00  0.00     0.065 A 
HETATM   16  C   UNK N   1      29.823  17.189   6.174  0.00  0.00     0.037 A 
HETATM   17  C   UNK N   1      28.758  17.768   5.481  0.00  0.00     0.012 A 
BRANCH  15  18
HETATM   18  O   UNK N   1      31.034  16.915   8.193  0.00  0.00    -0.361 OA
HETATM   19  H   UNK N   1      31.235  17.193   9.065  0.00  0.00     0.217 HD
ENDBRANCH  15  18
ENDBRANCH   1  12
BRANCH  11  20
HETATM   20  O   UNK N   1      23.152  20.882   2.187  0.00  0.00    -0.360 OA
HETATM   21  H   UNK N   1      23.752  21.602   2.192  0.00  0.00     0.217 HD
ENDBRANCH  11  20
BRANCH   9  22
HETATM   22  O   UNK N   1      20.965  17.706   4.943  0.00  0.00    -0.356 OA
HETATM   23  C   UNK N   1      20.060  17.147   4.067  0.00  0.00     0.210 C 
ENDBRANCH   9  22
TORSDOF 4
ENDMDL
MODEL 7
REMARK VINA RESULT:      -6.4     20.393     23.404
REMARK  4 active torsions:
REMARK  status: ('A' for Active; 'I' for Inactive)
REMARK    1  A    between atoms: C_3  and  O_4 
REMARK    2  A    between atoms: C_8  and  C_7 
REMARK    3  A    between atoms: C_16  and  O_17 
REMARK    4  A    between atoms: C_20  and  O_21 
ROOT
HETATM    1  C   UNK N   1      35.085  12.687  15.434  0.00  0.00     0.169 C 
HETATM    2  O   UNK N   1      35.148  11.572  14.614  0.00  0.00    -0.340 OA
HETATM    3  C   UNK N   1      36.103  13.743  14.975  0.00  0.00     0.121 C 
HETATM    4  C   UNK N   1      35.919  13.999  13.500  0.00  0.00     0.167 C 
HETATM    5  O   UNK N   1      36.260  15.069  13.026  0.00  0.00    -0.292 OA
HETATM    6  C   UNK N   1      35.349  12.918  12.646  0.00  0.00     0.076 A 
HETATM    7  C   UNK N   1      35.014  11.703  13.272  0.00  0.00     0.089 A 
HETATM    8  C   UNK N   1      34.504  10.642  12.525  0.00  0.00     0.074 A 
HETATM    9  C   UNK N   1      34.294  10.784  11.144  0.00  0.00     0.073 A 
HETATM   10  C   UNK N   1      34.614  11.995  10.521  0.00  0.00     0.074 A 
HETATM   11  C   UNK N   1      35.143  13.061  11.257  0.00  0.00     0.085 A 
ENDROOT
BRANCH   1  12
HETATM   12  C   UNK N   1      35.185  12.288  16.882  0.00  0.00    -0.028 A 
HETATM   13  C   UNK N   1      35.462  10.969  17.275  0.00  0.00     0.012 A 
HETATM   14  C   UNK N   1      35.623  10.658  18.630  0.00  0.00     0.037 A 
HETATM   15  C   UNK N   1      35.504  11.660  19.598  0.00  0.00     0.065 A 
HETATM   16  C   UNK N   1      35.215  12.970  19.214  0.00  0.00     0.037 A 
HETATM   17  C   UNK N   1      35.063  13.283  17.863  0.00  0.00     0.012 A 
BRANCH  15  18
HETATM   18  O   UNK N   1      35.671  11.365  20.897  0.00  0.00    -0.361 OA
HETATM   19  H   UNK N   1      35.020  11.617  21.522  0.00  0.00     0.217 HD
ENDBRANCH  15  18
ENDBRANCH   1  12
BRANCH  11  20
HETATM   20  O   UNK N   1      35.440  14.210  10.627  0.00  0.00    -0.360 OA
HETATM   21  H   UNK N   1      34.897  14.515   9.926  0.00  0.00     0.217 HD
ENDBRANCH  11  20
BRANCH   9  22
HETATM   22  O   UNK N   1      33.770   9.780  10.401  0.00  0.00    -0.356 OA
HETATM   23  C   UNK N   1      32.546   9.867   9.775  0.00  0.00     0.210 C 
ENDBRANCH   9  22
TORSDOF 4
ENDMDL
MODEL 8
REMARK VINA RESULT:      -6.3     15.998     19.354
REMARK  4 active torsions:
REMARK  status: ('A' for Active; 'I' for Inactive)
REMARK    1  A    between atoms: C_3  and  O_4 
REMARK    2  A    between atoms: C_8  and  C_7 
REMARK    3  A    between atoms: C_16  and  O_17 
REMARK    4  A    between atoms: C_20  and  O_21 
ROOT
HETATM    1  C   UNK N   1      34.880  14.644  11.765  0.00  0.00     0.169 C 
HETATM    2  O   UNK N   1      34.498  13.969  10.617  0.00  0.00    -0.340 OA
HETATM    3  C   UNK N   1      35.862  15.775  11.417  0.00  0.00     0.121 C 
HETATM    4  C   UNK N   1      35.269  16.623  10.320  0.00  0.00     0.167 C 
HETATM    5  O   UNK N   1      35.616  17.786  10.203  0.00  0.00    -0.292 OA
HETATM    6  C   UNK N   1      34.291  16.006   9.379  0.00  0.00     0.076 A 
HETATM    7  C   UNK N   1      33.974  14.649   9.568  0.00  0.00     0.089 A 
HETATM    8  C   UNK N   1      33.088  14.004   8.705  0.00  0.00     0.074 A 
HETATM    9  C   UNK N   1      32.482  14.712   7.654  0.00  0.00     0.073 A 
HETATM   10  C   UNK N   1      32.785  16.065   7.472  0.00  0.00     0.074 A 
HETATM   11  C   UNK N   1      33.687  16.717   8.320  0.00  0.00     0.085 A 
ENDROOT
BRANCH   1  12
HETATM   12  C   UNK N   1      35.362  13.679  12.814  0.00  0.00    -0.028 A 
HETATM   13  C   UNK N   1      35.015  12.318  12.791  0.00  0.00     0.012 A 
HETATM   14  C   UNK N   1      35.549  11.440  13.742  0.00  0.00     0.037 A 
HETATM   15  C   UNK N   1      36.425  11.917  14.721  0.00  0.00     0.065 A 
HETATM   16  C   UNK N   1      36.762  13.271  14.758  0.00  0.00     0.037 A 
HETATM   17  C   UNK N   1      36.238  14.145  13.805  0.00  0.00     0.012 A 
BRANCH  15  18
HETATM   18  O   UNK N   1      36.948  11.073  15.626  0.00  0.00    -0.361 OA
HETATM   19  H   UNK N   1      37.452  10.336  15.342  0.00  0.00     0.217 HD
ENDBRANCH  15  18
ENDBRANCH   1  12
BRANCH  11  20
HETATM   20  O   UNK N   1      33.956  18.018   8.115  0.00  0.00    -0.360 OA
HETATM   21  H   UNK N   1      34.303  18.302   7.292  0.00  0.00     0.217 HD
ENDBRANCH  11  20
BRANCH   9  22
HETATM   22  O   UNK N   1      31.594  14.118   6.822  0.00  0.00    -0.356 OA
HETATM   23  C   UNK N   1      30.942  14.792   5.813  0.00  0.00     0.210 C 
ENDBRANCH   9  22
TORSDOF 4
ENDMDL
MODEL 9
REMARK VINA RESULT:      -6.3      9.916     11.573
REMARK  4 active torsions:
REMARK  status: ('A' for Active; 'I' for Inactive)
REMARK    1  A    between atoms: C_3  and  O_4 
REMARK    2  A    between atoms: C_8  and  C_7 
REMARK    3  A    between atoms: C_16  and  O_17 
REMARK    4  A    between atoms: C_20  and  O_21 
ROOT
HETATM    1  C   UNK N   1      28.096  18.715   5.753  0.00  0.00     0.169 C 
HETATM    2  O   UNK N   1      29.042  17.948   5.091  0.00  0.00    -0.340 OA
HETATM    3  C   UNK N   1      27.571  17.964   6.987  0.00  0.00     0.121 C 
HETATM    4  C   UNK N   1      28.741  17.499   7.818  0.00  0.00     0.167 C 
HETATM    5  O   UNK N   1      28.594  17.308   9.013  0.00  0.00    -0.292 OA
HETATM    6  C   UNK N   1      30.050  17.253   7.147  0.00  0.00     0.076 A 
HETATM    7  C   UNK N   1      30.119  17.468   5.758  0.00  0.00     0.089 A 
HETATM    8  C   UNK N   1      31.306  17.228   5.066  0.00  0.00     0.074 A 
HETATM    9  C   UNK N   1      32.452  16.796   5.753  0.00  0.00     0.073 A 
HETATM   10  C   UNK N   1      32.389  16.595   7.136  0.00  0.00     0.074 A 
HETATM   11  C   UNK N   1      31.199  16.814   7.838  0.00  0.00     0.085 A 
ENDROOT
BRANCH   1  12
HETATM   12  C   UNK N   1      27.037  19.194   4.797  0.00  0.00    -0.028 A 
HETATM   13  C   UNK N   1      25.713  18.729   4.857  0.00  0.00     0.012 A 
HETATM   14  C   UNK N   1      24.742  19.259   3.998  0.00  0.00     0.037 A 
HETATM   15  C   UNK N   1      25.090  20.251   3.075  0.00  0.00     0.065 A 
HETATM   16  C   UNK N   1      26.407  20.706   3.002  0.00  0.00     0.037 A 
HETATM   17  C   UNK N   1      27.373  20.185   3.864  0.00  0.00     0.012 A 
BRANCH  15  18
HETATM   18  O   UNK N   1      24.156  20.769   2.261  0.00  0.00    -0.361 OA
HETATM   19  H   UNK N   1      24.143  21.690   2.090  0.00  0.00     0.217 HD
ENDBRANCH  15  18
ENDBRANCH   1  12
BRANCH  11  20
HETATM   20  O   UNK N   1      31.174  16.610   9.166  0.00  0.00    -0.360 OA
HETATM   21  H   UNK N   1      31.944  16.760   9.679  0.00  0.00     0.217 HD
ENDBRANCH  11  20
BRANCH   9  22
HETATM   22  O   UNK N   1      33.626  16.588   5.110  0.00  0.00    -0.356 OA
HETATM   23  C   UNK N   1      34.596  15.728   5.575  0.00  0.00     0.210 C 
ENDBRANCH   9  22
TORSDOF 4
ENDMDL
