REMARK  6 active torsions:
REMARK  status: ('A' for Active; 'I' for Inactive)
REMARK    1  A    between atoms: N_1  and  C_3 
REMARK       I    between atoms: N_1  and  C_4 
REMARK    2  A    between atoms: N_2  and  C_7 
REMARK    3  A    between atoms: N_2  and  C_20 
REMARK    4  A    between atoms: C_12  and  O_33 
REMARK    5  A    between atoms: O_15  and  C_16 
REMARK    6  A    between atoms: C_30  and  O_31 
ROOT
HETATM    1  N   UNK N   1       2.910  -0.056  -0.199  0.00  0.00    -0.191 N 
HETATM    2  C   UNK N   1       1.833   0.715   0.310  0.00  0.00     0.684 A 
HETATM    3  C   UNK N   1      -0.067   0.821   1.718  0.00  0.00     0.110 A 
HETATM    4  C   UNK N   1      -0.370   2.069   1.215  0.00  0.00     0.066 A 
HETATM    5  C   UNK N   1       0.459   2.637   0.239  0.00  0.00     0.122 A 
HETATM    6  N   UNK N   1       1.014   0.164   1.249  0.00  0.00    -0.202 N 
ATOM      7  HN  UNK N   1       1.223  -0.769   1.606  1.00  0.00     0.183 HD
HETATM    8  N   UNK N   1       1.565   1.958  -0.183  0.00  0.00    -0.176 N 
ATOM      9  HN  UNK N   1       2.191   2.381  -0.868  1.00  0.00     0.186 HD
HETATM   10  H   UNK N   1       3.740   0.378  -0.502  0.00  0.00     0.184 HD
ENDROOT
BRANCH   1  11
HETATM   11  C   UNK N   1       2.764  -1.468  -0.262  0.00  0.00     0.054 A 
HETATM   12  C   UNK N   1       3.835  -2.314  -0.002  0.00  0.00     0.069 A 
HETATM   13  C   UNK N   1       3.663  -3.706   0.014  0.00  0.00     0.106 A 
HETATM   14  C   UNK N   1       2.354  -4.261  -0.219  0.00  0.00     0.135 A 
HETATM   15  C   UNK N   1       1.281  -3.377  -0.520  0.00  0.00     0.106 A 
HETATM   16  C   UNK N   1       1.510  -2.012  -0.535  0.00  0.00     0.069 A 
BRANCH  13  17
HETATM   17  O   UNK N   1       4.773  -4.451   0.237  0.00  0.00    -0.353 OA
HETATM   18  C   UNK N   1       5.062  -5.618  -0.431  0.00  0.00     0.210 C 
ENDBRANCH  13  17
BRANCH  14  19
HETATM   19  O   UNK N   1       2.090  -5.591  -0.147  0.00  0.00    -0.351 OA
HETATM   20  C   UNK N   1       2.659  -6.453   0.761  0.00  0.00     0.210 C 
ENDBRANCH  14  19
BRANCH  15  21
HETATM   21  O   UNK N   1       0.006  -3.781  -0.765  0.00  0.00    -0.353 OA
HETATM   22  C   UNK N   1      -0.465  -5.070  -0.704  0.00  0.00     0.210 C 
ENDBRANCH  15  21
ENDBRANCH   1  11
BRANCH   5  23
HETATM   23  N   UNK N   1       0.137   3.909  -0.315  0.00  0.00    -0.342 N 
HETATM   24  H   UNK N   1       0.853   4.442  -0.730  0.00  0.00     0.167 HD
BRANCH  23  25
HETATM   25  C   UNK N   1      -1.187   4.436  -0.289  0.00  0.00     0.035 A 
HETATM   26  C   UNK N   1      -1.392   5.838  -0.305  0.00  0.00     0.030 A 
HETATM   27  C   UNK N   1      -2.696   6.373  -0.226  0.00  0.00     0.018 A 
HETATM   28  C   UNK N   1      -3.761   5.474  -0.148  0.00  0.00     0.016 A 
HETATM   29  C   UNK N   1      -5.120   5.639  -0.045  0.00  0.00     0.034 A 
HETATM   30  C   UNK N   1      -3.566   4.129  -0.162  0.00  0.00     0.062 A 
HETATM   31  C   UNK N   1      -5.864   6.924   0.027  0.00  0.00     0.070 C 
HETATM   32  N   UNK N   1      -5.701   4.416  -0.006  0.00  0.00    -0.304 N 
HETATM   33  N   UNK N   1      -4.749   3.493  -0.078  0.00  0.00    -0.300 N 
ATOM     34  HN  UNK N   1      -6.702   4.235   0.066  1.00  0.00     0.186 HD
HETATM   35  H   UNK N   1      -4.885   2.518  -0.071  0.00  0.00     0.187 HD
HETATM   36  C   UNK N   1      -2.305   3.568  -0.231  0.00  0.00     0.061 A 
ENDBRANCH  23  25
ENDBRANCH   5  23
TORSDOF 6
