MODEL 1
REMARK VINA RESULT:      -8.2      0.000      0.000
REMARK  6 active torsions:
REMARK  status: ('A' for Active; 'I' for Inactive)
REMARK    1  A    between atoms: N_1  and  C_3 
REMARK       I    between atoms: N_1  and  C_4 
REMARK    2  A    between atoms: N_2  and  C_7 
REMARK    3  A    between atoms: N_2  and  C_20 
REMARK    4  A    between atoms: C_12  and  O_33 
REMARK    5  A    between atoms: O_15  and  C_16 
REMARK    6  A    between atoms: C_30  and  O_31 
ROOT
HETATM    1  N   UNK N   1      33.559  17.833   9.177  0.00  0.00    -0.191 N 
HETATM    2  C   UNK N   1      34.505  16.813   9.455  0.00  0.00     0.684 A 
HETATM    3  C   UNK N   1      35.649  14.881   8.705  0.00  0.00     0.110 A 
HETATM    4  C   UNK N   1      36.187  14.711   9.964  0.00  0.00     0.066 A 
HETATM    5  C   UNK N   1      35.867  15.623  10.978  0.00  0.00     0.122 A 
HETATM    6  N   UNK N   1      34.811  15.914   8.478  0.00  0.00    -0.202 N 
ATOM      7  HN  UNK N   1      34.396  16.024   7.553  1.00  0.00     0.183 HD
HETATM    8  N   UNK N   1      35.046  16.678  10.700  0.00  0.00    -0.176 N 
ATOM      9  HN  UNK N   1      34.836  17.364  11.424  1.00  0.00     0.186 HD
HETATM   10  H   UNK N   1      33.619  18.710   9.621  0.00  0.00     0.184 HD
ENDROOT
BRANCH   1  11
HETATM   11  C   UNK N   1      32.523  17.562   8.243  0.00  0.00     0.054 A 
HETATM   12  C   UNK N   1      31.200  17.445   8.652  0.00  0.00     0.069 A 
HETATM   13  C   UNK N   1      30.173  17.258   7.715  0.00  0.00     0.106 A 
HETATM   14  C   UNK N   1      30.495  17.211   6.311  0.00  0.00     0.135 A 
HETATM   15  C   UNK N   1      31.860  17.295   5.920  0.00  0.00     0.106 A 
HETATM   16  C   UNK N   1      32.834  17.466   6.888  0.00  0.00     0.069 A 
BRANCH  13  17
HETATM   17  O   UNK N   1      28.919  17.115   8.210  0.00  0.00    -0.353 OA
HETATM   18  C   UNK N   1      28.293  18.053   8.998  0.00  0.00     0.210 C 
ENDBRANCH  13  17
BRANCH  14  19
HETATM   19  O   UNK N   1      29.553  17.108   5.338  0.00  0.00    -0.351 OA
HETATM   20  C   UNK N   1      28.825  18.163   4.840  0.00  0.00     0.210 C 
ENDBRANCH  14  19
BRANCH  15  21
HETATM   21  O   UNK N   1      32.287  17.255   4.630  0.00  0.00    -0.353 OA
HETATM   22  C   UNK N   1      32.785  16.157   3.971  0.00  0.00     0.210 C 
ENDBRANCH  15  21
ENDBRANCH   1  11
BRANCH   5  23
HETATM   23  N   UNK N   1      36.386  15.439  12.291  0.00  0.00    -0.342 N 
HETATM   24  H   UNK N   1      37.041  16.087  12.639  0.00  0.00     0.167 HD
BRANCH  23  25
HETATM   25  C   UNK N   1      35.991  14.348  13.118  0.00  0.00     0.035 A 
HETATM   26  C   UNK N   1      36.503  14.235  14.435  0.00  0.00     0.030 A 
HETATM   27  C   UNK N   1      36.161  13.131  15.245  0.00  0.00     0.018 A 
HETATM   28  C   UNK N   1      35.296  12.176  14.707  0.00  0.00     0.016 A 
HETATM   29  C   UNK N   1      34.780  11.001  15.193  0.00  0.00     0.034 A 
HETATM   30  C   UNK N   1      34.782  12.300  13.455  0.00  0.00     0.062 A 
HETATM   31  C   UNK N   1      35.041  10.389  16.523  0.00  0.00     0.070 C 
HETATM   32  N   UNK N   1      33.979  10.457  14.246  0.00  0.00    -0.304 N 
HETATM   33  N   UNK N   1      33.981  11.253  13.183  0.00  0.00    -0.300 N 
ATOM     34  HN  UNK N   1      33.461   9.583  14.334  1.00  0.00     0.186 HD
HETATM   35  H   UNK N   1      33.485  11.104  12.345  0.00  0.00     0.187 HD
HETATM   36  C   UNK N   1      35.099  13.362  12.630  0.00  0.00     0.061 A 
ENDBRANCH  23  25
ENDBRANCH   5  23
TORSDOF 6
ENDMDL
MODEL 2
REMARK VINA RESULT:      -8.2      0.581      2.459
REMARK  6 active torsions:
REMARK  status: ('A' for Active; 'I' for Inactive)
REMARK    1  A    between atoms: N_1  and  C_3 
REMARK       I    between atoms: N_1  and  C_4 
REMARK    2  A    between atoms: N_2  and  C_7 
REMARK    3  A    between atoms: N_2  and  C_20 
REMARK    4  A    between atoms: C_12  and  O_33 
REMARK    5  A    between atoms: O_15  and  C_16 
REMARK    6  A    between atoms: C_30  and  O_31 
ROOT
HETATM    1  N   UNK N   1      33.928  17.930   9.180  0.00  0.00    -0.191 N 
HETATM    2  C   UNK N   1      34.760  16.836   9.534  0.00  0.00     0.684 A 
HETATM    3  C   UNK N   1      35.733  14.773   8.904  0.00  0.00     0.110 A 
HETATM    4  C   UNK N   1      36.209  14.605  10.188  0.00  0.00     0.066 A 
HETATM    5  C   UNK N   1      35.944  15.586  11.153  0.00  0.00     0.122 A 
HETATM    6  N   UNK N   1      35.009  15.871   8.606  0.00  0.00    -0.202 N 
ATOM      7  HN  UNK N   1      34.639  15.982   7.661  1.00  0.00     0.183 HD
HETATM    8  N   UNK N   1      35.241  16.702  10.803  0.00  0.00    -0.176 N 
ATOM      9  HN  UNK N   1      35.075  17.435  11.492  1.00  0.00     0.186 HD
HETATM   10  H   UNK N   1      34.059  18.815   9.592  0.00  0.00     0.184 HD
ENDROOT
BRANCH   1  11
HETATM   11  C   UNK N   1      32.903  17.721   8.219  0.00  0.00     0.054 A 
HETATM   12  C   UNK N   1      33.198  17.608   6.866  0.00  0.00     0.069 A 
HETATM   13  C   UNK N   1      32.190  17.320   5.933  0.00  0.00     0.106 A 
HETATM   14  C   UNK N   1      30.839  17.116   6.390  0.00  0.00     0.135 A 
HETATM   15  C   UNK N   1      30.555  17.274   7.775  0.00  0.00     0.106 A 
HETATM   16  C   UNK N   1      31.585  17.571   8.649  0.00  0.00     0.069 A 
BRANCH  13  17
HETATM   17  O   UNK N   1      32.566  17.268   4.632  0.00  0.00    -0.353 OA
HETATM   18  C   UNK N   1      33.195  16.189   4.056  0.00  0.00     0.210 C 
ENDBRANCH  13  17
BRANCH  14  19
HETATM   19  O   UNK N   1      29.823  16.761   5.562  0.00  0.00    -0.351 OA
HETATM   20  C   UNK N   1      29.523  15.468   5.202  0.00  0.00     0.210 C 
ENDBRANCH  14  19
BRANCH  15  21
HETATM   21  O   UNK N   1      29.321  17.115   8.323  0.00  0.00    -0.353 OA
HETATM   22  C   UNK N   1      28.738  17.927   9.265  0.00  0.00     0.210 C 
ENDBRANCH  15  21
ENDBRANCH   1  11
BRANCH   5  23
HETATM   23  N   UNK N   1      36.398  15.408  12.491  0.00  0.00    -0.342 N 
HETATM   24  H   UNK N   1      37.015  16.071  12.876  0.00  0.00     0.167 HD
BRANCH  23  25
HETATM   25  C   UNK N   1      35.988  14.302  13.292  0.00  0.00     0.035 A 
HETATM   26  C   UNK N   1      36.494  14.153  14.607  0.00  0.00     0.030 A 
HETATM   27  C   UNK N   1      36.138  13.034  15.390  0.00  0.00     0.018 A 
HETATM   28  C   UNK N   1      35.265  12.102  14.827  0.00  0.00     0.016 A 
HETATM   29  C   UNK N   1      34.735  10.920  15.284  0.00  0.00     0.034 A 
HETATM   30  C   UNK N   1      34.757  12.259  13.576  0.00  0.00     0.062 A 
HETATM   31  C   UNK N   1      34.985  10.275  16.599  0.00  0.00     0.070 C 
HETATM   32  N   UNK N   1      33.932  10.407  14.321  0.00  0.00    -0.304 N 
HETATM   33  N   UNK N   1      33.946  11.228  13.277  0.00  0.00    -0.300 N 
ATOM     34  HN  UNK N   1      33.405   9.537  14.387  1.00  0.00     0.186 HD
HETATM   35  H   UNK N   1      33.452  11.103  12.434  0.00  0.00     0.187 HD
HETATM   36  C   UNK N   1      35.088  13.337  12.777  0.00  0.00     0.061 A 
ENDBRANCH  23  25
ENDBRANCH   5  23
TORSDOF 6
ENDMDL
MODEL 3
REMARK VINA RESULT:      -8.1      1.562      2.881
REMARK  6 active torsions:
REMARK  status: ('A' for Active; 'I' for Inactive)
REMARK    1  A    between atoms: N_1  and  C_3 
REMARK       I    between atoms: N_1  and  C_4 
REMARK    2  A    between atoms: N_2  and  C_7 
REMARK    3  A    between atoms: N_2  and  C_20 
REMARK    4  A    between atoms: C_12  and  O_33 
REMARK    5  A    between atoms: O_15  and  C_16 
REMARK    6  A    between atoms: C_30  and  O_31 
ROOT
HETATM    1  N   UNK N   1      32.261  15.019   9.944  0.00  0.00    -0.191 N 
HETATM    2  C   UNK N   1      33.567  15.248  10.451  0.00  0.00     0.684 A 
HETATM    3  C   UNK N   1      35.438  16.691  10.590  0.00  0.00     0.110 A 
HETATM    4  C   UNK N   1      36.149  15.706  11.242  0.00  0.00     0.066 A 
HETATM    5  C   UNK N   1      35.539  14.471  11.496  0.00  0.00     0.122 A 
HETATM    6  N   UNK N   1      34.172  16.442  10.195  0.00  0.00    -0.202 N 
ATOM      7  HN  UNK N   1      33.656  17.164   9.692  1.00  0.00     0.183 HD
HETATM    8  N   UNK N   1      34.244  14.269  11.116  0.00  0.00    -0.176 N 
ATOM      9  HN  UNK N   1      33.783  13.384  11.328  1.00  0.00     0.186 HD
HETATM   10  H   UNK N   1      31.632  14.432  10.422  0.00  0.00     0.184 HD
ENDROOT
BRANCH   1  11
HETATM   11  C   UNK N   1      31.883  15.654   8.730  0.00  0.00     0.054 A 
HETATM   12  C   UNK N   1      32.350  15.197   7.504  0.00  0.00     0.069 A 
HETATM   13  C   UNK N   1      31.908  15.778   6.306  0.00  0.00     0.106 A 
HETATM   14  C   UNK N   1      30.939  16.844   6.350  0.00  0.00     0.135 A 
HETATM   15  C   UNK N   1      30.504  17.319   7.618  0.00  0.00     0.106 A 
HETATM   16  C   UNK N   1      30.983  16.717   8.769  0.00  0.00     0.069 A 
BRANCH  13  17
HETATM   17  O   UNK N   1      32.449  15.293   5.162  0.00  0.00    -0.353 OA
HETATM   18  C   UNK N   1      33.598  15.786   4.587  0.00  0.00     0.210 C 
ENDBRANCH  13  17
BRANCH  14  19
HETATM   19  O   UNK N   1      30.406  17.407   5.235  0.00  0.00    -0.351 OA
HETATM   20  C   UNK N   1      29.230  17.009   4.645  0.00  0.00     0.210 C 
ENDBRANCH  14  19
BRANCH  15  21
HETATM   21  O   UNK N   1      29.602  18.321   7.788  0.00  0.00    -0.353 OA
HETATM   22  C   UNK N   1      28.397  18.230   8.441  0.00  0.00     0.210 C 
ENDBRANCH  15  21
ENDBRANCH   1  11
BRANCH   5  23
HETATM   23  N   UNK N   1      36.274  13.432  12.136  0.00  0.00    -0.342 N 
HETATM   24  H   UNK N   1      37.012  13.002  11.648  0.00  0.00     0.167 HD
BRANCH  23  25
HETATM   25  C   UNK N   1      35.977  12.996  13.460  0.00  0.00     0.035 A 
HETATM   26  C   UNK N   1      36.306  13.817  14.567  0.00  0.00     0.030 A 
HETATM   27  C   UNK N   1      36.065  13.373  15.886  0.00  0.00     0.018 A 
HETATM   28  C   UNK N   1      35.484  12.115  16.049  0.00  0.00     0.016 A 
HETATM   29  C   UNK N   1      35.136  11.381  17.156  0.00  0.00     0.034 A 
HETATM   30  C   UNK N   1      35.143  11.339  14.986  0.00  0.00     0.062 A 
HETATM   31  C   UNK N   1      35.314  11.768  18.580  0.00  0.00     0.070 C 
HETATM   32  N   UNK N   1      34.598  10.208  16.744  0.00  0.00    -0.304 N 
HETATM   33  N   UNK N   1      34.603  10.184  15.416  0.00  0.00    -0.300 N 
ATOM     34  HN  UNK N   1      34.248   9.468  17.352  1.00  0.00     0.186 HD
HETATM   35  H   UNK N   1      34.271   9.452  14.848  0.00  0.00     0.187 HD
HETATM   36  C   UNK N   1      35.369  11.736  13.682  0.00  0.00     0.061 A 
ENDBRANCH  23  25
ENDBRANCH   5  23
TORSDOF 6
ENDMDL
MODEL 4
REMARK VINA RESULT:      -8.1      2.330      3.247
REMARK  6 active torsions:
REMARK  status: ('A' for Active; 'I' for Inactive)
REMARK    1  A    between atoms: N_1  and  C_3 
REMARK       I    between atoms: N_1  and  C_4 
REMARK    2  A    between atoms: N_2  and  C_7 
REMARK    3  A    between atoms: N_2  and  C_20 
REMARK    4  A    between atoms: C_12  and  O_33 
REMARK    5  A    between atoms: O_15  and  C_16 
REMARK    6  A    between atoms: C_30  and  O_31 
ROOT
HETATM    1  N   UNK N   1      32.949  14.364   9.985  0.00  0.00    -0.191 N 
HETATM    2  C   UNK N   1      34.008  14.538  10.915  0.00  0.00     0.684 A 
HETATM    3  C   UNK N   1      35.645  15.974  11.844  0.00  0.00     0.110 A 
HETATM    4  C   UNK N   1      36.169  14.915  12.555  0.00  0.00     0.066 A 
HETATM    5  C   UNK N   1      35.586  13.647  12.432  0.00  0.00     0.122 A 
HETATM    6  N   UNK N   1      34.589  15.765  11.030  0.00  0.00    -0.202 N 
ATOM      7  HN  UNK N   1      34.217  16.545  10.487  1.00  0.00     0.183 HD
HETATM    8  N   UNK N   1      34.495  13.483  11.628  0.00  0.00    -0.176 N 
ATOM      9  HN  UNK N   1      34.046  12.570  11.561  1.00  0.00     0.186 HD
HETATM   10  H   UNK N   1      32.237  13.705  10.152  0.00  0.00     0.184 HD
ENDROOT
BRANCH   1  11
HETATM   11  C   UNK N   1      32.940  15.162   8.810  0.00  0.00     0.054 A 
HETATM   12  C   UNK N   1      31.897  16.040   8.544  0.00  0.00     0.069 A 
HETATM   13  C   UNK N   1      31.935  16.883   7.424  0.00  0.00     0.106 A 
HETATM   14  C   UNK N   1      33.082  16.853   6.553  0.00  0.00     0.135 A 
HETATM   15  C   UNK N   1      34.121  15.920   6.824  0.00  0.00     0.106 A 
HETATM   16  C   UNK N   1      34.026  15.102   7.937  0.00  0.00     0.069 A 
BRANCH  13  17
HETATM   17  O   UNK N   1      30.854  17.676   7.225  0.00  0.00    -0.353 OA
HETATM   18  C   UNK N   1      29.689  17.252   6.629  0.00  0.00     0.210 C 
ENDBRANCH  13  17
BRANCH  14  19
HETATM   19  O   UNK N   1      33.229  17.688   5.492  0.00  0.00    -0.351 OA
HETATM   20  C   UNK N   1      32.712  17.458   4.239  0.00  0.00     0.210 C 
ENDBRANCH  14  19
BRANCH  15  21
HETATM   21  O   UNK N   1      35.247  15.792   6.072  0.00  0.00    -0.353 OA
HETATM   22  C   UNK N   1      36.046  14.678   5.986  0.00  0.00     0.210 C 
ENDBRANCH  15  21
ENDBRANCH   1  11
BRANCH   5  23
HETATM   23  N   UNK N   1      36.140  12.538  13.133  0.00  0.00    -0.342 N 
HETATM   24  H   UNK N   1      36.669  11.875  12.633  0.00  0.00     0.167 HD
BRANCH  23  25
HETATM   25  C   UNK N   1      35.956  12.356  14.535  0.00  0.00     0.035 A 
HETATM   26  C   UNK N   1      35.896  11.049  15.077  0.00  0.00     0.030 A 
HETATM   27  C   UNK N   1      35.660  10.854  16.456  0.00  0.00     0.018 A 
HETATM   28  C   UNK N   1      35.506  11.990  17.253  0.00  0.00     0.016 A 
HETATM   29  C   UNK N   1      35.256  12.168  18.591  0.00  0.00     0.034 A 
HETATM   30  C   UNK N   1      35.593  13.245  16.737  0.00  0.00     0.062 A 
HETATM   31  C   UNK N   1      35.057  11.109  19.614  0.00  0.00     0.070 C 
HETATM   32  N   UNK N   1      35.203  13.497  18.846  0.00  0.00    -0.304 N 
HETATM   33  N   UNK N   1      35.410  14.155  17.711  0.00  0.00    -0.300 N 
ATOM     34  HN  UNK N   1      35.034  13.922  19.758  1.00  0.00     0.186 HD
HETATM   35  H   UNK N   1      35.427  15.133  17.602  0.00  0.00     0.187 HD
HETATM   36  C   UNK N   1      35.815  13.475  15.392  0.00  0.00     0.061 A 
ENDBRANCH  23  25
ENDBRANCH   5  23
TORSDOF 6
ENDMDL
MODEL 5
REMARK VINA RESULT:      -7.8      1.833      2.106
REMARK  6 active torsions:
REMARK  status: ('A' for Active; 'I' for Inactive)
REMARK    1  A    between atoms: N_1  and  C_3 
REMARK       I    between atoms: N_1  and  C_4 
REMARK    2  A    between atoms: N_2  and  C_7 
REMARK    3  A    between atoms: N_2  and  C_20 
REMARK    4  A    between atoms: C_12  and  O_33 
REMARK    5  A    between atoms: O_15  and  C_16 
REMARK    6  A    between atoms: C_30  and  O_31 
ROOT
HETATM    1  N   UNK N   1      32.351  14.859  10.239  0.00  0.00    -0.191 N 
HETATM    2  C   UNK N   1      33.680  15.177  10.619  0.00  0.00     0.684 A 
HETATM    3  C   UNK N   1      35.515  16.663  10.444  0.00  0.00     0.110 A 
HETATM    4  C   UNK N   1      36.297  15.781  11.161  0.00  0.00     0.066 A 
HETATM    5  C   UNK N   1      35.741  14.576  11.609  0.00  0.00     0.122 A 
HETATM    6  N   UNK N   1      34.232  16.340  10.175  0.00  0.00    -0.202 N 
ATOM      7  HN  UNK N   1      33.662  16.984   9.625  1.00  0.00     0.183 HD
HETATM    8  N   UNK N   1      34.430  14.302  11.350  0.00  0.00    -0.176 N 
ATOM      9  HN  UNK N   1      34.010  13.442  11.703  1.00  0.00     0.186 HD
HETATM   10  H   UNK N   1      31.773  14.324  10.830  0.00  0.00     0.184 HD
ENDROOT
BRANCH   1  11
HETATM   11  C   UNK N   1      31.872  15.328   8.986  0.00  0.00     0.054 A 
HETATM   12  C   UNK N   1      31.078  16.465   8.901  0.00  0.00     0.069 A 
HETATM   13  C   UNK N   1      30.677  16.969   7.654  0.00  0.00     0.106 A 
HETATM   14  C   UNK N   1      31.116  16.311   6.450  0.00  0.00     0.135 A 
HETATM   15  C   UNK N   1      31.897  15.127   6.564  0.00  0.00     0.106 A 
HETATM   16  C   UNK N   1      32.253  14.668   7.820  0.00  0.00     0.069 A 
BRANCH  13  17
HETATM   17  O   UNK N   1      29.871  18.058   7.672  0.00  0.00    -0.353 OA
HETATM   18  C   UNK N   1      28.503  17.999   7.805  0.00  0.00     0.210 C 
ENDBRANCH  13  17
BRANCH  14  19
HETATM   19  O   UNK N   1      30.834  16.777   5.206  0.00  0.00    -0.351 OA
HETATM   20  C   UNK N   1      31.655  17.605   4.477  0.00  0.00     0.210 C 
ENDBRANCH  14  19
BRANCH  15  21
HETATM   21  O   UNK N   1      32.362  14.416   5.503  0.00  0.00    -0.353 OA
HETATM   22  C   UNK N   1      31.832  13.248   5.011  0.00  0.00     0.210 C 
ENDBRANCH  15  21
ENDBRANCH   1  11
BRANCH   5  23
HETATM   23  N   UNK N   1      36.548  13.641  12.318  0.00  0.00    -0.342 N 
HETATM   24  H   UNK N   1      37.372  13.307  11.896  0.00  0.00     0.167 HD
BRANCH  23  25
HETATM   25  C   UNK N   1      36.203  13.173  13.620  0.00  0.00     0.035 A 
HETATM   26  C   UNK N   1      36.453  13.985  14.754  0.00  0.00     0.030 A 
HETATM   27  C   UNK N   1      36.165  13.512  16.052  0.00  0.00     0.018 A 
HETATM   28  C   UNK N   1      35.617  12.233  16.168  0.00  0.00     0.016 A 
HETATM   29  C   UNK N   1      35.240  11.470  17.246  0.00  0.00     0.034 A 
HETATM   30  C   UNK N   1      35.350  11.466  15.078  0.00  0.00     0.062 A 
HETATM   31  C   UNK N   1      35.338  11.838  18.683  0.00  0.00     0.070 C 
HETATM   32  N   UNK N   1      34.759  10.289  16.790  0.00  0.00    -0.304 N 
HETATM   33  N   UNK N   1      34.827  10.288  15.464  0.00  0.00    -0.300 N 
ATOM     34  HN  UNK N   1      34.404   9.528  17.369  1.00  0.00     0.186 HD
HETATM   35  H   UNK N   1      34.545   9.555  14.869  0.00  0.00     0.187 HD
HETATM   36  C   UNK N   1      35.625  11.892  13.793  0.00  0.00     0.061 A 
ENDBRANCH  23  25
ENDBRANCH   5  23
TORSDOF 6
ENDMDL
MODEL 6
REMARK VINA RESULT:      -7.6      3.443      6.106
REMARK  6 active torsions:
REMARK  status: ('A' for Active; 'I' for Inactive)
REMARK    1  A    between atoms: N_1  and  C_3 
REMARK       I    between atoms: N_1  and  C_4 
REMARK    2  A    between atoms: N_2  and  C_7 
REMARK    3  A    between atoms: N_2  and  C_20 
REMARK    4  A    between atoms: C_12  and  O_33 
REMARK    5  A    between atoms: O_15  and  C_16 
REMARK    6  A    between atoms: C_30  and  O_31 
ROOT
HETATM    1  N   UNK N   1      29.578  17.447   4.283  0.00  0.00    -0.191 N 
HETATM    2  C   UNK N   1      30.244  17.241   5.519  0.00  0.00     0.684 A 
HETATM    3  C   UNK N   1      30.072  16.890   7.854  0.00  0.00     0.110 A 
HETATM    4  C   UNK N   1      31.441  17.009   7.972  0.00  0.00     0.066 A 
HETATM    5  C   UNK N   1      32.212  17.248   6.827  0.00  0.00     0.122 A 
HETATM    6  N   UNK N   1      29.500  17.022   6.639  0.00  0.00    -0.202 N 
ATOM      7  HN  UNK N   1      28.485  16.957   6.558  1.00  0.00     0.183 HD
HETATM    8  N   UNK N   1      31.601  17.338   5.610  0.00  0.00    -0.176 N 
ATOM      9  HN  UNK N   1      32.160  17.477   4.769  1.00  0.00     0.186 HD
HETATM   10  H   UNK N   1      29.998  17.177   3.434  0.00  0.00     0.184 HD
ENDROOT
BRANCH   1  11
HETATM   11  C   UNK N   1      28.293  18.053   4.296  0.00  0.00     0.054 A 
HETATM   12  C   UNK N   1      28.123  19.370   4.703  0.00  0.00     0.069 A 
HETATM   13  C   UNK N   1      26.864  19.986   4.636  0.00  0.00     0.106 A 
HETATM   14  C   UNK N   1      25.742  19.248   4.116  0.00  0.00     0.135 A 
HETATM   15  C   UNK N   1      25.932  17.889   3.740  0.00  0.00     0.106 A 
HETATM   16  C   UNK N   1      27.193  17.328   3.839  0.00  0.00     0.069 A 
BRANCH  13  17
HETATM   17  O   UNK N   1      26.788  21.259   5.092  0.00  0.00    -0.353 OA
HETATM   18  C   UNK N   1      26.969  21.616   6.408  0.00  0.00     0.210 C 
ENDBRANCH  13  17
BRANCH  14  19
HETATM   19  O   UNK N   1      24.510  19.794   3.949  0.00  0.00    -0.351 OA
HETATM   20  C   UNK N   1      24.137  20.570   2.876  0.00  0.00     0.210 C 
ENDBRANCH  14  19
BRANCH  15  21
HETATM   21  O   UNK N   1      24.950  17.090   3.245  0.00  0.00    -0.353 OA
HETATM   22  C   UNK N   1      24.041  16.368   3.978  0.00  0.00     0.210 C 
ENDBRANCH  15  21
ENDBRANCH   1  11
BRANCH   5  23
HETATM   23  N   UNK N   1      33.623  17.409   6.940  0.00  0.00    -0.342 N 
HETATM   24  H   UNK N   1      34.072  18.082   6.379  0.00  0.00     0.167 HD
BRANCH  23  25
HETATM   25  C   UNK N   1      34.407  16.629   7.839  0.00  0.00     0.035 A 
HETATM   26  C   UNK N   1      34.957  15.395   7.413  0.00  0.00     0.030 A 
HETATM   27  C   UNK N   1      35.690  14.588   8.309  0.00  0.00     0.018 A 
HETATM   28  C   UNK N   1      35.861  15.059   9.612  0.00  0.00     0.016 A 
HETATM   29  C   UNK N   1      36.486  14.543  10.720  0.00  0.00     0.034 A 
HETATM   30  C   UNK N   1      35.359  16.257  10.013  0.00  0.00     0.062 A 
HETATM   31  C   UNK N   1      37.189  13.237  10.826  0.00  0.00     0.070 C 
HETATM   32  N   UNK N   1      36.354  15.424  11.740  0.00  0.00    -0.304 N 
HETATM   33  N   UNK N   1      35.665  16.473  11.306  0.00  0.00    -0.300 N 
ATOM     34  HN  UNK N   1      36.724  15.303  12.683  1.00  0.00     0.186 HD
HETATM   35  H   UNK N   1      35.421  17.266  11.835  0.00  0.00     0.187 HD
HETATM   36  C   UNK N   1      34.630  17.070   9.167  0.00  0.00     0.061 A 
ENDBRANCH  23  25
ENDBRANCH   5  23
TORSDOF 6
ENDMDL
MODEL 7
REMARK VINA RESULT:      -7.6      6.842     12.653
REMARK  6 active torsions:
REMARK  status: ('A' for Active; 'I' for Inactive)
REMARK    1  A    between atoms: N_1  and  C_3 
REMARK       I    between atoms: N_1  and  C_4 
REMARK    2  A    between atoms: N_2  and  C_7 
REMARK    3  A    between atoms: N_2  and  C_20 
REMARK    4  A    between atoms: C_12  and  O_33 
REMARK    5  A    between atoms: O_15  and  C_16 
REMARK    6  A    between atoms: C_30  and  O_31 
ROOT
HETATM    1  N   UNK N   1      28.011  16.563   5.360  0.00  0.00    -0.191 N 
HETATM    2  C   UNK N   1      27.103  17.593   5.003  0.00  0.00     0.684 A 
HETATM    3  C   UNK N   1      26.786  19.809   4.233  0.00  0.00     0.110 A 
HETATM    4  C   UNK N   1      25.430  19.694   4.458  0.00  0.00     0.066 A 
HETATM    5  C   UNK N   1      24.917  18.493   4.966  0.00  0.00     0.122 A 
HETATM    6  N   UNK N   1      27.595  18.769   4.522  0.00  0.00    -0.202 N 
ATOM      7  HN  UNK N   1      28.601  18.865   4.377  1.00  0.00     0.183 HD
HETATM    8  N   UNK N   1      25.762  17.450   5.210  0.00  0.00    -0.176 N 
ATOM      9  HN  UNK N   1      25.390  16.562   5.547  1.00  0.00     0.186 HD
HETATM   10  H   UNK N   1      27.752  15.616   5.283  0.00  0.00     0.184 HD
ENDROOT
BRANCH   1  11
HETATM   11  C   UNK N   1      29.301  16.928   5.830  0.00  0.00     0.054 A 
HETATM   12  C   UNK N   1      29.510  17.281   7.157  0.00  0.00     0.069 A 
HETATM   13  C   UNK N   1      30.800  17.560   7.632  0.00  0.00     0.106 A 
HETATM   14  C   UNK N   1      31.922  17.456   6.735  0.00  0.00     0.135 A 
HETATM   15  C   UNK N   1      31.680  17.130   5.372  0.00  0.00     0.106 A 
HETATM   16  C   UNK N   1      30.385  16.877   4.955  0.00  0.00     0.069 A 
BRANCH  13  17
HETATM   17  O   UNK N   1      30.899  17.934   8.931  0.00  0.00    -0.353 OA
HETATM   18  C   UNK N   1      29.945  18.670   9.594  0.00  0.00     0.210 C 
ENDBRANCH  13  17
BRANCH  14  19
HETATM   19  O   UNK N   1      33.208  17.638   7.134  0.00  0.00    -0.351 OA
HETATM   20  C   UNK N   1      33.998  16.661   7.693  0.00  0.00     0.210 C 
ENDBRANCH  14  19
BRANCH  15  21
HETATM   21  O   UNK N   1      32.655  17.011   4.432  0.00  0.00    -0.353 OA
HETATM   22  C   UNK N   1      32.467  16.817   3.085  0.00  0.00     0.210 C 
ENDBRANCH  15  21
ENDBRANCH   1  11
BRANCH   5  23
HETATM   23  N   UNK N   1      23.524  18.374   5.236  0.00  0.00    -0.342 N 
HETATM   24  H   UNK N   1      23.177  18.701   6.097  0.00  0.00     0.167 HD
BRANCH  23  25
HETATM   25  C   UNK N   1      22.615  17.796   4.302  0.00  0.00     0.035 A 
HETATM   26  C   UNK N   1      22.701  16.416   3.991  0.00  0.00     0.030 A 
HETATM   27  C   UNK N   1      21.841  15.844   3.028  0.00  0.00     0.018 A 
HETATM   28  C   UNK N   1      20.907  16.680   2.416  0.00  0.00     0.016 A 
HETATM   29  C   UNK N   1      19.953  16.471   1.451  0.00  0.00     0.034 A 
HETATM   30  C   UNK N   1      20.806  17.998   2.735  0.00  0.00     0.062 A 
HETATM   31  C   UNK N   1      19.656  15.196   0.746  0.00  0.00     0.070 C 
HETATM   32  N   UNK N   1      19.309  17.640   1.220  0.00  0.00    -0.304 N 
HETATM   33  N   UNK N   1      19.832  18.573   2.007  0.00  0.00    -0.300 N 
ATOM     34  HN  UNK N   1      18.550  17.779   0.554  1.00  0.00     0.186 HD
HETATM   35  H   UNK N   1      19.555  19.517   2.049  0.00  0.00     0.187 HD
HETATM   36  C   UNK N   1      21.633  18.595   3.667  0.00  0.00     0.061 A 
ENDBRANCH  23  25
ENDBRANCH   5  23
TORSDOF 6
ENDMDL
MODEL 8
REMARK VINA RESULT:      -7.6      4.468      7.434
REMARK  6 active torsions:
REMARK  status: ('A' for Active; 'I' for Inactive)
REMARK    1  A    between atoms: N_1  and  C_3 
REMARK       I    between atoms: N_1  and  C_4 
REMARK    2  A    between atoms: N_2  and  C_7 
REMARK    3  A    between atoms: N_2  and  C_20 
REMARK    4  A    between atoms: C_12  and  O_33 
REMARK    5  A    between atoms: O_15  and  C_16 
REMARK    6  A    between atoms: C_30  and  O_31 
ROOT
HETATM    1  N   UNK N   1      26.653  16.041   5.206  0.00  0.00    -0.191 N 
HETATM    2  C   UNK N   1      27.635  16.599   6.065  0.00  0.00     0.684 A 
HETATM    3  C   UNK N   1      28.147  18.127   7.798  0.00  0.00     0.110 A 
HETATM    4  C   UNK N   1      29.490  17.852   7.643  0.00  0.00     0.066 A 
HETATM    5  C   UNK N   1      29.895  16.926   6.673  0.00  0.00     0.122 A 
HETATM    6  N   UNK N   1      27.250  17.511   7.001  0.00  0.00    -0.202 N 
ATOM      7  HN  UNK N   1      26.259  17.733   7.102  1.00  0.00     0.183 HD
HETATM    8  N   UNK N   1      28.955  16.294   5.912  0.00  0.00    -0.176 N 
ATOM      9  HN  UNK N   1      29.242  15.594   5.228  1.00  0.00     0.186 HD
HETATM   10  H   UNK N   1      26.754  15.129   4.851  0.00  0.00     0.184 HD
ENDROOT
BRANCH   1  11
HETATM   11  C   UNK N   1      25.519  16.829   4.868  0.00  0.00     0.054 A 
HETATM   12  C   UNK N   1      24.245  16.477   5.296  0.00  0.00     0.069 A 
HETATM   13  C   UNK N   1      23.144  17.303   5.028  0.00  0.00     0.106 A 
HETATM   14  C   UNK N   1      23.343  18.543   4.322  0.00  0.00     0.135 A 
HETATM   15  C   UNK N   1      24.650  18.864   3.862  0.00  0.00     0.106 A 
HETATM   16  C   UNK N   1      25.699  18.006   4.143  0.00  0.00     0.069 A 
BRANCH  13  17
HETATM   17  O   UNK N   1      21.935  16.857   5.450  0.00  0.00    -0.353 OA
HETATM   18  C   UNK N   1      21.539  16.840   6.767  0.00  0.00     0.210 C 
ENDBRANCH  13  17
BRANCH  14  19
HETATM   19  O   UNK N   1      22.343  19.432   4.089  0.00  0.00    -0.351 OA
HETATM   20  C   UNK N   1      21.449  19.348   3.048  0.00  0.00     0.210 C 
ENDBRANCH  14  19
BRANCH  15  21
HETATM   21  O   UNK N   1      24.961  19.999   3.179  0.00  0.00    -0.353 OA
HETATM   22  C   UNK N   1      26.196  20.595   3.112  0.00  0.00     0.210 C 
ENDBRANCH  15  21
ENDBRANCH   1  11
BRANCH   5  23
HETATM   23  N   UNK N   1      31.281  16.660   6.479  0.00  0.00    -0.342 N 
HETATM   24  H   UNK N   1      31.660  16.751   5.575  0.00  0.00     0.167 HD
BRANCH  23  25
HETATM   25  C   UNK N   1      32.137  16.267   7.548  0.00  0.00     0.035 A 
HETATM   26  C   UNK N   1      32.096  14.937   8.036  0.00  0.00     0.030 A 
HETATM   27  C   UNK N   1      32.900  14.549   9.129  0.00  0.00     0.018 A 
HETATM   28  C   UNK N   1      33.737  15.514   9.692  0.00  0.00     0.016 A 
HETATM   29  C   UNK N   1      34.616  15.491  10.746  0.00  0.00     0.034 A 
HETATM   30  C   UNK N   1      33.797  16.782   9.206  0.00  0.00     0.062 A 
HETATM   31  C   UNK N   1      34.918  14.340  11.637  0.00  0.00     0.070 C 
HETATM   32  N   UNK N   1      35.179  16.718  10.865  0.00  0.00    -0.304 N 
HETATM   33  N   UNK N   1      34.677  17.507   9.922  0.00  0.00    -0.300 N 
ATOM     34  HN  UNK N   1      35.872  16.990  11.562  1.00  0.00     0.186 HD
HETATM   35  H   UNK N   1      34.907  18.452   9.773  0.00  0.00     0.187 HD
HETATM   36  C   UNK N   1      33.020  17.201   8.143  0.00  0.00     0.061 A 
ENDBRANCH  23  25
ENDBRANCH   5  23
TORSDOF 6
ENDMDL
MODEL 9
REMARK VINA RESULT:      -7.5      6.368     12.412
REMARK  6 active torsions:
REMARK  status: ('A' for Active; 'I' for Inactive)
REMARK    1  A    between atoms: N_1  and  C_3 
REMARK       I    between atoms: N_1  and  C_4 
REMARK    2  A    between atoms: N_2  and  C_7 
REMARK    3  A    between atoms: N_2  and  C_20 
REMARK    4  A    between atoms: C_12  and  O_33 
REMARK    5  A    between atoms: O_15  and  C_16 
REMARK    6  A    between atoms: C_30  and  O_31 
ROOT
HETATM    1  N   UNK N   1      29.791  18.078   4.192  0.00  0.00    -0.191 N 
HETATM    2  C   UNK N   1      28.685  18.809   4.699  0.00  0.00     0.684 A 
HETATM    3  C   UNK N   1      27.438  19.505   6.587  0.00  0.00     0.110 A 
HETATM    4  C   UNK N   1      26.482  20.049   5.755  0.00  0.00     0.066 A 
HETATM    5  C   UNK N   1      26.649  19.963   4.367  0.00  0.00     0.122 A 
HETATM    6  N   UNK N   1      28.508  18.885   6.048  0.00  0.00    -0.202 N 
ATOM      7  HN  UNK N   1      29.202  18.463   6.666  1.00  0.00     0.183 HD
HETATM    8  N   UNK N   1      27.764  19.362   3.859  0.00  0.00    -0.176 N 
ATOM      9  HN  UNK N   1      27.908  19.326   2.850  1.00  0.00     0.186 HD
HETATM   10  H   UNK N   1      30.214  18.334   3.341  0.00  0.00     0.184 HD
ENDROOT
BRANCH   1  11
HETATM   11  C   UNK N   1      30.273  16.971   4.940  0.00  0.00     0.054 A 
HETATM   12  C   UNK N   1      29.734  15.701   4.773  0.00  0.00     0.069 A 
HETATM   13  C   UNK N   1      30.270  14.598   5.454  0.00  0.00     0.106 A 
HETATM   14  C   UNK N   1      31.408  14.784   6.318  0.00  0.00     0.135 A 
HETATM   15  C   UNK N   1      31.919  16.098   6.502  0.00  0.00     0.106 A 
HETATM   16  C   UNK N   1      31.343  17.153   5.814  0.00  0.00     0.069 A 
BRANCH  13  17
HETATM   17  O   UNK N   1      29.652  13.407   5.260  0.00  0.00    -0.353 OA
HETATM   18  C   UNK N   1      28.503  13.250   4.521  0.00  0.00     0.210 C 
ENDBRANCH  13  17
BRANCH  14  19
HETATM   19  O   UNK N   1      32.030  13.758   6.954  0.00  0.00    -0.351 OA
HETATM   20  C   UNK N   1      33.074  13.032   6.430  0.00  0.00     0.210 C 
ENDBRANCH  14  19
BRANCH  15  21
HETATM   21  O   UNK N   1      32.981  16.400   7.296  0.00  0.00    -0.353 OA
HETATM   22  C   UNK N   1      32.938  16.683   8.639  0.00  0.00     0.210 C 
ENDBRANCH  15  21
ENDBRANCH   1  11
BRANCH   5  23
HETATM   23  N   UNK N   1      25.651  20.488   3.496  0.00  0.00    -0.342 N 
HETATM   24  H   UNK N   1      25.884  21.241   2.907  0.00  0.00     0.167 HD
BRANCH  23  25
HETATM   25  C   UNK N   1      24.328  19.960   3.451  0.00  0.00     0.035 A 
HETATM   26  C   UNK N   1      24.049  18.696   4.027  0.00  0.00     0.030 A 
HETATM   27  C   UNK N   1      22.755  18.139   3.941  0.00  0.00     0.018 A 
HETATM   28  C   UNK N   1      21.771  18.884   3.287  0.00  0.00     0.016 A 
HETATM   29  C   UNK N   1      20.447  18.648   3.012  0.00  0.00     0.034 A 
HETATM   30  C   UNK N   1      22.032  20.109   2.760  0.00  0.00     0.062 A 
HETATM   31  C   UNK N   1      19.661  17.435   3.359  0.00  0.00     0.070 C 
HETATM   32  N   UNK N   1      19.949  19.716   2.344  0.00  0.00    -0.304 N 
HETATM   33  N   UNK N   1      20.920  20.610   2.191  0.00  0.00    -0.300 N 
ATOM     34  HN  UNK N   1      18.989  19.818   2.015  1.00  0.00     0.186 HD
HETATM   35  H   UNK N   1      20.840  21.482   1.742  0.00  0.00     0.187 HD
HETATM   36  C   UNK N   1      23.287  20.684   2.818  0.00  0.00     0.061 A 
ENDBRANCH  23  25
ENDBRANCH   5  23
TORSDOF 6
ENDMDL
