MODEL 1
REMARK VINA RESULT:      -8.3      0.000      0.000
REMARK  0 active torsions:
REMARK  status: ('A' for Active; 'I' for Inactive)
ROOT
HETATM    1  N   UNK N   1      32.326  15.962   5.021  0.00  0.00    -0.332 N 
HETATM    2  C   UNK N   1      31.480  14.924   4.689  0.00  0.00     0.291 C 
HETATM    3  O   UNK N   1      30.356  14.895   5.167  0.00  0.00    -0.264 OA
HETATM    4  C   UNK N   1      31.868  13.812   3.744  0.00  0.00     0.226 C 
HETATM    5  O   UNK N   1      33.031  13.695   3.382  0.00  0.00    -0.286 OA
HETATM    6  C   UNK N   1      30.804  12.864   3.162  0.00  0.00     0.045 C 
HETATM    7  C   UNK N   1      29.749  13.611   2.310  0.00  0.00     0.195 C 
HETATM    8  O   UNK N   1      29.196  14.652   3.018  0.00  0.00    -0.320 OA
HETATM    9  C   UNK N   1      27.881  14.832   3.276  0.00  0.00     0.258 C 
HETATM   10  O   UNK N   1      27.561  15.543   4.216  0.00  0.00    -0.265 OA
HETATM   11  C   UNK N   1      26.813  14.215   2.430  0.00  0.00     0.111 C 
HETATM   12  C   UNK N   1      25.954  15.312   1.804  0.00  0.00     0.010 C 
HETATM   13  C   UNK N   1      24.642  15.517   2.562  0.00  0.00     0.000 C 
HETATM   14  C   UNK N   1      24.812  16.320   3.847  0.00  0.00     0.000 C 
HETATM   15  C   UNK N   1      25.023  17.796   3.557  0.00  0.00     0.000 C 
HETATM   16  C   UNK N   1      25.284  18.526   4.860  0.00  0.00     0.000 C 
HETATM   17  C   UNK N   1      25.677  19.965   4.578  0.00  0.00     0.000 C 
HETATM   18  C   UNK N   1      26.407  20.556   5.774  0.00  0.00     0.000 C 
HETATM   19  C   UNK N   1      27.813  19.983   5.876  0.00  0.00     0.002 C 
HETATM   20  C   UNK N   1      27.969  19.233   7.188  0.00  0.00     0.027 C 
HETATM   21  C   UNK N   1      28.356  17.787   6.923  0.00  0.00     0.178 C 
HETATM   22  O   UNK N   1      29.728  17.647   6.886  0.00  0.00    -0.320 OA
HETATM   23  C   UNK N   1      30.394  17.447   5.720  0.00  0.00     0.282 C 
HETATM   24  O   UNK N   1      29.795  17.512   4.653  0.00  0.00    -0.263 OA
HETATM   25  C   UNK N   1      31.890  17.191   5.704  0.00  0.00     0.187 C 
HETATM   26  C   UNK N   1      32.554  17.235   7.078  0.00  0.00     0.035 C 
HETATM   27  C   UNK N   1      34.079  17.164   6.899  0.00  0.00     0.004 C 
HETATM   28  C   UNK N   1      34.503  15.947   6.065  0.00  0.00     0.020 C 
HETATM   29  C   UNK N   1      33.743  15.888   4.735  0.00  0.00     0.127 C 
HETATM   30  C   UNK N   1      30.114  12.101   4.282  0.00  0.00     0.026 C 
HETATM   31  C   UNK N   1      31.442  11.828   2.246  0.00  0.00     0.026 C 
ENDROOT
TORSDOF 0
ENDMDL
MODEL 2
REMARK VINA RESULT:      -8.2      8.789     12.075
REMARK  0 active torsions:
REMARK  status: ('A' for Active; 'I' for Inactive)
ROOT
HETATM    1  N   UNK N   1      35.008  13.950  10.364  0.00  0.00    -0.332 N 
HETATM    2  C   UNK N   1      35.698  12.779  10.127  0.00  0.00     0.291 C 
HETATM    3  O   UNK N   1      36.498  12.381  10.959  0.00  0.00    -0.264 OA
HETATM    4  C   UNK N   1      35.504  11.943   8.885  0.00  0.00     0.226 C 
HETATM    5  O   UNK N   1      34.855  12.384   7.946  0.00  0.00    -0.286 OA
HETATM    6  C   UNK N   1      36.048  10.505   8.809  0.00  0.00     0.045 C 
HETATM    7  C   UNK N   1      35.421   9.578   9.880  0.00  0.00     0.195 C 
HETATM    8  O   UNK N   1      35.548  10.124  11.136  0.00  0.00    -0.320 OA
HETATM    9  C   UNK N   1      36.147   9.545  12.201  0.00  0.00     0.258 C 
HETATM   10  O   UNK N   1      36.540  10.258  13.110  0.00  0.00    -0.265 OA
HETATM   11  C   UNK N   1      36.312   8.062  12.310  0.00  0.00     0.111 C 
HETATM   12  C   UNK N   1      35.570   7.551  13.544  0.00  0.00     0.010 C 
HETATM   13  C   UNK N   1      36.512   7.316  14.724  0.00  0.00     0.000 C 
HETATM   14  C   UNK N   1      36.907   8.604  15.440  0.00  0.00     0.000 C 
HETATM   15  C   UNK N   1      35.769   9.140  16.290  0.00  0.00     0.000 C 
HETATM   16  C   UNK N   1      36.184  10.467  16.895  0.00  0.00     0.000 C 
HETATM   17  C   UNK N   1      35.001  11.107  17.599  0.00  0.00     0.000 C 
HETATM   18  C   UNK N   1      35.235  12.600  17.769  0.00  0.00     0.000 C 
HETATM   19  C   UNK N   1      35.085  13.318  16.436  0.00  0.00     0.002 C 
HETATM   20  C   UNK N   1      36.398  13.985  16.060  0.00  0.00     0.027 C 
HETATM   21  C   UNK N   1      36.885  13.466  14.717  0.00  0.00     0.178 C 
HETATM   22  O   UNK N   1      36.400  14.245  13.686  0.00  0.00    -0.320 OA
HETATM   23  C   UNK N   1      35.417  13.806  12.862  0.00  0.00     0.282 C 
HETATM   24  O   UNK N   1      34.847  12.746  13.097  0.00  0.00    -0.263 OA
HETATM   25  C   UNK N   1      34.964  14.629  11.669  0.00  0.00     0.187 C 
HETATM   26  C   UNK N   1      35.666  15.978  11.529  0.00  0.00     0.035 C 
HETATM   27  C   UNK N   1      34.980  16.786  10.417  0.00  0.00     0.004 C 
HETATM   28  C   UNK N   1      34.912  16.004   9.098  0.00  0.00     0.020 C 
HETATM   29  C   UNK N   1      34.289  14.618   9.300  0.00  0.00     0.127 C 
HETATM   30  C   UNK N   1      37.561  10.509   8.956  0.00  0.00     0.026 C 
HETATM   31  C   UNK N   1      35.733   9.875   7.459  0.00  0.00     0.026 C 
ENDROOT
TORSDOF 0
ENDMDL
MODEL 3
REMARK VINA RESULT:      -8.1      2.962      7.627
REMARK  0 active torsions:
REMARK  status: ('A' for Active; 'I' for Inactive)
ROOT
HETATM    1  N   UNK N   1      30.150  17.001   7.220  0.00  0.00    -0.332 N 
HETATM    2  C   UNK N   1      30.827  16.870   6.025  0.00  0.00     0.291 C 
HETATM    3  O   UNK N   1      32.038  17.031   6.005  0.00  0.00    -0.264 OA
HETATM    4  C   UNK N   1      30.146  16.519   4.724  0.00  0.00     0.226 C 
HETATM    5  O   UNK N   1      28.925  16.523   4.652  0.00  0.00    -0.286 OA
HETATM    6  C   UNK N   1      30.967  16.075   3.499  0.00  0.00     0.045 C 
HETATM    7  C   UNK N   1      31.770  14.778   3.762  0.00  0.00     0.195 C 
HETATM    8  O   UNK N   1      32.540  14.901   4.896  0.00  0.00    -0.320 OA
HETATM    9  C   UNK N   1      33.881  14.743   4.971  0.00  0.00     0.258 C 
HETATM   10  O   UNK N   1      34.478  15.251   5.905  0.00  0.00    -0.265 OA
HETATM   11  C   UNK N   1      34.644  13.942   3.963  0.00  0.00     0.111 C 
HETATM   12  C   UNK N   1      35.336  12.769   4.657  0.00  0.00     0.010 C 
HETATM   13  C   UNK N   1      36.815  13.053   4.923  0.00  0.00     0.000 C 
HETATM   14  C   UNK N   1      37.043  13.958   6.128  0.00  0.00     0.000 C 
HETATM   15  C   UNK N   1      36.818  13.216   7.434  0.00  0.00     0.000 C 
HETATM   16  C   UNK N   1      36.961  14.187   8.589  0.00  0.00     0.000 C 
HETATM   17  C   UNK N   1      36.563  13.510   9.888  0.00  0.00     0.000 C 
HETATM   18  C   UNK N   1      36.221  14.551  10.942  0.00  0.00     0.000 C 
HETATM   19  C   UNK N   1      34.878  15.198  10.636  0.00  0.00     0.002 C 
HETATM   20  C   UNK N   1      35.066  16.687  10.400  0.00  0.00     0.027 C 
HETATM   21  C   UNK N   1      34.563  17.068   9.017  0.00  0.00     0.178 C 
HETATM   22  O   UNK N   1      33.231  17.425   9.063  0.00  0.00    -0.320 OA
HETATM   23  C   UNK N   1      32.258  16.615   8.574  0.00  0.00     0.282 C 
HETATM   24  O   UNK N   1      32.537  15.484   8.193  0.00  0.00    -0.263 OA
HETATM   25  C   UNK N   1      30.808  17.062   8.535  0.00  0.00     0.187 C 
HETATM   26  C   UNK N   1      30.557  18.445   9.131  0.00  0.00     0.035 C 
HETATM   27  C   UNK N   1      29.042  18.688   9.213  0.00  0.00     0.004 C 
HETATM   28  C   UNK N   1      28.353  18.483   7.856  0.00  0.00     0.020 C 
HETATM   29  C   UNK N   1      28.708  17.121   7.249  0.00  0.00     0.127 C 
HETATM   30  C   UNK N   1      31.911  17.188   3.072  0.00  0.00     0.026 C 
HETATM   31  C   UNK N   1      30.057  15.784   2.312  0.00  0.00     0.026 C 
ENDROOT
TORSDOF 0
ENDMDL
MODEL 4
REMARK VINA RESULT:      -8.1      2.387      5.682
REMARK  0 active torsions:
REMARK  status: ('A' for Active; 'I' for Inactive)
ROOT
HETATM    1  N   UNK N   1      34.326  14.521   5.706  0.00  0.00    -0.332 N 
HETATM    2  C   UNK N   1      34.183  15.617   6.531  0.00  0.00     0.291 C 
HETATM    3  O   UNK N   1      33.485  16.551   6.166  0.00  0.00    -0.264 OA
HETATM    4  C   UNK N   1      34.841  15.723   7.886  0.00  0.00     0.226 C 
HETATM    5  O   UNK N   1      35.687  14.905   8.220  0.00  0.00    -0.286 OA
HETATM    6  C   UNK N   1      34.406  16.804   8.892  0.00  0.00     0.045 C 
HETATM    7  C   UNK N   1      32.920  16.664   9.304  0.00  0.00     0.195 C 
HETATM    8  O   UNK N   1      32.106  16.618   8.196  0.00  0.00    -0.320 OA
HETATM    9  C   UNK N   1      31.077  17.452   7.926  0.00  0.00     0.258 C 
HETATM   10  O   UNK N   1      30.701  17.562   6.770  0.00  0.00    -0.265 OA
HETATM   11  C   UNK N   1      30.370  18.215   9.001  0.00  0.00     0.111 C 
HETATM   12  C   UNK N   1      28.898  17.808   9.038  0.00  0.00     0.010 C 
HETATM   13  C   UNK N   1      28.005  18.820   8.321  0.00  0.00     0.000 C 
HETATM   14  C   UNK N   1      28.050  18.688   6.802  0.00  0.00     0.000 C 
HETATM   15  C   UNK N   1      27.274  17.473   6.326  0.00  0.00     0.000 C 
HETATM   16  C   UNK N   1      27.436  17.337   4.824  0.00  0.00     0.000 C 
HETATM   17  C   UNK N   1      26.822  16.032   4.353  0.00  0.00     0.000 C 
HETATM   18  C   UNK N   1      27.389  15.641   2.997  0.00  0.00     0.000 C 
HETATM   19  C   UNK N   1      28.821  15.146   3.142  0.00  0.00     0.002 C 
HETATM   20  C   UNK N   1      29.760  16.050   2.361  0.00  0.00     0.027 C 
HETATM   21  C   UNK N   1      30.811  16.642   3.287  0.00  0.00     0.178 C 
HETATM   22  O   UNK N   1      31.926  15.831   3.342  0.00  0.00    -0.320 OA
HETATM   23  C   UNK N   1      32.205  15.074   4.433  0.00  0.00     0.282 C 
HETATM   24  O   UNK N   1      31.396  15.001   5.351  0.00  0.00    -0.263 OA
HETATM   25  C   UNK N   1      33.487  14.267   4.524  0.00  0.00     0.187 C 
HETATM   26  C   UNK N   1      34.373  14.347   3.283  0.00  0.00     0.035 C 
HETATM   27  C   UNK N   1      35.522  13.337   3.423  0.00  0.00     0.004 C 
HETATM   28  C   UNK N   1      36.301  13.531   4.732  0.00  0.00     0.020 C 
HETATM   29  C   UNK N   1      35.364  13.541   5.944  0.00  0.00     0.127 C 
HETATM   30  C   UNK N   1      34.651  18.187   8.313  0.00  0.00     0.026 C 
HETATM   31  C   UNK N   1      35.219  16.709  10.177  0.00  0.00     0.026 C 
ENDROOT
TORSDOF 0
ENDMDL
MODEL 5
REMARK VINA RESULT:      -8.1      3.142      5.579
REMARK  0 active torsions:
REMARK  status: ('A' for Active; 'I' for Inactive)
ROOT
HETATM    1  N   UNK N   1      26.993  18.886   4.504  0.00  0.00    -0.332 N 
HETATM    2  C   UNK N   1      27.082  17.517   4.355  0.00  0.00     0.291 C 
HETATM    3  O   UNK N   1      26.101  16.828   4.585  0.00  0.00    -0.264 OA
HETATM    4  C   UNK N   1      28.341  16.816   3.903  0.00  0.00     0.226 C 
HETATM    5  O   UNK N   1      29.394  17.434   3.833  0.00  0.00    -0.286 OA
HETATM    6  C   UNK N   1      28.304  15.345   3.450  0.00  0.00     0.045 C 
HETATM    7  C   UNK N   1      27.395  15.128   2.216  0.00  0.00     0.195 C 
HETATM    8  O   UNK N   1      26.139  15.642   2.437  0.00  0.00    -0.320 OA
HETATM    9  C   UNK N   1      24.973  14.961   2.361  0.00  0.00     0.258 C 
HETATM   10  O   UNK N   1      23.998  15.403   2.946  0.00  0.00    -0.265 OA
HETATM   11  C   UNK N   1      24.838  13.706   1.558  0.00  0.00     0.111 C 
HETATM   12  C   UNK N   1      23.792  13.907   0.462  0.00  0.00     0.010 C 
HETATM   13  C   UNK N   1      22.439  13.305   0.842  0.00  0.00     0.000 C 
HETATM   14  C   UNK N   1      21.650  14.174   1.816  0.00  0.00     0.000 C 
HETATM   15  C   UNK N   1      21.059  15.390   1.125  0.00  0.00     0.000 C 
HETATM   16  C   UNK N   1      20.374  16.264   2.157  0.00  0.00     0.000 C 
HETATM   17  C   UNK N   1      19.935  17.571   1.520  0.00  0.00     0.000 C 
HETATM   18  C   UNK N   1      19.714  18.630   2.589  0.00  0.00     0.000 C 
HETATM   19  C   UNK N   1      21.046  19.115   3.142  0.00  0.00     0.002 C 
HETATM   20  C   UNK N   1      21.131  18.805   4.626  0.00  0.00     0.027 C 
HETATM   21  C   UNK N   1      22.342  17.931   4.911  0.00  0.00     0.178 C 
HETATM   22  O   UNK N   1      23.449  18.705   5.192  0.00  0.00    -0.320 OA
HETATM   23  C   UNK N   1      24.466  18.845   4.305  0.00  0.00     0.282 C 
HETATM   24  O   UNK N   1      24.361  18.382   3.175  0.00  0.00    -0.263 OA
HETATM   25  C   UNK N   1      25.724  19.614   4.665  0.00  0.00     0.187 C 
HETATM   26  C   UNK N   1      25.706  20.238   6.058  0.00  0.00     0.035 C 
HETATM   27  C   UNK N   1      26.935  21.146   6.216  0.00  0.00     0.004 C 
HETATM   28  C   UNK N   1      28.242  20.402   5.907  0.00  0.00     0.020 C 
HETATM   29  C   UNK N   1      28.182  19.710   4.541  0.00  0.00     0.127 C 
HETATM   30  C   UNK N   1      27.840  14.457   4.594  0.00  0.00     0.026 C 
HETATM   31  C   UNK N   1      29.693  14.865   3.051  0.00  0.00     0.026 C 
ENDROOT
TORSDOF 0
ENDMDL
MODEL 6
REMARK VINA RESULT:      -8.1     11.980     12.931
REMARK  0 active torsions:
REMARK  status: ('A' for Active; 'I' for Inactive)
ROOT
HETATM    1  N   UNK N   1      31.630  21.414  -5.252  0.00  0.00    -0.332 N 
HETATM    2  C   UNK N   1      30.779  20.788  -6.139  0.00  0.00     0.291 C 
HETATM    3  O   UNK N   1      29.581  21.012  -6.075  0.00  0.00    -0.264 OA
HETATM    4  C   UNK N   1      31.257  19.835  -7.209  0.00  0.00     0.226 C 
HETATM    5  O   UNK N   1      32.414  19.438  -7.202  0.00  0.00    -0.286 OA
HETATM    6  C   UNK N   1      30.328  19.413  -8.362  0.00  0.00     0.045 C 
HETATM    7  C   UNK N   1      29.876  20.615  -9.227  0.00  0.00     0.195 C 
HETATM    8  O   UNK N   1      29.328  21.604  -8.444  0.00  0.00    -0.320 OA
HETATM    9  C   UNK N   1      28.088  22.128  -8.572  0.00  0.00     0.258 C 
HETATM   10  O   UNK N   1      27.588  22.689  -7.610  0.00  0.00    -0.265 OA
HETATM   11  C   UNK N   1      27.330  22.069  -9.860  0.00  0.00     0.111 C 
HETATM   12  C   UNK N   1      27.040  23.487 -10.352  0.00  0.00     0.010 C 
HETATM   13  C   UNK N   1      25.613  23.927 -10.024  0.00  0.00     0.000 C 
HETATM   14  C   UNK N   1      25.437  24.348  -8.569  0.00  0.00     0.000 C 
HETATM   15  C   UNK N   1      26.055  25.709  -8.304  0.00  0.00     0.000 C 
HETATM   16  C   UNK N   1      25.937  26.029  -6.826  0.00  0.00     0.000 C 
HETATM   17  C   UNK N   1      26.707  27.299  -6.508  0.00  0.00     0.000 C 
HETATM   18  C   UNK N   1      27.021  27.366  -5.022  0.00  0.00     0.000 C 
HETATM   19  C   UNK N   1      28.117  26.373  -4.663  0.00  0.00     0.002 C 
HETATM   20  C   UNK N   1      27.585  25.353  -3.671  0.00  0.00     0.027 C 
HETATM   21  C   UNK N   1      27.724  23.949  -4.235  0.00  0.00     0.178 C 
HETATM   22  O   UNK N   1      28.938  23.397  -3.878  0.00  0.00    -0.320 OA
HETATM   23  C   UNK N   1      29.945  23.248  -4.774  0.00  0.00     0.282 C 
HETATM   24  O   UNK N   1      29.839  23.720  -5.900  0.00  0.00    -0.263 OA
HETATM   25  C   UNK N   1      31.236  22.545  -4.396  0.00  0.00     0.187 C 
HETATM   26  C   UNK N   1      31.305  22.089  -2.941  0.00  0.00     0.035 C 
HETATM   27  C   UNK N   1      32.724  21.583  -2.640  0.00  0.00     0.004 C 
HETATM   28  C   UNK N   1      33.169  20.498  -3.632  0.00  0.00     0.020 C 
HETATM   29  C   UNK N   1      32.994  20.962  -5.083  0.00  0.00     0.127 C 
HETATM   30  C   UNK N   1      29.110  18.688  -7.812  0.00  0.00     0.026 C 
HETATM   31  C   UNK N   1      31.034  18.447  -9.303  0.00  0.00     0.026 C 
ENDROOT
TORSDOF 0
ENDMDL
MODEL 7
REMARK VINA RESULT:      -7.8     12.746     15.562
REMARK  0 active torsions:
REMARK  status: ('A' for Active; 'I' for Inactive)
ROOT
HETATM    1  N   UNK N   1      26.997  24.178  -9.363  0.00  0.00    -0.332 N 
HETATM    2  C   UNK N   1      26.720  24.331  -8.020  0.00  0.00     0.291 C 
HETATM    3  O   UNK N   1      26.913  23.394  -7.261  0.00  0.00    -0.264 OA
HETATM    4  C   UNK N   1      26.195  25.616  -7.426  0.00  0.00     0.226 C 
HETATM    5  O   UNK N   1      25.816  26.519  -8.159  0.00  0.00    -0.286 OA
HETATM    6  C   UNK N   1      26.202  25.842  -5.903  0.00  0.00     0.045 C 
HETATM    7  C   UNK N   1      27.631  25.812  -5.308  0.00  0.00     0.195 C 
HETATM    8  O   UNK N   1      28.290  24.661  -5.673  0.00  0.00    -0.320 OA
HETATM    9  C   UNK N   1      28.831  23.750  -4.833  0.00  0.00     0.258 C 
HETATM   10  O   UNK N   1      29.026  22.618  -5.244  0.00  0.00    -0.265 OA
HETATM   11  C   UNK N   1      29.225  24.098  -3.431  0.00  0.00     0.111 C 
HETATM   12  C   UNK N   1      30.726  23.878  -3.250  0.00  0.00     0.010 C 
HETATM   13  C   UNK N   1      31.032  22.551  -2.555  0.00  0.00     0.000 C 
HETATM   14  C   UNK N   1      30.923  21.349  -3.486  0.00  0.00     0.000 C 
HETATM   15  C   UNK N   1      32.106  21.271  -4.436  0.00  0.00     0.000 C 
HETATM   16  C   UNK N   1      31.895  20.119  -5.399  0.00  0.00     0.000 C 
HETATM   17  C   UNK N   1      32.972  20.135  -6.469  0.00  0.00     0.000 C 
HETATM   18  C   UNK N   1      32.519  19.341  -7.684  0.00  0.00     0.000 C 
HETATM   19  C   UNK N   1      31.459  20.111  -8.458  0.00  0.00     0.002 C 
HETATM   20  C   UNK N   1      30.161  19.322  -8.478  0.00  0.00     0.027 C 
HETATM   21  C   UNK N   1      29.038  20.142  -7.863  0.00  0.00     0.178 C 
HETATM   22  O   UNK N   1      28.391  20.887  -8.828  0.00  0.00    -0.320 OA
HETATM   23  C   UNK N   1      28.558  22.230  -8.923  0.00  0.00     0.282 C 
HETATM   24  O   UNK N   1      29.392  22.795  -8.225  0.00  0.00    -0.263 OA
HETATM   25  C   UNK N   1      27.763  23.052  -9.921  0.00  0.00     0.187 C 
HETATM   26  C   UNK N   1      26.830  22.236 -10.813  0.00  0.00     0.035 C 
HETATM   27  C   UNK N   1      26.246  23.152 -11.899  0.00  0.00     0.004 C 
HETATM   28  C   UNK N   1      25.570  24.394 -11.299  0.00  0.00     0.020 C 
HETATM   29  C   UNK N   1      26.508  25.131 -10.337  0.00  0.00     0.127 C 
HETATM   30  C   UNK N   1      25.336  24.798  -5.216  0.00  0.00     0.026 C 
HETATM   31  C   UNK N   1      25.619  27.205  -5.553  0.00  0.00     0.026 C 
ENDROOT
TORSDOF 0
ENDMDL
MODEL 8
REMARK VINA RESULT:      -7.8      5.089      8.235
REMARK  0 active torsions:
REMARK  status: ('A' for Active; 'I' for Inactive)
ROOT
HETATM    1  N   UNK N   1      25.926  15.512   4.453  0.00  0.00    -0.332 N 
HETATM    2  C   UNK N   1      24.678  16.080   4.295  0.00  0.00     0.291 C 
HETATM    3  O   UNK N   1      23.685  15.420   4.557  0.00  0.00    -0.264 OA
HETATM    4  C   UNK N   1      24.471  17.500   3.823  0.00  0.00     0.226 C 
HETATM    5  O   UNK N   1      25.414  18.140   3.380  0.00  0.00    -0.286 OA
HETATM    6  C   UNK N   1      23.100  18.186   3.965  0.00  0.00     0.045 C 
HETATM    7  C   UNK N   1      22.648  18.305   5.440  0.00  0.00     0.195 C 
HETATM    8  O   UNK N   1      22.691  17.080   6.066  0.00  0.00    -0.320 OA
HETATM    9  C   UNK N   1      21.658  16.461   6.681  0.00  0.00     0.258 C 
HETATM   10  O   UNK N   1      21.712  15.252   6.840  0.00  0.00    -0.265 OA
HETATM   11  C   UNK N   1      20.473  17.216   7.196  0.00  0.00     0.111 C 
HETATM   12  C   UNK N   1      20.359  17.024   8.708  0.00  0.00     0.010 C 
HETATM   13  C   UNK N   1      19.315  15.970   9.076  0.00  0.00     0.000 C 
HETATM   14  C   UNK N   1      19.813  14.541   8.887  0.00  0.00     0.000 C 
HETATM   15  C   UNK N   1      20.787  14.143   9.982  0.00  0.00     0.000 C 
HETATM   16  C   UNK N   1      21.323  12.755   9.688  0.00  0.00     0.000 C 
HETATM   17  C   UNK N   1      22.432  12.410  10.666  0.00  0.00     0.000 C 
HETATM   18  C   UNK N   1      23.297  11.291  10.109  0.00  0.00     0.000 C 
HETATM   19  C   UNK N   1      24.180  11.810   8.984  0.00  0.00     0.002 C 
HETATM   20  C   UNK N   1      23.844  11.088   7.690  0.00  0.00     0.027 C 
HETATM   21  C   UNK N   1      23.422  12.087   6.625  0.00  0.00     0.178 C 
HETATM   22  O   UNK N   1      24.513  12.513   5.894  0.00  0.00    -0.320 OA
HETATM   23  C   UNK N   1      25.035  13.756   6.050  0.00  0.00     0.282 C 
HETATM   24  O   UNK N   1      24.620  14.487   6.941  0.00  0.00    -0.263 OA
HETATM   25  C   UNK N   1      26.168  14.248   5.169  0.00  0.00     0.187 C 
HETATM   26  C   UNK N   1      26.679  13.221   4.162  0.00  0.00     0.035 C 
HETATM   27  C   UNK N   1      27.943  13.770   3.483  0.00  0.00     0.004 C 
HETATM   28  C   UNK N   1      27.705  15.154   2.861  0.00  0.00     0.020 C 
HETATM   29  C   UNK N   1      27.102  16.128   3.879  0.00  0.00     0.127 C 
HETATM   30  C   UNK N   1      22.052  17.430   3.164  0.00  0.00     0.026 C 
HETATM   31  C   UNK N   1      23.144  19.605   3.413  0.00  0.00     0.026 C 
ENDROOT
TORSDOF 0
ENDMDL
MODEL 9
REMARK VINA RESULT:      -7.8      4.022      8.205
REMARK  0 active torsions:
REMARK  status: ('A' for Active; 'I' for Inactive)
ROOT
HETATM    1  N   UNK N   1      21.282  17.494   3.520  0.00  0.00    -0.332 N 
HETATM    2  C   UNK N   1      21.953  16.384   3.050  0.00  0.00     0.291 C 
HETATM    3  O   UNK N   1      23.120  16.494   2.706  0.00  0.00    -0.264 OA
HETATM    4  C   UNK N   1      21.320  15.017   2.951  0.00  0.00     0.226 C 
HETATM    5  O   UNK N   1      20.114  14.888   3.110  0.00  0.00    -0.286 OA
HETATM    6  C   UNK N   1      22.183  13.762   2.728  0.00  0.00     0.045 C 
HETATM    7  C   UNK N   1      23.194  13.527   3.877  0.00  0.00     0.195 C 
HETATM    8  O   UNK N   1      23.950  14.654   4.101  0.00  0.00    -0.320 OA
HETATM    9  C   UNK N   1      25.300  14.730   4.062  0.00  0.00     0.258 C 
HETATM   10  O   UNK N   1      25.820  15.820   3.886  0.00  0.00    -0.265 OA
HETATM   11  C   UNK N   1      26.169  13.528   4.259  0.00  0.00     0.111 C 
HETATM   12  C   UNK N   1      27.057  13.732   5.486  0.00  0.00     0.010 C 
HETATM   13  C   UNK N   1      28.472  14.166   5.104  0.00  0.00     0.000 C 
HETATM   14  C   UNK N   1      28.566  15.643   4.736  0.00  0.00     0.000 C 
HETATM   15  C   UNK N   1      28.488  16.529   5.967  0.00  0.00     0.000 C 
HETATM   16  C   UNK N   1      28.485  17.982   5.533  0.00  0.00     0.000 C 
HETATM   17  C   UNK N   1      28.225  18.880   6.730  0.00  0.00     0.000 C 
HETATM   18  C   UNK N   1      27.732  20.242   6.269  0.00  0.00     0.000 C 
HETATM   19  C   UNK N   1      26.296  20.149   5.774  0.00  0.00     0.002 C 
HETATM   20  C   UNK N   1      26.231  20.539   4.307  0.00  0.00     0.027 C 
HETATM   21  C   UNK N   1      25.650  19.399   3.486  0.00  0.00     0.178 C 
HETATM   22  O   UNK N   1      24.278  19.512   3.393  0.00  0.00    -0.320 OA
HETATM   23  C   UNK N   1      23.446  18.690   4.081  0.00  0.00     0.282 C 
HETATM   24  O   UNK N   1      23.902  17.905   4.903  0.00  0.00    -0.263 OA
HETATM   25  C   UNK N   1      21.941  18.757   3.890  0.00  0.00     0.187 C 
HETATM   26  C   UNK N   1      21.474  19.841   2.922  0.00  0.00     0.035 C 
HETATM   27  C   UNK N   1      19.941  19.934   2.976  0.00  0.00     0.004 C 
HETATM   28  C   UNK N   1      19.275  18.574   2.723  0.00  0.00     0.020 C 
HETATM   29  C   UNK N   1      19.841  17.492   3.650  0.00  0.00     0.127 C 
HETATM   30  C   UNK N   1      22.924  13.865   1.404  0.00  0.00     0.026 C 
HETATM   31  C   UNK N   1      21.316  12.512   2.656  0.00  0.00     0.026 C 
ENDROOT
TORSDOF 0
ENDMDL
