MODEL 1
REMARK VINA RESULT:      -8.2      0.000      0.000
REMARK  4 active torsions:
REMARK  status: ('A' for Active; 'I' for Inactive)
REMARK    1  A    between atoms: S_3  and  C_6 
REMARK    2  A    between atoms: C_9  and  C_18 
REMARK    3  A    between atoms: C_14  and  C_22 
REMARK    4  A    between atoms: C_21  and  C_28 
ROOT
HETATM    1  N   UNK N   1      27.101  18.613   6.036  0.00  0.00    -0.339 N 
HETATM    2  C   UNK N   1      26.710  18.577   4.747  0.00  0.00     0.116 A 
HETATM    3  N   UNK N   1      27.638  18.030   3.939  0.00  0.00    -0.339 N 
ATOM      4  HN  UNK N   1      27.572  17.888   2.932  1.00  0.00     0.167 HD
HETATM    5  C   UNK N   1      28.677  17.711   4.742  0.00  0.00     0.072 A 
HETATM    6  C   UNK N   1      28.333  18.071   6.060  0.00  0.00     0.072 A 
HETATM    7  H   UNK N   1      26.590  18.963   6.801  0.00  0.00     0.167 HD
ENDROOT
BRANCH   2   8
HETATM    8  C   UNK N   1      25.384  19.026   4.295  0.00  0.00     0.008 A 
HETATM    9  C   UNK N   1      24.246  18.273   4.612  0.00  0.00     0.016 A 
HETATM   10  C   UNK N   1      22.993  18.644   4.117  0.00  0.00     0.022 A 
HETATM   11  C   UNK N   1      22.860  19.782   3.313  0.00  0.00     0.031 A 
HETATM   12  C   UNK N   1      23.996  20.545   3.006  0.00  0.00     0.022 A 
HETATM   13  C   UNK N   1      25.252  20.171   3.496  0.00  0.00     0.016 A 
BRANCH  11  14
HETATM   14  S   UNK N   1      21.263  20.182   2.571  0.00  0.00     0.045 S 
HETATM   15  O   UNK N   1      20.574  20.424   3.923  0.00  0.00    -0.253 OA
HETATM   16  C   UNK N   1      20.670  18.464   2.528  0.00  0.00     0.133 C 
ENDBRANCH  11  14
ENDBRANCH   2   8
BRANCH   6  17
HETATM   17  C   UNK N   1      29.045  17.900   7.359  0.00  0.00    -0.004 A 
HETATM   18  C   UNK N   1      28.592  18.623   8.472  0.00  0.00     0.030 A 
HETATM   19  C   UNK N   1      29.219  18.467   9.711  0.00  0.00     0.088 A 
HETATM   20  N   UNK N   1      30.262  17.606   9.843  0.00  0.00    -0.375 N 
HETATM   21  C   UNK N   1      30.714  16.880   8.786  0.00  0.00     0.088 A 
ATOM     22  HN  UNK N   1      30.713  17.502  10.752  1.00  0.00     0.164 HD
HETATM   23  C   UNK N   1      30.109  17.015   7.536  0.00  0.00     0.030 A 
ENDBRANCH   6  17
BRANCH   5  24
HETATM   24  C   UNK N   1      29.909  17.099   4.174  0.00  0.00    -0.007 A 
HETATM   25  C   UNK N   1      31.109  17.831   4.197  0.00  0.00     0.017 A 
HETATM   26  C   UNK N   1      32.290  17.283   3.686  0.00  0.00     0.043 A 
HETATM   27  C   UNK N   1      32.290  15.988   3.163  0.00  0.00     0.116 A 
HETATM   28  C   UNK N   1      31.110  15.245   3.151  0.00  0.00     0.043 A 
HETATM   29  F   UNK N   1      33.432  15.452   2.671  0.00  0.00    -0.206 F 
HETATM   30  C   UNK N   1      29.932  15.800   3.655  0.00  0.00     0.017 A 
ENDBRANCH   5  24
TORSDOF 4
ENDMDL
MODEL 2
REMARK VINA RESULT:      -7.8     10.262     14.041
REMARK  4 active torsions:
REMARK  status: ('A' for Active; 'I' for Inactive)
REMARK    1  A    between atoms: S_3  and  C_6 
REMARK    2  A    between atoms: C_9  and  C_18 
REMARK    3  A    between atoms: C_14  and  C_22 
REMARK    4  A    between atoms: C_21  and  C_28 
ROOT
HETATM    1  N   UNK N   1      36.250  12.319  12.518  0.00  0.00    -0.339 N 
HETATM    2  C   UNK N   1      35.550  13.451  12.727  0.00  0.00     0.116 A 
HETATM    3  N   UNK N   1      35.246  13.640  14.025  0.00  0.00    -0.339 N 
ATOM      4  HN  UNK N   1      34.732  14.422  14.430  1.00  0.00     0.167 HD
HETATM    5  C   UNK N   1      35.764  12.578  14.679  0.00  0.00     0.072 A 
HETATM    6  C   UNK N   1      36.401  11.754  13.730  0.00  0.00     0.072 A 
HETATM    7  H   UNK N   1      36.581  11.978  11.656  0.00  0.00     0.167 HD
ENDROOT
BRANCH   2   8
HETATM    8  C   UNK N   1      35.219  14.403  11.655  0.00  0.00     0.008 A 
HETATM    9  C   UNK N   1      34.513  13.966  10.527  0.00  0.00     0.016 A 
HETATM   10  C   UNK N   1      34.267  14.840   9.465  0.00  0.00     0.022 A 
HETATM   11  C   UNK N   1      34.710  16.167   9.524  0.00  0.00     0.031 A 
HETATM   12  C   UNK N   1      35.406  16.609  10.659  0.00  0.00     0.022 A 
HETATM   13  C   UNK N   1      35.658  15.733  11.721  0.00  0.00     0.016 A 
BRANCH  11  14
HETATM   14  S   UNK N   1      34.505  17.253   8.096  0.00  0.00     0.045 S 
HETATM   15  O   UNK N   1      35.082  18.483   8.814  0.00  0.00    -0.253 OA
HETATM   16  C   UNK N   1      32.808  17.750   8.513  0.00  0.00     0.133 C 
ENDBRANCH  11  14
ENDBRANCH   2   8
BRANCH   6  17
HETATM   17  C   UNK N   1      37.192  10.497  13.870  0.00  0.00    -0.004 A 
HETATM   18  C   UNK N   1      36.689   9.320  13.297  0.00  0.00     0.030 A 
HETATM   19  C   UNK N   1      37.416   8.131  13.386  0.00  0.00     0.088 A 
HETATM   20  N   UNK N   1      38.619   8.114  14.019  0.00  0.00    -0.375 N 
HETATM   21  C   UNK N   1      39.139   9.241  14.572  0.00  0.00     0.088 A 
ATOM     22  HN  UNK N   1      39.140   7.239  14.081  1.00  0.00     0.164 HD
HETATM   23  C   UNK N   1      38.436  10.444  14.500  0.00  0.00     0.030 A 
ENDBRANCH   6  17
BRANCH   5  24
HETATM   24  C   UNK N   1      35.595  12.441  16.151  0.00  0.00    -0.007 A 
HETATM   25  C   UNK N   1      35.387  13.596  16.924  0.00  0.00     0.017 A 
HETATM   26  C   UNK N   1      35.209  13.506  18.310  0.00  0.00     0.043 A 
HETATM   27  C   UNK N   1      35.218  12.257  18.935  0.00  0.00     0.116 A 
HETATM   28  C   UNK N   1      35.404  11.103  18.175  0.00  0.00     0.043 A 
HETATM   29  F   UNK N   1      35.042  12.164  20.274  0.00  0.00    -0.206 F 
HETATM   30  C   UNK N   1      35.590  11.200  16.795  0.00  0.00     0.017 A 
ENDBRANCH   5  24
TORSDOF 4
ENDMDL
MODEL 3
REMARK VINA RESULT:      -7.6      6.984      8.585
REMARK  4 active torsions:
REMARK  status: ('A' for Active; 'I' for Inactive)
REMARK    1  A    between atoms: S_3  and  C_6 
REMARK    2  A    between atoms: C_9  and  C_18 
REMARK    3  A    between atoms: C_14  and  C_22 
REMARK    4  A    between atoms: C_21  and  C_28 
ROOT
HETATM    1  N   UNK N   1      23.124  13.314   5.675  0.00  0.00    -0.339 N 
HETATM    2  C   UNK N   1      22.719  14.480   6.215  0.00  0.00     0.116 A 
HETATM    3  N   UNK N   1      22.671  14.440   7.559  0.00  0.00    -0.339 N 
ATOM      4  HN  UNK N   1      22.403  15.195   8.190  1.00  0.00     0.167 HD
HETATM    5  C   UNK N   1      23.052  13.189   7.901  0.00  0.00     0.072 A 
HETATM    6  C   UNK N   1      23.343  12.486   6.715  0.00  0.00     0.072 A 
HETATM    7  H   UNK N   1      23.236  13.110   4.719  0.00  0.00     0.167 HD
ENDROOT
BRANCH   2   8
HETATM    8  C   UNK N   1      22.430  15.680   5.414  0.00  0.00     0.008 A 
HETATM    9  C   UNK N   1      22.276  16.921   6.045  0.00  0.00     0.016 A 
HETATM   10  C   UNK N   1      21.917  18.050   5.305  0.00  0.00     0.022 A 
HETATM   11  C   UNK N   1      21.725  17.956   3.921  0.00  0.00     0.031 A 
HETATM   12  C   UNK N   1      21.891  16.717   3.286  0.00  0.00     0.022 A 
HETATM   13  C   UNK N   1      22.244  15.584   4.027  0.00  0.00     0.016 A 
BRANCH  11  14
HETATM   14  S   UNK N   1      21.135  19.388   2.992  0.00  0.00     0.045 S 
HETATM   15  O   UNK N   1      20.654  20.138   4.245  0.00  0.00    -0.253 OA
HETATM   16  C   UNK N   1      19.471  18.718   2.701  0.00  0.00     0.133 C 
ENDBRANCH  11  14
ENDBRANCH   2   8
BRANCH   6  17
HETATM   17  C   UNK N   1      23.865  11.110   6.472  0.00  0.00    -0.004 A 
HETATM   18  C   UNK N   1      24.766  10.911   5.416  0.00  0.00     0.030 A 
HETATM   19  C   UNK N   1      25.295   9.640   5.177  0.00  0.00     0.088 A 
HETATM   20  N   UNK N   1      24.946   8.597   5.974  0.00  0.00    -0.375 N 
HETATM   21  C   UNK N   1      24.087   8.761   7.014  0.00  0.00     0.088 A 
ATOM     22  HN  UNK N   1      25.337   7.673   5.789  1.00  0.00     0.164 HD
HETATM   23  C   UNK N   1      23.540  10.018   7.278  0.00  0.00     0.030 A 
ENDBRANCH   6  17
BRANCH   5  24
HETATM   24  C   UNK N   1      23.093  12.775   9.330  0.00  0.00    -0.007 A 
HETATM   25  C   UNK N   1      21.883  12.599  10.024  0.00  0.00     0.017 A 
HETATM   26  C   UNK N   1      21.882  12.197  11.365  0.00  0.00     0.043 A 
HETATM   27  C   UNK N   1      23.090  11.948  12.020  0.00  0.00     0.116 A 
HETATM   28  C   UNK N   1      24.295  12.101  11.335  0.00  0.00     0.043 A 
HETATM   29  F   UNK N   1      23.093  11.554  13.316  0.00  0.00    -0.206 F 
HETATM   30  C   UNK N   1      24.291  12.511  10.001  0.00  0.00     0.017 A 
ENDBRANCH   5  24
TORSDOF 4
ENDMDL
MODEL 4
REMARK VINA RESULT:      -7.4      5.242      8.558
REMARK  4 active torsions:
REMARK  status: ('A' for Active; 'I' for Inactive)
REMARK    1  A    between atoms: S_3  and  C_6 
REMARK    2  A    between atoms: C_9  and  C_18 
REMARK    3  A    between atoms: C_14  and  C_22 
REMARK    4  A    between atoms: C_21  and  C_28 
ROOT
HETATM    1  N   UNK N   1      28.132  15.994   4.544  0.00  0.00    -0.339 N 
HETATM    2  C   UNK N   1      28.618  17.131   5.079  0.00  0.00     0.116 A 
HETATM    3  N   UNK N   1      27.797  18.182   4.897  0.00  0.00    -0.339 N 
ATOM      4  HN  UNK N   1      27.942  19.140   5.215  1.00  0.00     0.167 HD
HETATM    5  C   UNK N   1      26.739  17.703   4.205  0.00  0.00     0.072 A 
HETATM    6  C   UNK N   1      26.950  16.327   3.992  0.00  0.00     0.072 A 
HETATM    7  H   UNK N   1      28.554  15.106   4.555  0.00  0.00     0.167 HD
ENDROOT
BRANCH   2   8
HETATM    8  C   UNK N   1      29.879  17.189   5.835  0.00  0.00     0.008 A 
HETATM    9  C   UNK N   1      29.852  17.328   7.229  0.00  0.00     0.016 A 
HETATM   10  C   UNK N   1      31.041  17.469   7.948  0.00  0.00     0.022 A 
HETATM   11  C   UNK N   1      32.274  17.457   7.285  0.00  0.00     0.031 A 
HETATM   12  C   UNK N   1      32.303  17.306   5.890  0.00  0.00     0.022 A 
HETATM   13  C   UNK N   1      31.112  17.170   5.168  0.00  0.00     0.016 A 
BRANCH  11  14
HETATM   14  S   UNK N   1      33.797  17.771   8.203  0.00  0.00     0.045 S 
HETATM   15  O   UNK N   1      34.597  18.165   6.951  0.00  0.00    -0.253 OA
HETATM   16  C   UNK N   1      34.401  16.060   8.105  0.00  0.00     0.133 C 
ENDBRANCH  11  14
ENDBRANCH   2   8
BRANCH   6  17
HETATM   17  C   UNK N   1      26.105  15.275   3.355  0.00  0.00    -0.004 A 
HETATM   18  C   UNK N   1      25.721  15.442   2.017  0.00  0.00     0.030 A 
HETATM   19  C   UNK N   1      24.952  14.464   1.382  0.00  0.00     0.088 A 
HETATM   20  N   UNK N   1      24.583  13.343   2.056  0.00  0.00    -0.375 N 
HETATM   21  C   UNK N   1      24.951  13.146   3.349  0.00  0.00     0.088 A 
ATOM     22  HN  UNK N   1      24.019  12.637   1.583  1.00  0.00     0.164 HD
HETATM   23  C   UNK N   1      25.719  14.105   4.012  0.00  0.00     0.030 A 
ENDBRANCH   6  17
BRANCH   5  24
HETATM   24  C   UNK N   1      25.628  18.608   3.803  0.00  0.00    -0.007 A 
HETATM   25  C   UNK N   1      24.310  18.265   4.147  0.00  0.00     0.017 A 
HETATM   26  C   UNK N   1      23.240  19.098   3.798  0.00  0.00     0.043 A 
HETATM   27  C   UNK N   1      23.480  20.293   3.117  0.00  0.00     0.116 A 
HETATM   28  C   UNK N   1      24.787  20.654   2.787  0.00  0.00     0.043 A 
HETATM   29  F   UNK N   1      22.450  21.105   2.781  0.00  0.00    -0.206 F 
HETATM   30  C   UNK N   1      25.848  19.814   3.131  0.00  0.00     0.017 A 
ENDBRANCH   5  24
TORSDOF 4
ENDMDL
MODEL 5
REMARK VINA RESULT:      -7.3      5.552      8.529
REMARK  4 active torsions:
REMARK  status: ('A' for Active; 'I' for Inactive)
REMARK    1  A    between atoms: S_3  and  C_6 
REMARK    2  A    between atoms: C_9  and  C_18 
REMARK    3  A    between atoms: C_14  and  C_22 
REMARK    4  A    between atoms: C_21  and  C_28 
ROOT
HETATM    1  N   UNK N   1      30.028  17.759   6.913  0.00  0.00    -0.339 N 
HETATM    2  C   UNK N   1      30.739  16.617   6.982  0.00  0.00     0.116 A 
HETATM    3  N   UNK N   1      30.308  15.684   6.113  0.00  0.00    -0.339 N 
ATOM      4  HN  UNK N   1      30.688  14.748   5.974  1.00  0.00     0.167 HD
HETATM    5  C   UNK N   1      29.264  16.246   5.463  0.00  0.00     0.072 A 
HETATM    6  C   UNK N   1      29.097  17.552   5.963  0.00  0.00     0.072 A 
HETATM    7  H   UNK N   1      30.162  18.574   7.447  0.00  0.00     0.167 HD
ENDROOT
BRANCH   2   8
HETATM    8  C   UNK N   1      31.902  16.446   7.867  0.00  0.00     0.008 A 
HETATM    9  C   UNK N   1      32.044  15.270   8.615  0.00  0.00     0.016 A 
HETATM   10  C   UNK N   1      33.098  15.132   9.521  0.00  0.00     0.022 A 
HETATM   11  C   UNK N   1      34.034  16.161   9.679  0.00  0.00     0.031 A 
HETATM   12  C   UNK N   1      33.901  17.335   8.921  0.00  0.00     0.022 A 
HETATM   13  C   UNK N   1      32.842  17.476   8.018  0.00  0.00     0.016 A 
BRANCH  11  14
HETATM   14  S   UNK N   1      35.315  16.031  10.945  0.00  0.00     0.045 S 
HETATM   15  O   UNK N   1      36.032  17.318  10.504  0.00  0.00    -0.253 OA
HETATM   16  C   UNK N   1      36.433  15.012   9.938  0.00  0.00     0.133 C 
ENDBRANCH  11  14
ENDBRANCH   2   8
BRANCH   6  17
HETATM   17  C   UNK N   1      28.163  18.653   5.585  0.00  0.00    -0.004 A 
HETATM   18  C   UNK N   1      27.676  19.496   6.595  0.00  0.00     0.030 A 
HETATM   19  C   UNK N   1      26.821  20.553   6.273  0.00  0.00     0.088 A 
HETATM   20  N   UNK N   1      26.469  20.774   4.979  0.00  0.00    -0.375 N 
HETATM   21  C   UNK N   1      26.936  19.983   3.977  0.00  0.00     0.088 A 
ATOM     22  HN  UNK N   1      25.842  21.547   4.756  1.00  0.00     0.164 HD
HETATM   23  C   UNK N   1      27.790  18.919   4.267  0.00  0.00     0.030 A 
ENDBRANCH   6  17
BRANCH   5  24
HETATM   24  C   UNK N   1      28.517  15.479   4.430  0.00  0.00    -0.007 A 
HETATM   25  C   UNK N   1      27.370  14.761   4.810  0.00  0.00     0.017 A 
HETATM   26  C   UNK N   1      26.633  14.039   3.863  0.00  0.00     0.043 A 
HETATM   27  C   UNK N   1      27.024  14.044   2.523  0.00  0.00     0.116 A 
HETATM   28  C   UNK N   1      28.149  14.769   2.131  0.00  0.00     0.043 A 
HETATM   29  F   UNK N   1      26.311  13.351   1.603  0.00  0.00    -0.206 F 
HETATM   30  C   UNK N   1      28.885  15.479   3.081  0.00  0.00     0.017 A 
ENDBRANCH   5  24
TORSDOF 4
ENDMDL
MODEL 6
REMARK VINA RESULT:      -7.2      5.942      9.344
REMARK  4 active torsions:
REMARK  status: ('A' for Active; 'I' for Inactive)
REMARK    1  A    between atoms: S_3  and  C_6 
REMARK    2  A    between atoms: C_9  and  C_18 
REMARK    3  A    between atoms: C_14  and  C_22 
REMARK    4  A    between atoms: C_21  and  C_28 
ROOT
HETATM    1  N   UNK N   1      30.795  15.514   6.290  0.00  0.00    -0.339 N 
HETATM    2  C   UNK N   1      31.256  16.393   7.201  0.00  0.00     0.116 A 
HETATM    3  N   UNK N   1      30.540  17.532   7.231  0.00  0.00    -0.339 N 
ATOM      4  HN  UNK N   1      30.690  18.338   7.838  1.00  0.00     0.167 HD
HETATM    5  C   UNK N   1      29.582  17.387   6.289  0.00  0.00     0.072 A 
HETATM    6  C   UNK N   1      29.740  16.114   5.705  0.00  0.00     0.072 A 
HETATM    7  H   UNK N   1      31.155  14.620   6.093  0.00  0.00     0.167 HD
ENDROOT
BRANCH   2   8
HETATM    8  C   UNK N   1      32.378  16.098   8.107  0.00  0.00     0.008 A 
HETATM    9  C   UNK N   1      32.437  14.864   8.767  0.00  0.00     0.016 A 
HETATM   10  C   UNK N   1      33.451  14.606   9.692  0.00  0.00     0.022 A 
HETATM   11  C   UNK N   1      34.429  15.572   9.957  0.00  0.00     0.031 A 
HETATM   12  C   UNK N   1      34.378  16.804   9.287  0.00  0.00     0.022 A 
HETATM   13  C   UNK N   1      33.359  17.066   8.365  0.00  0.00     0.016 A 
BRANCH  11  14
HETATM   14  S   UNK N   1      35.658  15.284  11.248  0.00  0.00     0.045 S 
HETATM   15  O   UNK N   1      36.572  16.429  10.784  0.00  0.00    -0.253 OA
HETATM   16  C   UNK N   1      36.617  14.073  10.291  0.00  0.00     0.133 C 
ENDBRANCH  11  14
ENDBRANCH   2   8
BRANCH   6  17
HETATM   17  C   UNK N   1      28.948  15.384   4.674  0.00  0.00    -0.004 A 
HETATM   18  C   UNK N   1      29.256  15.590   3.321  0.00  0.00     0.030 A 
HETATM   19  C   UNK N   1      28.551  14.902   2.330  0.00  0.00     0.088 A 
HETATM   20  N   UNK N   1      27.573  14.025   2.675  0.00  0.00    -0.375 N 
HETATM   21  C   UNK N   1      27.261  13.793   3.977  0.00  0.00     0.088 A 
ATOM     22  HN  UNK N   1      27.063  13.530   1.942  1.00  0.00     0.164 HD
HETATM   23  C   UNK N   1      27.946  14.465   4.990  0.00  0.00     0.030 A 
ENDBRANCH   6  17
BRANCH   5  24
HETATM   24  C   UNK N   1      28.609  18.481   6.027  0.00  0.00    -0.007 A 
HETATM   25  C   UNK N   1      28.047  19.171   7.115  0.00  0.00     0.017 A 
HETATM   26  C   UNK N   1      27.139  20.216   6.906  0.00  0.00     0.043 A 
HETATM   27  C   UNK N   1      26.798  20.595   5.607  0.00  0.00     0.116 A 
HETATM   28  C   UNK N   1      27.364  19.930   4.519  0.00  0.00     0.043 A 
HETATM   29  F   UNK N   1      25.924  21.607   5.400  0.00  0.00    -0.206 F 
HETATM   30  C   UNK N   1      28.262  18.883   4.733  0.00  0.00     0.017 A 
ENDBRANCH   5  24
TORSDOF 4
ENDMDL
MODEL 7
REMARK VINA RESULT:      -7.1      5.270      9.255
REMARK  4 active torsions:
REMARK  status: ('A' for Active; 'I' for Inactive)
REMARK    1  A    between atoms: S_3  and  C_6 
REMARK    2  A    between atoms: C_9  and  C_18 
REMARK    3  A    between atoms: C_14  and  C_22 
REMARK    4  A    between atoms: C_21  and  C_28 
ROOT
HETATM    1  N   UNK N   1      24.137  17.923   3.796  0.00  0.00    -0.339 N 
HETATM    2  C   UNK N   1      25.002  17.335   4.646  0.00  0.00     0.116 A 
HETATM    3  N   UNK N   1      24.388  16.770   5.702  0.00  0.00    -0.339 N 
ATOM      4  HN  UNK N   1      24.826  16.264   6.471  1.00  0.00     0.167 HD
HETATM    5  C   UNK N   1      23.070  17.014   5.531  0.00  0.00     0.072 A 
HETATM    6  C   UNK N   1      22.915  17.732   4.328  0.00  0.00     0.072 A 
HETATM    7  H   UNK N   1      24.355  18.394   2.960  0.00  0.00     0.167 HD
ENDROOT
BRANCH   2   8
HETATM    8  C   UNK N   1      26.451  17.266   4.399  0.00  0.00     0.008 A 
HETATM    9  C   UNK N   1      26.949  16.435   3.387  0.00  0.00     0.016 A 
HETATM   10  C   UNK N   1      28.326  16.297   3.200  0.00  0.00     0.022 A 
HETATM   11  C   UNK N   1      29.224  17.002   4.011  0.00  0.00     0.031 A 
HETATM   12  C   UNK N   1      28.726  17.845   5.017  0.00  0.00     0.022 A 
HETATM   13  C   UNK N   1      27.347  17.978   5.209  0.00  0.00     0.016 A 
BRANCH  11  14
HETATM   14  S   UNK N   1      31.000  16.719   3.851  0.00  0.00     0.045 S 
HETATM   15  O   UNK N   1      30.894  15.212   4.136  0.00  0.00    -0.253 OA
HETATM   16  C   UNK N   1      31.377  17.067   5.594  0.00  0.00     0.133 C 
ENDBRANCH  11  14
ENDBRANCH   2   8
BRANCH   6  17
HETATM   17  C   UNK N   1      21.705  18.213   3.601  0.00  0.00    -0.004 A 
HETATM   18  C   UNK N   1      20.977  17.295   2.830  0.00  0.00     0.030 A 
HETATM   19  C   UNK N   1      19.823  17.705   2.157  0.00  0.00     0.088 A 
HETATM   20  N   UNK N   1      19.397  18.991   2.258  0.00  0.00    -0.375 N 
HETATM   21  C   UNK N   1      20.072  19.900   3.010  0.00  0.00     0.088 A 
ATOM     22  HN  UNK N   1      18.554  19.279   1.761  1.00  0.00     0.164 HD
HETATM   23  C   UNK N   1      21.229  19.521   3.693  0.00  0.00     0.030 A 
ENDBRANCH   6  17
BRANCH   5  24
HETATM   24  C   UNK N   1      22.079  16.548   6.538  0.00  0.00    -0.007 A 
HETATM   25  C   UNK N   1      22.246  15.281   7.124  0.00  0.00     0.017 A 
HETATM   26  C   UNK N   1      21.342  14.815   8.086  0.00  0.00     0.043 A 
HETATM   27  C   UNK N   1      20.272  15.617   8.485  0.00  0.00     0.116 A 
HETATM   28  C   UNK N   1      20.107  16.884   7.924  0.00  0.00     0.043 A 
HETATM   29  F   UNK N   1      19.397  15.172   9.418  0.00  0.00    -0.206 F 
HETATM   30  C   UNK N   1      21.007  17.340   6.960  0.00  0.00     0.017 A 
ENDBRANCH   5  24
TORSDOF 4
ENDMDL
MODEL 8
REMARK VINA RESULT:      -7.1      5.151      8.066
REMARK  4 active torsions:
REMARK  status: ('A' for Active; 'I' for Inactive)
REMARK    1  A    between atoms: S_3  and  C_6 
REMARK    2  A    between atoms: C_9  and  C_18 
REMARK    3  A    between atoms: C_14  and  C_22 
REMARK    4  A    between atoms: C_21  and  C_28 
ROOT
HETATM    1  N   UNK N   1      27.769  18.186   5.038  0.00  0.00    -0.339 N 
HETATM    2  C   UNK N   1      28.639  17.169   5.193  0.00  0.00     0.116 A 
HETATM    3  N   UNK N   1      28.242  16.047   4.566  0.00  0.00    -0.339 N 
ATOM      4  HN  UNK N   1      28.732  15.153   4.533  1.00  0.00     0.167 HD
HETATM    5  C   UNK N   1      27.058  16.350   3.990  0.00  0.00     0.072 A 
HETATM    6  C   UNK N   1      26.768  17.697   4.282  0.00  0.00     0.072 A 
HETATM    7  H   UNK N   1      27.850  19.097   5.402  0.00  0.00     0.167 HD
ENDROOT
BRANCH   2   8
HETATM    8  C   UNK N   1      29.914  17.305   5.915  0.00  0.00     0.008 A 
HETATM    9  C   UNK N   1      31.125  17.215   5.217  0.00  0.00     0.016 A 
HETATM   10  C   UNK N   1      32.341  17.258   5.904  0.00  0.00     0.022 A 
HETATM   11  C   UNK N   1      32.362  17.408   7.296  0.00  0.00     0.031 A 
HETATM   12  C   UNK N   1      31.150  17.511   7.995  0.00  0.00     0.022 A 
HETATM   13  C   UNK N   1      29.932  17.462   7.308  0.00  0.00     0.016 A 
BRANCH  11  14
HETATM   14  S   UNK N   1      33.929  17.331   8.189  0.00  0.00     0.045 S 
HETATM   15  O   UNK N   1      34.620  18.362   7.283  0.00  0.00    -0.253 OA
HETATM   16  C   UNK N   1      34.605  15.955   7.213  0.00  0.00     0.133 C 
ENDBRANCH  11  14
ENDBRANCH   2   8
BRANCH   6  17
HETATM   17  C   UNK N   1      25.648  18.590   3.864  0.00  0.00    -0.004 A 
HETATM   18  C   UNK N   1      24.340  18.243   4.234  0.00  0.00     0.030 A 
HETATM   19  C   UNK N   1      23.270  19.070   3.883  0.00  0.00     0.088 A 
HETATM   20  N   UNK N   1      23.496  20.218   3.191  0.00  0.00    -0.375 N 
HETATM   21  C   UNK N   1      24.753  20.588   2.831  0.00  0.00     0.088 A 
ATOM     22  HN  UNK N   1      22.707  20.813   2.938  1.00  0.00     0.164 HD
HETATM   23  C   UNK N   1      25.842  19.783   3.166  0.00  0.00     0.030 A 
ENDBRANCH   6  17
BRANCH   5  24
HETATM   24  C   UNK N   1      26.307  15.321   3.221  0.00  0.00    -0.007 A 
HETATM   25  C   UNK N   1      25.907  15.609   1.905  0.00  0.00     0.017 A 
HETATM   26  C   UNK N   1      25.211  14.661   1.146  0.00  0.00     0.043 A 
HETATM   27  C   UNK N   1      24.925  13.406   1.688  0.00  0.00     0.116 A 
HETATM   28  C   UNK N   1      25.334  13.102   2.987  0.00  0.00     0.043 A 
HETATM   29  F   UNK N   1      24.256  12.484   0.957  0.00  0.00    -0.206 F 
HETATM   30  C   UNK N   1      26.020  14.055   3.742  0.00  0.00     0.017 A 
ENDBRANCH   5  24
TORSDOF 4
ENDMDL
MODEL 9
REMARK VINA RESULT:      -7.1      7.321      8.378
REMARK  4 active torsions:
REMARK  status: ('A' for Active; 'I' for Inactive)
REMARK    1  A    between atoms: S_3  and  C_6 
REMARK    2  A    between atoms: C_9  and  C_18 
REMARK    3  A    between atoms: C_14  and  C_22 
REMARK    4  A    between atoms: C_21  and  C_28 
ROOT
HETATM    1  N   UNK N   1      22.392  14.234   7.657  0.00  0.00    -0.339 N 
HETATM    2  C   UNK N   1      22.399  14.223   6.310  0.00  0.00     0.116 A 
HETATM    3  N   UNK N   1      22.513  12.982   5.802  0.00  0.00    -0.339 N 
ATOM      4  HN  UNK N   1      22.535  12.719   4.817  1.00  0.00     0.167 HD
HETATM    5  C   UNK N   1      22.595  12.157   6.869  0.00  0.00     0.072 A 
HETATM    6  C   UNK N   1      22.511  12.947   8.033  0.00  0.00     0.072 A 
HETATM    7  H   UNK N   1      22.316  15.020   8.243  0.00  0.00     0.167 HD
ENDROOT
BRANCH   2   8
HETATM    8  C   UNK N   1      22.229  15.437   5.495  0.00  0.00     0.008 A 
HETATM    9  C   UNK N   1      22.621  16.681   6.005  0.00  0.00     0.016 A 
HETATM   10  C   UNK N   1      22.388  17.849   5.275  0.00  0.00     0.022 A 
HETATM   11  C   UNK N   1      21.774  17.786   4.018  0.00  0.00     0.031 A 
HETATM   12  C   UNK N   1      21.393  16.539   3.500  0.00  0.00     0.022 A 
HETATM   13  C   UNK N   1      21.621  15.370   4.233  0.00  0.00     0.016 A 
BRANCH  11  14
HETATM   14  S   UNK N   1      21.357  19.308   3.139  0.00  0.00     0.045 S 
HETATM   15  O   UNK N   1      20.746  19.982   4.378  0.00  0.00    -0.253 OA
HETATM   16  C   UNK N   1      19.723  18.734   2.590  0.00  0.00     0.133 C 
ENDBRANCH  11  14
ENDBRANCH   2   8
BRANCH   6  17
HETATM   17  C   UNK N   1      22.478  12.589   9.481  0.00  0.00    -0.004 A 
HETATM   18  C   UNK N   1      21.238  12.557  10.136  0.00  0.00     0.030 A 
HETATM   19  C   UNK N   1      21.168  12.201  11.485  0.00  0.00     0.088 A 
HETATM   20  N   UNK N   1      22.299  11.874  12.163  0.00  0.00    -0.375 N 
HETATM   21  C   UNK N   1      23.513  11.882  11.552  0.00  0.00     0.088 A 
ATOM     22  HN  UNK N   1      22.236  11.617  13.148  1.00  0.00     0.164 HD
HETATM   23  C   UNK N   1      23.616  12.234  10.206  0.00  0.00     0.030 A 
ENDBRANCH   6  17
BRANCH   5  24
HETATM   24  C   UNK N   1      22.757  10.690   6.679  0.00  0.00    -0.007 A 
HETATM   25  C   UNK N   1      21.914  10.022   5.775  0.00  0.00     0.017 A 
HETATM   26  C   UNK N   1      22.045   8.645   5.559  0.00  0.00     0.043 A 
HETATM   27  C   UNK N   1      23.035   7.925   6.231  0.00  0.00     0.116 A 
HETATM   28  C   UNK N   1      23.891   8.581   7.116  0.00  0.00     0.043 A 
HETATM   29  F   UNK N   1      23.170   6.594   6.023  0.00  0.00    -0.206 F 
HETATM   30  C   UNK N   1      23.749   9.953   7.334  0.00  0.00     0.017 A 
ENDBRANCH   5  24
TORSDOF 4
ENDMDL
