REMARK  4 active torsions:
REMARK  status: ('A' for Active; 'I' for Inactive)
REMARK    1  A    between atoms: S_3  and  C_6 
REMARK    2  A    between atoms: C_9  and  C_18 
REMARK    3  A    between atoms: C_14  and  C_22 
REMARK    4  A    between atoms: C_21  and  C_28 
ROOT
HETATM    1  N   UNK N   1      -0.292   1.137   0.131  0.00  0.00    -0.339 N 
HETATM    2  C   UNK N   1       0.812   0.365   0.112  0.00  0.00     0.116 A 
HETATM    3  N   UNK N   1       0.525  -0.949   0.067  0.00  0.00    -0.339 N 
ATOM      4  HN  UNK N   1       1.187  -1.724   0.039  1.00  0.00     0.167 HD
HETATM    5  C   UNK N   1      -0.824  -1.028   0.068  0.00  0.00     0.072 A 
HETATM    6  C   UNK N   1      -1.334   0.285   0.100  0.00  0.00     0.072 A 
HETATM    7  H   UNK N   1      -0.328   2.120   0.161  0.00  0.00     0.167 HD
ENDROOT
BRANCH   2   8
HETATM    8  C   UNK N   1       2.177   0.914   0.076  0.00  0.00     0.008 A 
HETATM    9  C   UNK N   1       2.371   2.299  -0.002  0.00  0.00     0.016 A 
HETATM   10  C   UNK N   1       3.659   2.826  -0.122  0.00  0.00     0.022 A 
HETATM   11  C   UNK N   1       4.771   1.976  -0.149  0.00  0.00     0.031 A 
HETATM   12  C   UNK N   1       4.579   0.589  -0.058  0.00  0.00     0.022 A 
HETATM   13  C   UNK N   1       3.289   0.060   0.056  0.00  0.00     0.016 A 
BRANCH  11  14
HETATM   14  S   UNK N   1       6.420   2.654  -0.436  0.00  0.00     0.045 S 
HETATM   15  O   UNK N   1       7.103   1.695   0.552  0.00  0.00    -0.253 OA
HETATM   16  C   UNK N   1       6.289   3.943   0.838  0.00  0.00     0.133 C 
ENDBRANCH  11  14
ENDBRANCH   2   8
BRANCH   6  17
HETATM   17  C   UNK N   1      -2.727   0.816   0.050  0.00  0.00    -0.004 A 
HETATM   18  C   UNK N   1      -2.923   2.199   0.178  0.00  0.00     0.030 A 
HETATM   19  C   UNK N   1      -4.212   2.733   0.109  0.00  0.00     0.088 A 
HETATM   20  N   UNK N   1      -5.278   1.915  -0.093  0.00  0.00    -0.375 N 
HETATM   21  C   UNK N   1      -5.119   0.573  -0.235  0.00  0.00     0.088 A 
ATOM     22  HN  UNK N   1      -6.215   2.316  -0.139  1.00  0.00     0.164 HD
HETATM   23  C   UNK N   1      -3.844   0.009  -0.170  0.00  0.00     0.030 A 
ENDBRANCH   6  17
BRANCH   5  24
HETATM   24  C   UNK N   1      -1.503  -2.352   0.048  0.00  0.00    -0.007 A 
HETATM   25  C   UNK N   1      -0.750  -3.501  -0.249  0.00  0.00     0.017 A 
HETATM   26  C   UNK N   1      -1.351  -4.765  -0.263  0.00  0.00     0.043 A 
HETATM   27  C   UNK N   1      -2.708  -4.896   0.039  0.00  0.00     0.116 A 
HETATM   28  C   UNK N   1      -3.461  -3.765   0.354  0.00  0.00     0.043 A 
HETATM   29  F   UNK N   1      -3.293  -6.117   0.031  0.00  0.00    -0.206 F 
HETATM   30  C   UNK N   1      -2.858  -2.506   0.358  0.00  0.00     0.017 A 
ENDBRANCH   5  24
TORSDOF 4
