MODEL 1
REMARK VINA RESULT:      -6.6      0.000      0.000
REMARK  4 active torsions:
REMARK  status: ('A' for Active; 'I' for Inactive)
REMARK    1  A    between atoms: C_6  and  C_17 
REMARK    2  A    between atoms: C_13  and  C_16 
REMARK    3  A    between atoms: N_15  and  C_21 
REMARK    4  A    between atoms: C_21  and  C_22 
ROOT
HETATM    1  N   UNK N   1      31.004  16.826   5.440  0.00  0.00    -0.340 N 
HETATM    2  C   UNK N   1      29.838  17.434   5.779  0.00  0.00     0.073 A 
HETATM    3  C   UNK N   1      29.185  17.763   4.568  0.00  0.00     0.071 A 
HETATM    4  N   UNK N   1      29.955  17.323   3.546  0.00  0.00    -0.350 N 
ATOM      5  HN  UNK N   1      29.746  17.395   2.551  1.00  0.00     0.166 HD
HETATM    6  C   UNK N   1      31.049  16.772   4.099  0.00  0.00     0.183 A 
ENDROOT
BRANCH   2   7
HETATM    7  C   UNK N   1      29.405  17.629   7.213  0.00  0.00    -0.004 A 
HETATM    8  C   UNK N   1      30.132  18.405   8.116  0.00  0.00     0.030 A 
HETATM    9  C   UNK N   1      29.677  18.602   9.421  0.00  0.00     0.088 A 
HETATM   10  N   UNK N   1      28.505  18.047   9.823  0.00  0.00    -0.375 N 
HETATM   11  C   UNK N   1      27.761  17.293   8.975  0.00  0.00     0.088 A 
ATOM     12  HN  UNK N   1      28.180  18.199  10.778  1.00  0.00     0.164 HD
HETATM   13  C   UNK N   1      28.198  17.074   7.666  0.00  0.00     0.030 A 
ENDBRANCH   2   7
BRANCH   1  14
HETATM   14  C   UNK N   1      32.079  16.345   6.299  0.00  0.00     0.134 C 
BRANCH  14  15
HETATM   15  C   UNK N   1      33.350  17.146   6.083  0.00  0.00     0.004 A 
HETATM   16  C   UNK N   1      33.697  17.918   7.337  0.00  0.00     0.007 A 
HETATM   17  C   UNK N   1      34.414  16.620   7.024  0.00  0.00     0.007 A 
ENDBRANCH  14  15
ENDBRANCH   1  14
BRANCH   3  18
HETATM   18  C   UNK N   1      27.905  18.472   4.264  0.00  0.00    -0.007 A 
HETATM   19  C   UNK N   1      27.810  19.846   4.549  0.00  0.00     0.017 A 
HETATM   20  C   UNK N   1      26.623  20.546   4.313  0.00  0.00     0.043 A 
HETATM   21  C   UNK N   1      25.508  19.878   3.805  0.00  0.00     0.116 A 
HETATM   22  F   UNK N   1      24.355  20.550   3.578  0.00  0.00    -0.206 F 
HETATM   23  C   UNK N   1      25.583  18.512   3.534  0.00  0.00     0.043 A 
HETATM   24  C   UNK N   1      26.774  17.821   3.765  0.00  0.00     0.017 A 
ENDBRANCH   3  18
TORSDOF 4
ENDMDL
MODEL 2
REMARK VINA RESULT:      -6.5      3.377      7.078
REMARK  4 active torsions:
REMARK  status: ('A' for Active; 'I' for Inactive)
REMARK    1  A    between atoms: C_6  and  C_17 
REMARK    2  A    between atoms: C_13  and  C_16 
REMARK    3  A    between atoms: N_15  and  C_21 
REMARK    4  A    between atoms: C_21  and  C_22 
ROOT
HETATM    1  N   UNK N   1      28.971  17.886   6.359  0.00  0.00    -0.340 N 
HETATM    2  C   UNK N   1      30.231  17.381   6.323  0.00  0.00     0.073 A 
HETATM    3  C   UNK N   1      30.716  17.406   7.652  0.00  0.00     0.071 A 
HETATM    4  N   UNK N   1      29.734  17.893   8.446  0.00  0.00    -0.350 N 
ATOM      5  HN  UNK N   1      29.773  18.016   9.457  1.00  0.00     0.166 HD
HETATM    6  C   UNK N   1      28.698  18.184   7.640  0.00  0.00     0.183 A 
ENDROOT
BRANCH   2   7
HETATM    7  C   UNK N   1      30.874  16.879   5.052  0.00  0.00    -0.004 A 
HETATM    8  C   UNK N   1      31.775  17.647   4.314  0.00  0.00     0.030 A 
HETATM    9  C   UNK N   1      32.386  17.134   3.169  0.00  0.00     0.088 A 
HETATM   10  N   UNK N   1      32.119  15.865   2.768  0.00  0.00    -0.375 N 
HETATM   11  C   UNK N   1      31.255  15.078   3.461  0.00  0.00     0.088 A 
ATOM     12  HN  UNK N   1      32.573  15.497   1.931  1.00  0.00     0.164 HD
HETATM   13  C   UNK N   1      30.625  15.571   4.605  0.00  0.00     0.030 A 
ENDBRANCH   2   7
BRANCH   1  14
HETATM   14  C   UNK N   1      28.046  18.142   5.262  0.00  0.00     0.134 C 
BRANCH  14  15
HETATM   15  C   UNK N   1      28.254  19.530   4.685  0.00  0.00     0.004 A 
HETATM   16  C   UNK N   1      27.099  19.892   3.776  0.00  0.00     0.007 A 
HETATM   17  C   UNK N   1      27.147  20.431   5.192  0.00  0.00     0.007 A 
ENDBRANCH  14  15
ENDBRANCH   1  14
BRANCH   3  18
HETATM   18  C   UNK N   1      32.027  17.031   8.262  0.00  0.00    -0.007 A 
HETATM   19  C   UNK N   1      33.101  17.934   8.162  0.00  0.00     0.017 A 
HETATM   20  C   UNK N   1      34.357  17.615   8.688  0.00  0.00     0.043 A 
HETATM   21  C   UNK N   1      34.561  16.380   9.306  0.00  0.00     0.116 A 
HETATM   22  F   UNK N   1      35.776  16.064   9.813  0.00  0.00    -0.206 F 
HETATM   23  C   UNK N   1      33.510  15.468   9.396  0.00  0.00     0.043 A 
HETATM   24  C   UNK N   1      32.257  15.796   8.876  0.00  0.00     0.017 A 
ENDBRANCH   3  18
TORSDOF 4
ENDMDL
MODEL 3
REMARK VINA RESULT:      -6.5      1.537      3.434
REMARK  4 active torsions:
REMARK  status: ('A' for Active; 'I' for Inactive)
REMARK    1  A    between atoms: C_6  and  C_17 
REMARK    2  A    between atoms: C_13  and  C_16 
REMARK    3  A    between atoms: N_15  and  C_21 
REMARK    4  A    between atoms: C_21  and  C_22 
ROOT
HETATM    1  N   UNK N   1      29.619  17.692   7.582  0.00  0.00    -0.340 N 
HETATM    2  C   UNK N   1      29.195  17.735   6.293  0.00  0.00     0.073 A 
HETATM    3  C   UNK N   1      28.059  18.577   6.268  0.00  0.00     0.071 A 
HETATM    4  N   UNK N   1      27.851  19.036   7.524  0.00  0.00    -0.350 N 
ATOM      5  HN  UNK N   1      27.119  19.679   7.825  1.00  0.00     0.166 HD
HETATM    6  C   UNK N   1      28.799  18.480   8.298  0.00  0.00     0.183 A 
ENDROOT
BRANCH   2   7
HETATM    7  C   UNK N   1      29.906  17.012   5.174  0.00  0.00    -0.004 A 
HETATM    8  C   UNK N   1      30.954  17.589   4.456  0.00  0.00     0.030 A 
HETATM    9  C   UNK N   1      31.620  16.874   3.459  0.00  0.00     0.088 A 
HETATM   10  N   UNK N   1      31.261  15.594   3.187  0.00  0.00    -0.375 N 
HETATM   11  C   UNK N   1      30.253  14.989   3.867  0.00  0.00     0.088 A 
ATOM     12  HN  UNK N   1      31.756  15.078   2.459  1.00  0.00     0.164 HD
HETATM   13  C   UNK N   1      29.566  15.685   4.863  0.00  0.00     0.030 A 
ENDBRANCH   2   7
BRANCH   1  14
HETATM   14  C   UNK N   1      30.709  16.925   8.171  0.00  0.00     0.134 C 
BRANCH  14  15
HETATM   15  C   UNK N   1      31.897  17.816   8.485  0.00  0.00     0.004 A 
HETATM   16  C   UNK N   1      33.128  16.972   8.732  0.00  0.00     0.007 A 
HETATM   17  C   UNK N   1      32.928  17.645   7.389  0.00  0.00     0.007 A 
ENDBRANCH  14  15
ENDBRANCH   1  14
BRANCH   3  18
HETATM   18  C   UNK N   1      27.124  18.990   5.178  0.00  0.00    -0.007 A 
HETATM   19  C   UNK N   1      27.479  20.078   4.360  0.00  0.00     0.017 A 
HETATM   20  C   UNK N   1      26.623  20.523   3.347  0.00  0.00     0.043 A 
HETATM   21  C   UNK N   1      25.391  19.897   3.151  0.00  0.00     0.116 A 
HETATM   22  F   UNK N   1      24.557  20.327   2.175  0.00  0.00    -0.206 F 
HETATM   23  C   UNK N   1      25.018  18.829   3.965  0.00  0.00     0.043 A 
HETATM   24  C   UNK N   1      25.881  18.385   4.969  0.00  0.00     0.017 A 
ENDBRANCH   3  18
TORSDOF 4
ENDMDL
MODEL 4
REMARK VINA RESULT:      -6.4      3.342      6.106
REMARK  4 active torsions:
REMARK  status: ('A' for Active; 'I' for Inactive)
REMARK    1  A    between atoms: C_6  and  C_17 
REMARK    2  A    between atoms: C_13  and  C_16 
REMARK    3  A    between atoms: N_15  and  C_21 
REMARK    4  A    between atoms: C_21  and  C_22 
ROOT
HETATM    1  N   UNK N   1      28.260  15.646   5.208  0.00  0.00    -0.340 N 
HETATM    2  C   UNK N   1      29.001  16.694   5.652  0.00  0.00     0.073 A 
HETATM    3  C   UNK N   1      30.285  16.182   5.952  0.00  0.00     0.071 A 
HETATM    4  N   UNK N   1      30.289  14.861   5.656  0.00  0.00    -0.350 N 
ATOM      5  HN  UNK N   1      31.075  14.219   5.747  1.00  0.00     0.166 HD
HETATM    6  C   UNK N   1      29.053  14.563   5.219  0.00  0.00     0.183 A 
ENDROOT
BRANCH   2   7
HETATM    7  C   UNK N   1      28.463  18.102   5.727  0.00  0.00    -0.004 A 
HETATM    8  C   UNK N   1      28.260  18.889   4.593  0.00  0.00     0.030 A 
HETATM    9  C   UNK N   1      27.717  20.170   4.696  0.00  0.00     0.088 A 
HETATM   10  N   UNK N   1      27.363  20.663   5.910  0.00  0.00    -0.375 N 
HETATM   11  C   UNK N   1      27.535  19.928   7.040  0.00  0.00     0.088 A 
ATOM     12  HN  UNK N   1      26.964  21.599   5.976  1.00  0.00     0.164 HD
HETATM   13  C   UNK N   1      28.084  18.647   6.965  0.00  0.00     0.030 A 
ENDBRANCH   2   7
BRANCH   1  14
HETATM   14  C   UNK N   1      26.854  15.606   4.824  0.00  0.00     0.134 C 
BRANCH  14  15
HETATM   15  C   UNK N   1      26.061  14.703   5.750  0.00  0.00     0.004 A 
HETATM   16  C   UNK N   1      25.975  15.319   7.129  0.00  0.00     0.007 A 
HETATM   17  C   UNK N   1      24.804  15.433   6.173  0.00  0.00     0.007 A 
ENDBRANCH  14  15
ENDBRANCH   1  14
BRANCH   3  18
HETATM   18  C   UNK N   1      31.522  16.807   6.511  0.00  0.00    -0.007 A 
HETATM   19  C   UNK N   1      31.490  17.312   7.823  0.00  0.00     0.017 A 
HETATM   20  C   UNK N   1      32.612  17.935   8.379  0.00  0.00     0.043 A 
HETATM   21  C   UNK N   1      33.777  18.077   7.624  0.00  0.00     0.116 A 
HETATM   22  F   UNK N   1      34.864  18.684   8.155  0.00  0.00    -0.206 F 
HETATM   23  C   UNK N   1      33.817  17.597   6.316  0.00  0.00     0.043 A 
HETATM   24  C   UNK N   1      32.696  16.969   5.770  0.00  0.00     0.017 A 
ENDBRANCH   3  18
TORSDOF 4
ENDMDL
MODEL 5
REMARK VINA RESULT:      -6.2     10.847     13.919
REMARK  4 active torsions:
REMARK  status: ('A' for Active; 'I' for Inactive)
REMARK    1  A    between atoms: C_6  and  C_17 
REMARK    2  A    between atoms: C_13  and  C_16 
REMARK    3  A    between atoms: N_15  and  C_21 
REMARK    4  A    between atoms: C_21  and  C_22 
ROOT
HETATM    1  N   UNK N   1      29.157  27.346  -4.072  0.00  0.00    -0.340 N 
HETATM    2  C   UNK N   1      28.920  26.040  -4.360  0.00  0.00     0.073 A 
HETATM    3  C   UNK N   1      30.045  25.314  -3.902  0.00  0.00     0.071 A 
HETATM    4  N   UNK N   1      30.904  26.191  -3.333  0.00  0.00    -0.350 N 
ATOM      5  HN  UNK N   1      31.798  25.971  -2.894  1.00  0.00     0.166 HD
HETATM    6  C   UNK N   1      30.349  27.409  -3.458  0.00  0.00     0.183 A 
ENDROOT
BRANCH   2   7
HETATM    7  C   UNK N   1      27.642  25.564  -5.008  0.00  0.00    -0.004 A 
HETATM    8  C   UNK N   1      27.352  25.800  -6.352  0.00  0.00     0.030 A 
HETATM    9  C   UNK N   1      26.181  25.306  -6.931  0.00  0.00     0.088 A 
HETATM   10  N   UNK N   1      25.314  24.572  -6.189  0.00  0.00    -0.375 N 
HETATM   11  C   UNK N   1      25.561  24.310  -4.879  0.00  0.00     0.088 A 
ATOM     12  HN  UNK N   1      24.463  24.211  -6.621  1.00  0.00     0.164 HD
HETATM   13  C   UNK N   1      26.721  24.800  -4.275  0.00  0.00     0.030 A 
ENDBRANCH   2   7
BRANCH   1  14
HETATM   14  C   UNK N   1      28.352  28.521  -4.384  0.00  0.00     0.134 C 
BRANCH  14  15
HETATM   15  C   UNK N   1      27.383  28.833  -3.258  0.00  0.00     0.004 A 
HETATM   16  C   UNK N   1      26.452  29.952  -3.671  0.00  0.00     0.007 A 
HETATM   17  C   UNK N   1      25.980  28.513  -3.731  0.00  0.00     0.007 A 
ENDBRANCH  14  15
ENDBRANCH   1  14
BRANCH   3  18
HETATM   18  C   UNK N   1      30.411  23.867  -3.958  0.00  0.00    -0.007 A 
HETATM   19  C   UNK N   1      30.196  23.162  -5.156  0.00  0.00     0.017 A 
HETATM   20  C   UNK N   1      30.492  21.798  -5.248  0.00  0.00     0.043 A 
HETATM   21  C   UNK N   1      30.991  21.116  -4.137  0.00  0.00     0.116 A 
HETATM   22  F   UNK N   1      31.275  19.795  -4.219  0.00  0.00    -0.206 F 
HETATM   23  C   UNK N   1      31.192  21.798  -2.938  0.00  0.00     0.043 A 
HETATM   24  C   UNK N   1      30.902  23.161  -2.856  0.00  0.00     0.017 A 
ENDBRANCH   3  18
TORSDOF 4
ENDMDL
MODEL 6
REMARK VINA RESULT:      -6.1     11.549     14.185
REMARK  4 active torsions:
REMARK  status: ('A' for Active; 'I' for Inactive)
REMARK    1  A    between atoms: C_6  and  C_17 
REMARK    2  A    between atoms: C_13  and  C_16 
REMARK    3  A    between atoms: N_15  and  C_21 
REMARK    4  A    between atoms: C_21  and  C_22 
ROOT
HETATM    1  N   UNK N   1      26.472  23.838  -6.930  0.00  0.00    -0.340 N 
HETATM    2  C   UNK N   1      26.915  24.667  -5.951  0.00  0.00     0.073 A 
HETATM    3  C   UNK N   1      26.442  25.961  -6.271  0.00  0.00     0.071 A 
HETATM    4  N   UNK N   1      25.711  25.870  -7.407  0.00  0.00    -0.350 N 
ATOM      5  HN  UNK N   1      25.224  26.630  -7.880  1.00  0.00     0.166 HD
HETATM    6  C   UNK N   1      25.754  24.582  -7.788  0.00  0.00     0.183 A 
ENDROOT
BRANCH   2   7
HETATM    7  C   UNK N   1      27.718  24.180  -4.768  0.00  0.00    -0.004 A 
HETATM    8  C   UNK N   1      29.084  23.906  -4.852  0.00  0.00     0.030 A 
HETATM    9  C   UNK N   1      29.805  23.501  -3.727  0.00  0.00     0.088 A 
HETATM   10  N   UNK N   1      29.182  23.384  -2.527  0.00  0.00    -0.375 N 
HETATM   11  C   UNK N   1      27.856  23.650  -2.398  0.00  0.00     0.088 A 
ATOM     12  HN  UNK N   1      29.717  23.091  -1.710  1.00  0.00     0.164 HD
HETATM   13  C   UNK N   1      27.111  24.048  -3.510  0.00  0.00     0.030 A 
ENDBRANCH   2   7
BRANCH   1  14
HETATM   14  C   UNK N   1      26.725  22.415  -7.121  0.00  0.00     0.134 C 
BRANCH  14  15
HETATM   15  C   UNK N   1      27.946  22.189  -7.992  0.00  0.00     0.004 A 
HETATM   16  C   UNK N   1      28.848  21.149  -7.364  0.00  0.00     0.007 A 
HETATM   17  C   UNK N   1      27.919  20.762  -8.497  0.00  0.00     0.007 A 
ENDBRANCH  14  15
ENDBRANCH   1  14
BRANCH   3  18
HETATM   18  C   UNK N   1      26.620  27.297  -5.624  0.00  0.00    -0.007 A 
HETATM   19  C   UNK N   1      25.913  27.572  -4.441  0.00  0.00     0.017 A 
HETATM   20  C   UNK N   1      26.020  28.819  -3.815  0.00  0.00     0.043 A 
HETATM   21  C   UNK N   1      26.822  29.814  -4.377  0.00  0.00     0.116 A 
HETATM   22  F   UNK N   1      26.926  31.024  -3.779  0.00  0.00    -0.206 F 
HETATM   23  C   UNK N   1      27.514  29.561  -5.560  0.00  0.00     0.043 A 
HETATM   24  C   UNK N   1      27.409  28.311  -6.174  0.00  0.00     0.017 A 
ENDBRANCH   3  18
TORSDOF 4
ENDMDL
MODEL 7
REMARK VINA RESULT:      -6.1      3.069      6.056
REMARK  4 active torsions:
REMARK  status: ('A' for Active; 'I' for Inactive)
REMARK    1  A    between atoms: C_6  and  C_17 
REMARK    2  A    between atoms: C_13  and  C_16 
REMARK    3  A    between atoms: N_15  and  C_21 
REMARK    4  A    between atoms: C_21  and  C_22 
ROOT
HETATM    1  N   UNK N   1      27.445  16.791   3.432  0.00  0.00    -0.340 N 
HETATM    2  C   UNK N   1      28.307  17.448   4.251  0.00  0.00     0.073 A 
HETATM    3  C   UNK N   1      29.558  16.799   4.126  0.00  0.00     0.071 A 
HETATM    4  N   UNK N   1      29.422  15.799   3.224  0.00  0.00    -0.350 N 
ATOM      5  HN  UNK N   1      30.152  15.162   2.906  1.00  0.00     0.166 HD
HETATM    6  C   UNK N   1      28.137  15.810   2.829  0.00  0.00     0.183 A 
ENDROOT
BRANCH   2   7
HETATM    7  C   UNK N   1      27.904  18.656   5.061  0.00  0.00    -0.004 A 
HETATM    8  C   UNK N   1      27.884  18.650   6.456  0.00  0.00     0.030 A 
HETATM    9  C   UNK N   1      27.550  19.800   7.174  0.00  0.00     0.088 A 
HETATM   10  N   UNK N   1      27.254  20.950   6.516  0.00  0.00    -0.375 N 
HETATM   11  C   UNK N   1      27.271  21.003   5.159  0.00  0.00     0.088 A 
ATOM     12  HN  UNK N   1      27.015  21.786   7.049  1.00  0.00     0.164 HD
HETATM   13  C   UNK N   1      27.593  19.865   4.417  0.00  0.00     0.030 A 
ENDBRANCH   2   7
BRANCH   1  14
HETATM   14  C   UNK N   1      26.018  17.007   3.228  0.00  0.00     0.134 C 
BRANCH  14  15
HETATM   15  C   UNK N   1      25.200  15.910   3.884  0.00  0.00     0.004 A 
HETATM   16  C   UNK N   1      25.270  16.040   5.390  0.00  0.00     0.007 A 
HETATM   17  C   UNK N   1      24.056  16.552   4.641  0.00  0.00     0.007 A 
ENDBRANCH  14  15
ENDBRANCH   1  14
BRANCH   3  18
HETATM   18  C   UNK N   1      30.882  17.010   4.785  0.00  0.00    -0.007 A 
HETATM   19  C   UNK N   1      30.990  16.785   6.169  0.00  0.00     0.017 A 
HETATM   20  C   UNK N   1      32.200  17.000   6.838  0.00  0.00     0.043 A 
HETATM   21  C   UNK N   1      33.313  17.463   6.134  0.00  0.00     0.116 A 
HETATM   22  F   UNK N   1      34.485  17.678   6.777  0.00  0.00    -0.206 F 
HETATM   23  C   UNK N   1      33.215  17.708   4.765  0.00  0.00     0.043 A 
HETATM   24  C   UNK N   1      32.007  17.482   4.103  0.00  0.00     0.017 A 
ENDBRANCH   3  18
TORSDOF 4
ENDMDL
MODEL 8
REMARK VINA RESULT:      -6.0      3.378      6.327
REMARK  4 active torsions:
REMARK  status: ('A' for Active; 'I' for Inactive)
REMARK    1  A    between atoms: C_6  and  C_17 
REMARK    2  A    between atoms: C_13  and  C_16 
REMARK    3  A    between atoms: N_15  and  C_21 
REMARK    4  A    between atoms: C_21  and  C_22 
ROOT
HETATM    1  N   UNK N   1      29.287  15.573   5.243  0.00  0.00    -0.340 N 
HETATM    2  C   UNK N   1      29.845  16.326   6.227  0.00  0.00     0.073 A 
HETATM    3  C   UNK N   1      31.197  15.920   6.329  0.00  0.00     0.071 A 
HETATM    4  N   UNK N   1      31.419  14.967   5.395  0.00  0.00    -0.350 N 
ATOM      5  HN  UNK N   1      32.301  14.491   5.208  1.00  0.00     0.166 HD
HETATM    6  C   UNK N   1      30.250  14.770   4.762  0.00  0.00     0.183 A 
ENDROOT
BRANCH   2   7
HETATM    7  C   UNK N   1      29.081  17.393   6.973  0.00  0.00    -0.004 A 
HETATM    8  C   UNK N   1      28.512  18.493   6.331  0.00  0.00     0.030 A 
HETATM    9  C   UNK N   1      27.772  19.437   7.046  0.00  0.00     0.088 A 
HETATM   10  N   UNK N   1      27.584  19.283   8.382  0.00  0.00    -0.375 N 
HETATM   11  C   UNK N   1      28.112  18.222   9.045  0.00  0.00     0.088 A 
ATOM     12  HN  UNK N   1      27.039  19.976   8.895  1.00  0.00     0.164 HD
HETATM   13  C   UNK N   1      28.863  17.269   8.354  0.00  0.00     0.030 A 
ENDBRANCH   2   7
BRANCH   1  14
HETATM   14  C   UNK N   1      27.908  15.542   4.775  0.00  0.00     0.134 C 
BRANCH  14  15
HETATM   15  C   UNK N   1      27.763  16.269   3.451  0.00  0.00     0.004 A 
HETATM   16  C   UNK N   1      27.147  15.351   2.419  0.00  0.00     0.007 A 
HETATM   17  C   UNK N   1      26.289  16.383   3.124  0.00  0.00     0.007 A 
ENDBRANCH  14  15
ENDBRANCH   1  14
BRANCH   3  18
HETATM   18  C   UNK N   1      32.313  16.327   7.235  0.00  0.00    -0.007 A 
HETATM   19  C   UNK N   1      32.720  15.439   8.247  0.00  0.00     0.017 A 
HETATM   20  C   UNK N   1      33.738  15.788   9.140  0.00  0.00     0.043 A 
HETATM   21  C   UNK N   1      34.352  17.038   9.045  0.00  0.00     0.116 A 
HETATM   22  F   UNK N   1      35.335  17.382   9.909  0.00  0.00    -0.206 F 
HETATM   23  C   UNK N   1      33.946  17.935   8.058  0.00  0.00     0.043 A 
HETATM   24  C   UNK N   1      32.935  17.577   7.165  0.00  0.00     0.017 A 
ENDBRANCH   3  18
TORSDOF 4
ENDMDL
MODEL 9
REMARK VINA RESULT:      -6.0      8.475     11.493
REMARK  4 active torsions:
REMARK  status: ('A' for Active; 'I' for Inactive)
REMARK    1  A    between atoms: C_6  and  C_17 
REMARK    2  A    between atoms: C_13  and  C_16 
REMARK    3  A    between atoms: N_15  and  C_21 
REMARK    4  A    between atoms: C_21  and  C_22 
ROOT
HETATM    1  N   UNK N   1      36.467  13.084  14.835  0.00  0.00    -0.340 N 
HETATM    2  C   UNK N   1      36.070  12.931  13.545  0.00  0.00     0.073 A 
HETATM    3  C   UNK N   1      36.218  14.194  12.925  0.00  0.00     0.071 A 
HETATM    4  N   UNK N   1      36.722  15.053  13.840  0.00  0.00    -0.350 N 
ATOM      5  HN  UNK N   1      36.956  16.034  13.690  1.00  0.00     0.166 HD
HETATM    6  C   UNK N   1      36.853  14.362  14.985  0.00  0.00     0.183 A 
ENDROOT
BRANCH   2   7
HETATM    7  C   UNK N   1      35.616  11.606  12.981  0.00  0.00    -0.004 A 
HETATM    8  C   UNK N   1      34.284  11.192  13.023  0.00  0.00     0.030 A 
HETATM    9  C   UNK N   1      33.892   9.980  12.450  0.00  0.00     0.088 A 
HETATM   10  N   UNK N   1      34.808   9.195  11.829  0.00  0.00    -0.375 N 
HETATM   11  C   UNK N   1      36.113   9.564  11.757  0.00  0.00     0.088 A 
ATOM     12  HN  UNK N   1      34.511   8.313  11.410  1.00  0.00     0.164 HD
HETATM   13  C   UNK N   1      36.532  10.766  12.329  0.00  0.00     0.030 A 
ENDBRANCH   2   7
BRANCH   1  14
HETATM   14  C   UNK N   1      36.458  12.116  15.925  0.00  0.00     0.134 C 
BRANCH  14  15
HETATM   15  C   UNK N   1      35.103  12.074  16.607  0.00  0.00     0.004 A 
HETATM   16  C   UNK N   1      35.239  11.492  17.997  0.00  0.00     0.007 A 
HETATM   17  C   UNK N   1      35.143  12.993  17.810  0.00  0.00     0.007 A 
ENDBRANCH  14  15
ENDBRANCH   1  14
BRANCH   3  18
HETATM   18  C   UNK N   1      35.916  14.690  11.547  0.00  0.00    -0.007 A 
HETATM   19  C   UNK N   1      35.321  15.955  11.402  0.00  0.00     0.017 A 
HETATM   20  C   UNK N   1      34.990  16.450  10.136  0.00  0.00     0.043 A 
HETATM   21  C   UNK N   1      35.233  15.677   8.999  0.00  0.00     0.116 A 
HETATM   22  F   UNK N   1      34.910  16.148   7.772  0.00  0.00    -0.206 F 
HETATM   23  C   UNK N   1      35.806  14.413   9.131  0.00  0.00     0.043 A 
HETATM   24  C   UNK N   1      36.142  13.929  10.397  0.00  0.00     0.017 A 
ENDBRANCH   3  18
TORSDOF 4
ENDMDL
