REMARK  4 active torsions:
REMARK  status: ('A' for Active; 'I' for Inactive)
REMARK    1  A    between atoms: C_6  and  C_17 
REMARK    2  A    between atoms: C_13  and  C_16 
REMARK    3  A    between atoms: N_15  and  C_21 
REMARK    4  A    between atoms: C_21  and  C_22 
ROOT
HETATM    1  N   UNK N   1      -0.150  -1.858   0.405  0.00  0.00    -0.340 N 
HETATM    2  C   UNK N   1      -0.111  -0.508   0.262  0.00  0.00     0.073 A 
HETATM    3  C   UNK N   1       1.254  -0.150   0.168  0.00  0.00     0.071 A 
HETATM    4  N   UNK N   1       1.989  -1.285   0.227  0.00  0.00    -0.350 N 
ATOM      5  HN  UNK N   1       3.004  -1.357   0.167  1.00  0.00     0.166 HD
HETATM    6  C   UNK N   1       1.119  -2.298   0.380  0.00  0.00     0.183 A 
ENDROOT
BRANCH   2   7
HETATM    7  C   UNK N   1      -1.357   0.342   0.188  0.00  0.00    -0.004 A 
HETATM    8  C   UNK N   1      -1.310   1.730   0.056  0.00  0.00     0.030 A 
HETATM    9  C   UNK N   1      -2.482   2.480  -0.056  0.00  0.00     0.088 A 
HETATM   10  N   UNK N   1      -3.689   1.859  -0.053  0.00  0.00    -0.375 N 
HETATM   11  C   UNK N   1      -3.781   0.509   0.064  0.00  0.00     0.088 A 
ATOM     12  HN  UNK N   1      -4.540   2.415  -0.139  1.00  0.00     0.164 HD
HETATM   13  C   UNK N   1      -2.624  -0.263   0.186  0.00  0.00     0.030 A 
ENDBRANCH   2   7
BRANCH   1  14
HETATM   14  C   UNK N   1      -1.298  -2.733   0.607  0.00  0.00     0.134 C 
BRANCH  14  15
HETATM   15  C   UNK N   1      -1.774  -3.322  -0.708  0.00  0.00     0.004 A 
HETATM   16  C   UNK N   1      -1.043  -4.616  -0.992  0.00  0.00     0.007 A 
HETATM   17  C   UNK N   1      -2.448  -4.648  -0.424  0.00  0.00     0.007 A 
ENDBRANCH  14  15
ENDBRANCH   1  14
BRANCH   3  18
HETATM   18  C   UNK N   1       1.953   1.165   0.043  0.00  0.00    -0.007 A 
HETATM   19  C   UNK N   1       3.327   1.173  -0.256  0.00  0.00     0.017 A 
HETATM   20  C   UNK N   1       4.033   2.377  -0.351  0.00  0.00     0.043 A 
HETATM   21  C   UNK N   1       3.377   3.589  -0.130  0.00  0.00     0.116 A 
HETATM   22  F   UNK N   1       4.056   4.757  -0.216  0.00  0.00    -0.206 F 
HETATM   23  C   UNK N   1       2.019   3.595   0.185  0.00  0.00     0.043 A 
HETATM   24  C   UNK N   1       1.319   2.390   0.270  0.00  0.00     0.017 A 
ENDBRANCH   3  18
TORSDOF 4
