REMARK  7 active torsions:
REMARK  status: ('A' for Active; 'I' for Inactive)
REMARK    1  A    between atoms: C_3  and  C_7 
REMARK    2  A    between atoms: C_7  and  C_8 
REMARK    3  A    between atoms: C_8  and  C_9 
REMARK    4  A    between atoms: C_9  and  N_10 
REMARK    5  A    between atoms: N_10  and  O_11 
REMARK    6  A    between atoms: N_10  and  C_12 
REMARK    7  A    between atoms: C_12  and  O_13 
ROOT
HETATM    1  C   UNK N   1       0.607  -0.745   0.556  0.00  0.00     0.021 C 
ENDROOT
BRANCH   1   2
HETATM    2  C   UNK N   1      -0.514  -1.130  -0.392  0.00  0.00     0.040 C 
BRANCH   2   3
HETATM    3  C   UNK N   1      -1.735  -0.301  -0.172  0.00  0.00    -0.058 A 
HETATM    4  C   UNK N   1      -1.665   1.097  -0.244  0.00  0.00     0.007 A 
HETATM    5  C   UNK N   1      -2.820   1.866  -0.079  0.00  0.00     0.001 A 
HETATM    6  C   UNK N   1      -4.050   1.241   0.142  0.00  0.00     0.000 A 
HETATM    7  C   UNK N   1      -4.125  -0.154   0.206  0.00  0.00     0.001 A 
HETATM    8  C   UNK N   1      -2.968  -0.925   0.050  0.00  0.00     0.007 A 
ENDBRANCH   2   3
ENDBRANCH   1   2
BRANCH   1   9
HETATM    9  C   UNK N   1       1.925  -1.158  -0.076  0.00  0.00     0.123 C 
BRANCH   9  10
HETATM   10  N   UNK N   1       2.997  -0.266   0.328  0.00  0.00    -0.176 NA
BRANCH  10  11
HETATM   11  O   UNK N   1       2.776   0.933  -0.270  0.00  0.00    -0.311 OA
HETATM   12  H   UNK N   1       3.439   1.498  -0.697  0.00  0.00     0.237 HD
ENDBRANCH  10  11
BRANCH  10  13
HETATM   13  C   UNK N   1       4.221  -0.804  -0.237  0.00  0.00     0.284 C 
BRANCH  13  14
HETATM   14  O   UNK N   1       5.318  -0.052   0.187  0.00  0.00    -0.385 OA
HETATM   15  H   UNK N   1       6.152  -0.451   0.481  0.00  0.00     0.211 HD
ENDBRANCH  13  14
ENDBRANCH  10  13
ENDBRANCH   9  10
ENDBRANCH   1   9
TORSDOF 7
