MODEL 1
REMARK VINA RESULT:      -5.5      0.000      0.000
REMARK  7 active torsions:
REMARK  status: ('A' for Active; 'I' for Inactive)
REMARK    1  A    between atoms: C_3  and  C_7 
REMARK    2  A    between atoms: C_7  and  C_8 
REMARK    3  A    between atoms: C_8  and  C_9 
REMARK    4  A    between atoms: C_9  and  N_10 
REMARK    5  A    between atoms: N_10  and  O_11 
REMARK    6  A    between atoms: N_10  and  C_12 
REMARK    7  A    between atoms: C_12  and  O_13 
ROOT
HETATM    1  C   UNK N   1      28.501  24.060  -3.340  0.00  0.00     0.021 C 
ENDROOT
BRANCH   1   2
HETATM    2  C   UNK N   1      26.984  24.010  -3.337  0.00  0.00     0.040 C 
BRANCH   2   3
HETATM    3  C   UNK N   1      26.388  25.228  -3.959  0.00  0.00    -0.058 A 
HETATM    4  C   UNK N   1      25.709  25.141  -5.181  0.00  0.00     0.007 A 
HETATM    5  C   UNK N   1      25.116  26.278  -5.737  0.00  0.00     0.001 A 
HETATM    6  C   UNK N   1      25.187  27.501  -5.066  0.00  0.00     0.000 A 
HETATM    7  C   UNK N   1      25.856  27.591  -3.841  0.00  0.00     0.001 A 
HETATM    8  C   UNK N   1      26.458  26.455  -3.288  0.00  0.00     0.007 A 
ENDBRANCH   2   3
ENDBRANCH   1   2
BRANCH   1   9
HETATM    9  C   UNK N   1      29.008  23.133  -2.249  0.00  0.00     0.123 C 
BRANCH   9  10
HETATM   10  N   UNK N   1      30.445  23.262  -2.084  0.00  0.00    -0.176 NA
BRANCH  10  11
HETATM   11  O   UNK N   1      30.820  24.425  -2.675  0.00  0.00    -0.311 OA
HETATM   12  H   UNK N   1      30.402  24.845  -3.444  0.00  0.00     0.237 HD
ENDBRANCH  10  11
BRANCH  10  13
HETATM   13  C   UNK N   1      31.049  22.184  -2.845  0.00  0.00     0.284 C 
BRANCH  13  14
HETATM   14  O   UNK N   1      32.074  21.589  -2.107  0.00  0.00    -0.385 OA
HETATM   15  H   UNK N   1      33.006  21.846  -2.192  0.00  0.00     0.211 HD
ENDBRANCH  13  14
ENDBRANCH  10  13
ENDBRANCH   9  10
ENDBRANCH   1   9
TORSDOF 7
ENDMDL
MODEL 2
REMARK VINA RESULT:      -5.4     21.917     24.472
REMARK  7 active torsions:
REMARK  status: ('A' for Active; 'I' for Inactive)
REMARK    1  A    between atoms: C_3  and  C_7 
REMARK    2  A    between atoms: C_7  and  C_8 
REMARK    3  A    between atoms: C_8  and  C_9 
REMARK    4  A    between atoms: C_9  and  N_10 
REMARK    5  A    between atoms: N_10  and  O_11 
REMARK    6  A    between atoms: N_10  and  C_12 
REMARK    7  A    between atoms: C_12  and  O_13 
ROOT
HETATM    1  C   UNK N   1      34.014  11.499  14.787  0.00  0.00     0.021 C 
ENDROOT
BRANCH   1   2
HETATM    2  C   UNK N   1      35.053  10.829  15.667  0.00  0.00     0.040 C 
BRANCH   2   3
HETATM    3  C   UNK N   1      35.169  11.499  16.995  0.00  0.00    -0.058 A 
HETATM    4  C   UNK N   1      35.087  12.894  17.095  0.00  0.00     0.007 A 
HETATM    5  C   UNK N   1      35.154  13.513  18.347  0.00  0.00     0.001 A 
HETATM    6  C   UNK N   1      35.286  12.739  19.502  0.00  0.00     0.000 A 
HETATM    7  C   UNK N   1      35.360  11.345  19.407  0.00  0.00     0.001 A 
HETATM    8  C   UNK N   1      35.302  10.725  18.154  0.00  0.00     0.007 A 
ENDBRANCH   2   3
ENDBRANCH   1   2
BRANCH   1   9
HETATM    9  C   UNK N   1      34.696  11.947  13.505  0.00  0.00     0.123 C 
BRANCH   9  10
HETATM   10  N   UNK N   1      34.842  13.391  13.472  0.00  0.00    -0.176 NA
BRANCH  10  11
HETATM   11  O   UNK N   1      34.363  13.820  12.276  0.00  0.00    -0.311 OA
HETATM   12  H   UNK N   1      33.434  13.843  11.998  0.00  0.00     0.237 HD
ENDBRANCH  10  11
BRANCH  10  13
HETATM   13  C   UNK N   1      36.267  13.666  13.483  0.00  0.00     0.284 C 
BRANCH  13  14
HETATM   14  O   UNK N   1      36.492  15.041  13.404  0.00  0.00    -0.385 OA
HETATM   15  H   UNK N   1      36.163  15.671  14.064  0.00  0.00     0.211 HD
ENDBRANCH  13  14
ENDBRANCH  10  13
ENDBRANCH   9  10
ENDBRANCH   1   9
TORSDOF 7
ENDMDL
MODEL 3
REMARK VINA RESULT:      -5.2      4.982      5.614
REMARK  7 active torsions:
REMARK  status: ('A' for Active; 'I' for Inactive)
REMARK    1  A    between atoms: C_3  and  C_7 
REMARK    2  A    between atoms: C_7  and  C_8 
REMARK    3  A    between atoms: C_8  and  C_9 
REMARK    4  A    between atoms: C_9  and  N_10 
REMARK    5  A    between atoms: N_10  and  O_11 
REMARK    6  A    between atoms: N_10  and  C_12 
REMARK    7  A    between atoms: C_12  and  O_13 
ROOT
HETATM    1  C   UNK N   1      26.397  23.604  -6.523  0.00  0.00     0.021 C 
ENDROOT
BRANCH   1   2
HETATM    2  C   UNK N   1      26.255  23.867  -5.035  0.00  0.00     0.040 C 
BRANCH   2   3
HETATM    3  C   UNK N   1      25.952  25.300  -4.751  0.00  0.00    -0.058 A 
HETATM    4  C   UNK N   1      26.455  25.916  -3.598  0.00  0.00     0.007 A 
HETATM    5  C   UNK N   1      26.203  27.270  -3.359  0.00  0.00     0.001 A 
HETATM    6  C   UNK N   1      25.462  28.015  -4.279  0.00  0.00     0.000 A 
HETATM    7  C   UNK N   1      24.965  27.406  -5.436  0.00  0.00     0.001 A 
HETATM    8  C   UNK N   1      25.209  26.049  -5.672  0.00  0.00     0.007 A 
ENDBRANCH   2   3
ENDBRANCH   1   2
BRANCH   1   9
HETATM    9  C   UNK N   1      25.459  22.469  -6.896  0.00  0.00     0.123 C 
BRANCH   9  10
HETATM   10  N   UNK N   1      24.788  22.742  -8.154  0.00  0.00    -0.176 NA
BRANCH  10  11
HETATM   11  O   UNK N   1      23.637  22.021  -8.166  0.00  0.00    -0.311 OA
HETATM   12  H   UNK N   1      22.830  22.227  -8.665  0.00  0.00     0.237 HD
ENDBRANCH  10  11
BRANCH  10  13
HETATM   13  C   UNK N   1      25.636  22.205  -9.203  0.00  0.00     0.284 C 
BRANCH  13  14
HETATM   14  O   UNK N   1      25.101  21.012  -9.691  0.00  0.00    -0.385 OA
HETATM   15  H   UNK N   1      24.168  20.767  -9.587  0.00  0.00     0.211 HD
ENDBRANCH  13  14
ENDBRANCH  10  13
ENDBRANCH   9  10
ENDBRANCH   1   9
TORSDOF 7
ENDMDL
MODEL 4
REMARK VINA RESULT:      -5.2     20.917     24.002
REMARK  7 active torsions:
REMARK  status: ('A' for Active; 'I' for Inactive)
REMARK    1  A    between atoms: C_3  and  C_7 
REMARK    2  A    between atoms: C_7  and  C_8 
REMARK    3  A    between atoms: C_8  and  C_9 
REMARK    4  A    between atoms: C_9  and  N_10 
REMARK    5  A    between atoms: N_10  and  O_11 
REMARK    6  A    between atoms: N_10  and  C_12 
REMARK    7  A    between atoms: C_12  and  O_13 
ROOT
HETATM    1  C   UNK N   1      36.480  12.742  14.452  0.00  0.00     0.021 C 
ENDROOT
BRANCH   1   2
HETATM    2  C   UNK N   1      35.874  13.641  15.513  0.00  0.00     0.040 C 
BRANCH   2   3
HETATM    3  C   UNK N   1      35.646  12.910  16.794  0.00  0.00    -0.058 A 
HETATM    4  C   UNK N   1      35.851  11.525  16.866  0.00  0.00     0.007 A 
HETATM    5  C   UNK N   1      35.677  10.853  18.079  0.00  0.00     0.001 A 
HETATM    6  C   UNK N   1      35.314  11.564  19.226  0.00  0.00     0.000 A 
HETATM    7  C   UNK N   1      35.118  12.947  19.160  0.00  0.00     0.001 A 
HETATM    8  C   UNK N   1      35.283  13.620  17.944  0.00  0.00     0.007 A 
ENDBRANCH   2   3
ENDBRANCH   1   2
BRANCH   1   9
HETATM    9  C   UNK N   1      36.311  13.420  13.103  0.00  0.00     0.123 C 
BRANCH   9  10
HETATM   10  N   UNK N   1      34.922  13.773  12.869  0.00  0.00    -0.176 NA
BRANCH  10  11
HETATM   11  O   UNK N   1      34.258  12.628  12.564  0.00  0.00    -0.311 OA
HETATM   12  H   UNK N   1      33.545  12.218  13.078  0.00  0.00     0.237 HD
ENDBRANCH  10  11
BRANCH  10  13
HETATM   13  C   UNK N   1      34.899  14.608  11.683  0.00  0.00     0.284 C 
BRANCH  13  14
HETATM   14  O   UNK N   1      33.581  14.859  11.297  0.00  0.00    -0.385 OA
HETATM   15  H   UNK N   1      33.264  14.744  10.387  0.00  0.00     0.211 HD
ENDBRANCH  13  14
ENDBRANCH  10  13
ENDBRANCH   9  10
ENDBRANCH   1   9
TORSDOF 7
ENDMDL
MODEL 5
REMARK VINA RESULT:      -5.1     16.703     17.916
REMARK  7 active torsions:
REMARK  status: ('A' for Active; 'I' for Inactive)
REMARK    1  A    between atoms: C_3  and  C_7 
REMARK    2  A    between atoms: C_7  and  C_8 
REMARK    3  A    between atoms: C_8  and  C_9 
REMARK    4  A    between atoms: C_9  and  N_10 
REMARK    5  A    between atoms: N_10  and  O_11 
REMARK    6  A    between atoms: N_10  and  C_12 
REMARK    7  A    between atoms: C_12  and  O_13 
ROOT
HETATM    1  C   UNK N   1      22.312  13.164  10.115  0.00  0.00     0.021 C 
ENDROOT
BRANCH   1   2
HETATM    2  C   UNK N   1      20.920  13.677   9.794  0.00  0.00     0.040 C 
BRANCH   2   3
HETATM    3  C   UNK N   1      20.954  14.785   8.794  0.00  0.00    -0.058 A 
HETATM    4  C   UNK N   1      20.089  15.880   8.921  0.00  0.00     0.007 A 
HETATM    5  C   UNK N   1      20.155  16.934   8.006  0.00  0.00     0.001 A 
HETATM    6  C   UNK N   1      21.096  16.905   6.973  0.00  0.00     0.000 A 
HETATM    7  C   UNK N   1      21.966  15.818   6.849  0.00  0.00     0.001 A 
HETATM    8  C   UNK N   1      21.895  14.757   7.759  0.00  0.00     0.007 A 
ENDBRANCH   2   3
ENDBRANCH   1   2
BRANCH   1   9
HETATM    9  C   UNK N   1      22.221  12.294  11.357  0.00  0.00     0.123 C 
BRANCH   9  10
HETATM   10  N   UNK N   1      23.528  11.781  11.728  0.00  0.00    -0.176 NA
BRANCH  10  11
HETATM   11  O   UNK N   1      23.885  12.382  12.892  0.00  0.00    -0.311 OA
HETATM   12  H   UNK N   1      23.391  13.070  13.364  0.00  0.00     0.237 HD
ENDBRANCH  10  11
BRANCH  10  13
HETATM   13  C   UNK N   1      24.458  12.237  10.711  0.00  0.00     0.284 C 
BRANCH  13  14
HETATM   14  O   UNK N   1      25.534  12.899  11.305  0.00  0.00    -0.385 OA
HETATM   15  H   UNK N   1      26.260  12.435  11.752  0.00  0.00     0.211 HD
ENDBRANCH  13  14
ENDBRANCH  10  13
ENDBRANCH   9  10
ENDBRANCH   1   9
TORSDOF 7
ENDMDL
MODEL 6
REMARK VINA RESULT:      -5.0     12.879     14.980
REMARK  7 active torsions:
REMARK  status: ('A' for Active; 'I' for Inactive)
REMARK    1  A    between atoms: C_3  and  C_7 
REMARK    2  A    between atoms: C_7  and  C_8 
REMARK    3  A    between atoms: C_8  and  C_9 
REMARK    4  A    between atoms: C_9  and  N_10 
REMARK    5  A    between atoms: N_10  and  O_11 
REMARK    6  A    between atoms: N_10  and  C_12 
REMARK    7  A    between atoms: C_12  and  O_13 
ROOT
HETATM    1  C   UNK N   1      33.279  16.009   8.771  0.00  0.00     0.021 C 
ENDROOT
BRANCH   1   2
HETATM    2  C   UNK N   1      32.757  17.351   8.292  0.00  0.00     0.040 C 
BRANCH   2   3
HETATM    3  C   UNK N   1      32.400  17.322   6.843  0.00  0.00    -0.058 A 
HETATM    4  C   UNK N   1      31.066  17.162   6.445  0.00  0.00     0.007 A 
HETATM    5  C   UNK N   1      30.733  17.178   5.088  0.00  0.00     0.001 A 
HETATM    6  C   UNK N   1      31.729  17.369   4.126  0.00  0.00     0.000 A 
HETATM    7  C   UNK N   1      33.060  17.536   4.520  0.00  0.00     0.001 A 
HETATM    8  C   UNK N   1      33.396  17.512   5.878  0.00  0.00     0.007 A 
ENDBRANCH   2   3
ENDBRANCH   1   2
BRANCH   1   9
HETATM    9  C   UNK N   1      34.753  16.165   9.102  0.00  0.00     0.123 C 
BRANCH   9  10
HETATM   10  N   UNK N   1      34.934  16.953  10.308  0.00  0.00    -0.176 NA
BRANCH  10  11
HETATM   11  O   UNK N   1      35.743  17.997   9.995  0.00  0.00    -0.311 OA
HETATM   12  H   UNK N   1      36.312  18.492  10.605  0.00  0.00     0.237 HD
ENDBRANCH  10  11
BRANCH  10  13
HETATM   13  C   UNK N   1      35.663  16.117  11.246  0.00  0.00     0.284 C 
BRANCH  13  14
HETATM   14  O   UNK N   1      37.010  16.054  10.887  0.00  0.00    -0.385 OA
HETATM   15  H   UNK N   1      37.333  16.271   9.998  0.00  0.00     0.211 HD
ENDBRANCH  13  14
ENDBRANCH  10  13
ENDBRANCH   9  10
ENDBRANCH   1   9
TORSDOF 7
ENDMDL
MODEL 7
REMARK VINA RESULT:      -5.0     17.409     19.103
REMARK  7 active torsions:
REMARK  status: ('A' for Active; 'I' for Inactive)
REMARK    1  A    between atoms: C_3  and  C_7 
REMARK    2  A    between atoms: C_7  and  C_8 
REMARK    3  A    between atoms: C_8  and  C_9 
REMARK    4  A    between atoms: C_9  and  N_10 
REMARK    5  A    between atoms: N_10  and  O_11 
REMARK    6  A    between atoms: N_10  and  C_12 
REMARK    7  A    between atoms: C_12  and  O_13 
ROOT
HETATM    1  C   UNK N   1      20.348  14.565   9.549  0.00  0.00     0.021 C 
ENDROOT
BRANCH   1   2
HETATM    2  C   UNK N   1      21.241  13.606   8.782  0.00  0.00     0.040 C 
BRANCH   2   3
HETATM    3  C   UNK N   1      22.318  13.040   9.645  0.00  0.00    -0.058 A 
HETATM    4  C   UNK N   1      23.663  13.163   9.272  0.00  0.00     0.007 A 
HETATM    5  C   UNK N   1      24.670  12.669  10.106  0.00  0.00     0.001 A 
HETATM    6  C   UNK N   1      24.337  12.065  11.321  0.00  0.00     0.000 A 
HETATM    7  C   UNK N   1      22.996  11.949  11.701  0.00  0.00     0.001 A 
HETATM    8  C   UNK N   1      21.987  12.435  10.863  0.00  0.00     0.007 A 
ENDBRANCH   2   3
ENDBRANCH   1   2
BRANCH   1   9
HETATM    9  C   UNK N   1      20.057  15.759   8.656  0.00  0.00     0.123 C 
BRANCH   9  10
HETATM   10  N   UNK N   1      18.632  16.027   8.595  0.00  0.00    -0.176 NA
BRANCH  10  11
HETATM   11  O   UNK N   1      18.310  16.225   7.291  0.00  0.00    -0.311 OA
HETATM   12  H   UNK N   1      18.480  15.618   6.553  0.00  0.00     0.237 HD
ENDBRANCH  10  11
BRANCH  10  13
HETATM   13  C   UNK N   1      18.416  17.286   9.283  0.00  0.00     0.284 C 
BRANCH  13  14
HETATM   14  O   UNK N   1      17.175  17.821   8.931  0.00  0.00    -0.385 OA
HETATM   15  H   UNK N   1      16.787  17.720   8.048  0.00  0.00     0.211 HD
ENDBRANCH  13  14
ENDBRANCH  10  13
ENDBRANCH   9  10
ENDBRANCH   1   9
TORSDOF 7
ENDMDL
MODEL 8
REMARK VINA RESULT:      -5.0      9.364     11.348
REMARK  7 active torsions:
REMARK  status: ('A' for Active; 'I' for Inactive)
REMARK    1  A    between atoms: C_3  and  C_7 
REMARK    2  A    between atoms: C_7  and  C_8 
REMARK    3  A    between atoms: C_8  and  C_9 
REMARK    4  A    between atoms: C_9  and  N_10 
REMARK    5  A    between atoms: N_10  and  O_11 
REMARK    6  A    between atoms: N_10  and  C_12 
REMARK    7  A    between atoms: C_12  and  O_13 
ROOT
HETATM    1  C   UNK N   1      24.379  19.768   3.505  0.00  0.00     0.021 C 
ENDROOT
BRANCH   1   2
HETATM    2  C   UNK N   1      25.881  19.878   3.312  0.00  0.00     0.040 C 
BRANCH   2   3
HETATM    3  C   UNK N   1      26.613  19.819   4.611  0.00  0.00    -0.058 A 
HETATM    4  C   UNK N   1      26.531  20.884   5.519  0.00  0.00     0.007 A 
HETATM    5  C   UNK N   1      27.185  20.805   6.751  0.00  0.00     0.001 A 
HETATM    6  C   UNK N   1      27.907  19.657   7.087  0.00  0.00     0.000 A 
HETATM    7  C   UNK N   1      27.983  18.589   6.187  0.00  0.00     0.001 A 
HETATM    8  C   UNK N   1      27.337  18.670   4.949  0.00  0.00     0.007 A 
ENDBRANCH   2   3
ENDBRANCH   1   2
BRANCH   1   9
HETATM    9  C   UNK N   1      23.718  20.891   2.725  0.00  0.00     0.123 C 
BRANCH   9  10
HETATM   10  N   UNK N   1      22.320  20.592   2.470  0.00  0.00    -0.176 NA
BRANCH  10  11
HETATM   11  O   UNK N   1      21.607  21.715   2.746  0.00  0.00    -0.311 OA
HETATM   12  H   UNK N   1      21.640  22.555   2.262  0.00  0.00     0.237 HD
ENDBRANCH  10  11
BRANCH  10  13
HETATM   13  C   UNK N   1      21.925  19.589   3.441  0.00  0.00     0.284 C 
BRANCH  13  14
HETATM   14  O   UNK N   1      20.819  20.032   4.169  0.00  0.00    -0.385 OA
HETATM   15  H   UNK N   1      20.752  20.926   4.539  0.00  0.00     0.211 HD
ENDBRANCH  13  14
ENDBRANCH  10  13
ENDBRANCH   9  10
ENDBRANCH   1   9
TORSDOF 7
ENDMDL
MODEL 9
REMARK VINA RESULT:      -4.9      9.478     10.761
REMARK  7 active torsions:
REMARK  status: ('A' for Active; 'I' for Inactive)
REMARK    1  A    between atoms: C_3  and  C_7 
REMARK    2  A    between atoms: C_7  and  C_8 
REMARK    3  A    between atoms: C_8  and  C_9 
REMARK    4  A    between atoms: C_9  and  N_10 
REMARK    5  A    between atoms: N_10  and  O_11 
REMARK    6  A    between atoms: N_10  and  C_12 
REMARK    7  A    between atoms: C_12  and  O_13 
ROOT
HETATM    1  C   UNK N   1      22.922  19.794   3.277  0.00  0.00     0.021 C 
ENDROOT
BRANCH   1   2
HETATM    2  C   UNK N   1      24.203  20.541   2.952  0.00  0.00     0.040 C 
BRANCH   2   3
HETATM    3  C   UNK N   1      25.408  19.817   3.451  0.00  0.00    -0.058 A 
HETATM    4  C   UNK N   1      25.410  18.419   3.539  0.00  0.00     0.007 A 
HETATM    5  C   UNK N   1      26.556  17.744   3.967  0.00  0.00     0.001 A 
HETATM    6  C   UNK N   1      27.709  18.464   4.294  0.00  0.00     0.000 A 
HETATM    7  C   UNK N   1      27.714  19.859   4.200  0.00  0.00     0.001 A 
HETATM    8  C   UNK N   1      26.564  20.536   3.780  0.00  0.00     0.007 A 
ENDBRANCH   2   3
ENDBRANCH   1   2
BRANCH   1   9
HETATM    9  C   UNK N   1      21.749  20.711   2.975  0.00  0.00     0.123 C 
BRANCH   9  10
HETATM   10  N   UNK N   1      21.436  20.703   1.557  0.00  0.00    -0.176 NA
BRANCH  10  11
HETATM   11  O   UNK N   1      20.808  21.873   1.272  0.00  0.00    -0.311 OA
HETATM   12  H   UNK N   1      19.858  22.054   1.351  0.00  0.00     0.237 HD
ENDBRANCH  10  11
BRANCH  10  13
HETATM   13  C   UNK N   1      20.469  19.640   1.350  0.00  0.00     0.284 C 
BRANCH  13  14
HETATM   14  O   UNK N   1      20.520  19.194   0.028  0.00  0.00    -0.385 OA
HETATM   15  H   UNK N   1      19.727  19.043  -0.510  0.00  0.00     0.211 HD
ENDBRANCH  13  14
ENDBRANCH  10  13
ENDBRANCH   9  10
ENDBRANCH   1   9
TORSDOF 7
ENDMDL
