MODEL 1
REMARK VINA RESULT:      -6.6      0.000      0.000
REMARK  8 active torsions:
REMARK  status: ('A' for Active; 'I' for Inactive)
REMARK    1  A    between atoms: C_2  and  C_7 
REMARK    2  A    between atoms: C_4  and  O_15 
REMARK    3  A    between atoms: C_7  and  C_9 
REMARK    4  A    between atoms: O_15  and  C_16 
REMARK    5  A    between atoms: C_16  and  C_17 
REMARK    6  A    between atoms: C_17  and  N_18 
REMARK    7  A    between atoms: N_18  and  O_19 
REMARK    8  A    between atoms: N_18  and  C_20 
ROOT
HETATM    1  C   UNK N   1      26.126  23.602  -6.145  0.00  0.00     0.015 A 
HETATM    2  C   UNK N   1      27.072  24.009  -5.190  0.00  0.00     0.017 A 
HETATM    3  C   UNK N   1      28.349  23.480  -5.264  0.00  0.00     0.052 A 
HETATM    4  C   UNK N   1      28.735  22.561  -6.245  0.00  0.00     0.069 A 
HETATM    5  C   UNK N   1      27.793  22.155  -7.196  0.00  0.00     0.037 A 
HETATM    6  C   UNK N   1      26.487  22.678  -7.145  0.00  0.00     0.004 A 
ENDROOT
BRANCH   2   7
HETATM    7  C   UNK N   1      26.814  24.979  -4.086  0.00  0.00     0.192 C 
HETATM    8  O   UNK N   1      26.658  24.527  -2.957  0.00  0.00    -0.287 OA
BRANCH   7   9
HETATM    9  C   UNK N   1      26.732  26.450  -4.253  0.00  0.00     0.015 A 
HETATM   10  C   UNK N   1      26.113  27.279  -3.309  0.00  0.00     0.015 A 
HETATM   11  C   UNK N   1      26.061  28.662  -3.511  0.00  0.00     0.001 A 
HETATM   12  C   UNK N   1      26.627  29.224  -4.659  0.00  0.00     0.000 A 
HETATM   13  C   UNK N   1      27.246  28.407  -5.605  0.00  0.00     0.001 A 
HETATM   14  C   UNK N   1      27.297  27.028  -5.402  0.00  0.00     0.015 A 
ENDBRANCH   7   9
ENDBRANCH   2   7
BRANCH   4  15
HETATM   15  O   UNK N   1      30.010  22.087  -6.250  0.00  0.00    -0.349 OA
BRANCH  15  16
HETATM   16  C   UNK N   1      30.796  22.359  -5.148  0.00  0.00     0.198 C 
BRANCH  16  17
HETATM   17  C   UNK N   1      31.018  21.242  -4.157  0.00  0.00     0.185 C 
BRANCH  17  18
HETATM   18  N   UNK N   1      31.402  21.836  -2.885  0.00  0.00    -0.234 N 
BRANCH  18  19
HETATM   19  O   UNK N   1      32.356  21.275  -2.124  0.00  0.00    -0.285 OA
HETATM   20  H   UNK N   1      33.291  21.434  -2.323  0.00  0.00     0.245 HD
ENDBRANCH  18  19
BRANCH  18  21
HETATM   21  C   UNK N   1      30.793  22.965  -2.464  0.00  0.00     0.376 C 
HETATM   22  O   UNK N   1      30.295  23.013  -1.348  0.00  0.00    -0.281 OA
ENDBRANCH  18  21
ENDBRANCH  17  18
ENDBRANCH  16  17
ENDBRANCH  15  16
ENDBRANCH   4  15
TORSDOF 8
ENDMDL
MODEL 2
REMARK VINA RESULT:      -6.4     10.616     13.221
REMARK  8 active torsions:
REMARK  status: ('A' for Active; 'I' for Inactive)
REMARK    1  A    between atoms: C_2  and  C_7 
REMARK    2  A    between atoms: C_4  and  O_15 
REMARK    3  A    between atoms: C_7  and  C_9 
REMARK    4  A    between atoms: O_15  and  C_16 
REMARK    5  A    between atoms: C_16  and  C_17 
REMARK    6  A    between atoms: C_17  and  N_18 
REMARK    7  A    between atoms: N_18  and  O_19 
REMARK    8  A    between atoms: N_18  and  C_20 
ROOT
HETATM    1  C   UNK N   1      28.209  18.622   7.480  0.00  0.00     0.015 A 
HETATM    2  C   UNK N   1      28.989  17.949   6.526  0.00  0.00     0.017 A 
HETATM    3  C   UNK N   1      30.071  17.205   6.969  0.00  0.00     0.052 A 
HETATM    4  C   UNK N   1      30.416  17.096   8.319  0.00  0.00     0.069 A 
HETATM    5  C   UNK N   1      29.639  17.766   9.270  0.00  0.00     0.037 A 
HETATM    6  C   UNK N   1      28.534  18.530   8.848  0.00  0.00     0.004 A 
ENDROOT
BRANCH   2   7
HETATM    7  C   UNK N   1      28.750  17.967   5.053  0.00  0.00     0.192 C 
HETATM    8  O   UNK N   1      29.585  17.431   4.334  0.00  0.00    -0.287 OA
BRANCH   7   9
HETATM    9  C   UNK N   1      27.574  18.587   4.395  0.00  0.00     0.015 A 
HETATM   10  C   UNK N   1      27.545  19.939   4.030  0.00  0.00     0.015 A 
HETATM   11  C   UNK N   1      26.412  20.477   3.411  0.00  0.00     0.001 A 
HETATM   12  C   UNK N   1      25.302  19.668   3.153  0.00  0.00     0.000 A 
HETATM   13  C   UNK N   1      25.321  18.321   3.513  0.00  0.00     0.001 A 
HETATM   14  C   UNK N   1      26.451  17.784   4.130  0.00  0.00     0.015 A 
ENDBRANCH   7   9
ENDBRANCH   2   7
BRANCH   4  15
HETATM   15  O   UNK N   1      31.494  16.345   8.673  0.00  0.00    -0.349 OA
BRANCH  15  16
HETATM   16  C   UNK N   1      32.314  15.889   7.661  0.00  0.00     0.198 C 
BRANCH  16  17
HETATM   17  C   UNK N   1      33.800  16.108   7.814  0.00  0.00     0.185 C 
BRANCH  17  18
HETATM   18  N   UNK N   1      34.105  17.462   7.376  0.00  0.00    -0.234 N 
BRANCH  18  19
HETATM   19  O   UNK N   1      34.298  17.736   6.075  0.00  0.00    -0.285 OA
HETATM   20  H   UNK N   1      33.787  17.264   5.399  0.00  0.00     0.245 HD
ENDBRANCH  18  19
BRANCH  18  21
HETATM   21  C   UNK N   1      34.196  18.454   8.286  0.00  0.00     0.376 C 
HETATM   22  O   UNK N   1      35.222  19.114   8.374  0.00  0.00    -0.281 OA
ENDBRANCH  18  21
ENDBRANCH  17  18
ENDBRANCH  16  17
ENDBRANCH  15  16
ENDBRANCH   4  15
TORSDOF 8
ENDMDL
MODEL 3
REMARK VINA RESULT:      -6.4     19.195     22.896
REMARK  8 active torsions:
REMARK  status: ('A' for Active; 'I' for Inactive)
REMARK    1  A    between atoms: C_2  and  C_7 
REMARK    2  A    between atoms: C_4  and  O_15 
REMARK    3  A    between atoms: C_7  and  C_9 
REMARK    4  A    between atoms: O_15  and  C_16 
REMARK    5  A    between atoms: C_16  and  C_17 
REMARK    6  A    between atoms: C_17  and  N_18 
REMARK    7  A    between atoms: N_18  and  O_19 
REMARK    8  A    between atoms: N_18  and  C_20 
ROOT
HETATM    1  C   UNK N   1      36.696  11.302  13.433  0.00  0.00     0.015 A 
HETATM    2  C   UNK N   1      35.621  12.096  13.864  0.00  0.00     0.017 A 
HETATM    3  C   UNK N   1      35.407  13.310  13.233  0.00  0.00     0.052 A 
HETATM    4  C   UNK N   1      36.212  13.777  12.190  0.00  0.00     0.069 A 
HETATM    5  C   UNK N   1      37.283  12.985  11.760  0.00  0.00     0.037 A 
HETATM    6  C   UNK N   1      37.524  11.747  12.384  0.00  0.00     0.004 A 
ENDROOT
BRANCH   2   7
HETATM    7  C   UNK N   1      34.675  11.738  14.961  0.00  0.00     0.192 C 
HETATM    8  O   UNK N   1      33.609  11.220  14.647  0.00  0.00    -0.287 OA
BRANCH   7   9
HETATM    9  C   UNK N   1      34.930  11.962  16.405  0.00  0.00     0.015 A 
HETATM   10  C   UNK N   1      35.208  10.912  17.289  0.00  0.00     0.015 A 
HETATM   11  C   UNK N   1      35.442  11.174  18.643  0.00  0.00     0.001 A 
HETATM   12  C   UNK N   1      35.398  12.487  19.121  0.00  0.00     0.000 A 
HETATM   13  C   UNK N   1      35.121  13.539  18.248  0.00  0.00     0.001 A 
HETATM   14  C   UNK N   1      34.888  13.277  16.898  0.00  0.00     0.015 A 
ENDBRANCH   7   9
ENDBRANCH   2   7
BRANCH   4  15
HETATM   15  O   UNK N   1      35.936  14.981  11.621  0.00  0.00    -0.349 OA
BRANCH  15  16
HETATM   16  C   UNK N   1      34.634  15.216  11.224  0.00  0.00     0.198 C 
BRANCH  16  17
HETATM   17  C   UNK N   1      34.399  15.564   9.774  0.00  0.00     0.185 C 
BRANCH  17  18
HETATM   18  N   UNK N   1      34.863  16.927   9.556  0.00  0.00    -0.234 N 
BRANCH  18  19
HETATM   19  O   UNK N   1      35.662  17.532  10.450  0.00  0.00    -0.285 OA
HETATM   20  H   UNK N   1      35.533  18.471  10.657  0.00  0.00     0.245 HD
ENDBRANCH  18  19
BRANCH  18  21
HETATM   21  C   UNK N   1      34.485  17.590   8.443  0.00  0.00     0.376 C 
HETATM   22  O   UNK N   1      34.732  18.782   8.326  0.00  0.00    -0.281 OA
ENDBRANCH  18  21
ENDBRANCH  17  18
ENDBRANCH  16  17
ENDBRANCH  15  16
ENDBRANCH   4  15
TORSDOF 8
ENDMDL
MODEL 4
REMARK VINA RESULT:      -6.4     15.550     17.522
REMARK  8 active torsions:
REMARK  status: ('A' for Active; 'I' for Inactive)
REMARK    1  A    between atoms: C_2  and  C_7 
REMARK    2  A    between atoms: C_4  and  O_15 
REMARK    3  A    between atoms: C_7  and  C_9 
REMARK    4  A    between atoms: O_15  and  C_16 
REMARK    5  A    between atoms: C_16  and  C_17 
REMARK    6  A    between atoms: C_17  and  N_18 
REMARK    7  A    between atoms: N_18  and  O_19 
REMARK    8  A    between atoms: N_18  and  C_20 
ROOT
HETATM    1  C   UNK N   1      20.249  15.381   9.039  0.00  0.00     0.015 A 
HETATM    2  C   UNK N   1      21.098  14.560   8.281  0.00  0.00     0.017 A 
HETATM    3  C   UNK N   1      21.681  15.091   7.142  0.00  0.00     0.052 A 
HETATM    4  C   UNK N   1      21.460  16.405   6.718  0.00  0.00     0.069 A 
HETATM    5  C   UNK N   1      20.613  17.224   7.474  0.00  0.00     0.037 A 
HETATM    6  C   UNK N   1      20.008  16.709   8.636  0.00  0.00     0.004 A 
ENDROOT
BRANCH   2   7
HETATM    7  C   UNK N   1      21.432  13.141   8.601  0.00  0.00     0.192 C 
HETATM    8  O   UNK N   1      21.022  12.274   7.838  0.00  0.00    -0.287 OA
BRANCH   7   9
HETATM    9  C   UNK N   1      22.224  12.703   9.776  0.00  0.00     0.015 A 
HETATM   10  C   UNK N   1      21.627  12.341  10.990  0.00  0.00     0.015 A 
HETATM   11  C   UNK N   1      22.416  11.934  12.070  0.00  0.00     0.001 A 
HETATM   12  C   UNK N   1      23.807  11.886  11.943  0.00  0.00     0.000 A 
HETATM   13  C   UNK N   1      24.411  12.243  10.738  0.00  0.00     0.001 A 
HETATM   14  C   UNK N   1      23.623  12.649   9.661  0.00  0.00     0.015 A 
ENDBRANCH   7   9
ENDBRANCH   2   7
BRANCH   4  15
HETATM   15  O   UNK N   1      22.069  16.852   5.588  0.00  0.00    -0.349 OA
BRANCH  15  16
HETATM   16  C   UNK N   1      21.871  18.172   5.235  0.00  0.00     0.198 C 
BRANCH  16  17
HETATM   17  C   UNK N   1      22.382  18.618   3.886  0.00  0.00     0.185 C 
BRANCH  17  18
HETATM   18  N   UNK N   1      21.671  19.832   3.512  0.00  0.00    -0.234 N 
BRANCH  18  19
HETATM   19  O   UNK N   1      20.499  20.147   4.087  0.00  0.00    -0.285 OA
HETATM   20  H   UNK N   1      20.231  19.712   4.911  0.00  0.00     0.245 HD
ENDBRANCH  18  19
BRANCH  18  21
HETATM   21  C   UNK N   1      22.195  20.652   2.577  0.00  0.00     0.376 C 
HETATM   22  O   UNK N   1      23.234  21.257   2.804  0.00  0.00    -0.281 OA
ENDBRANCH  18  21
ENDBRANCH  17  18
ENDBRANCH  16  17
ENDBRANCH  15  16
ENDBRANCH   4  15
TORSDOF 8
ENDMDL
MODEL 5
REMARK VINA RESULT:      -6.4     12.895     15.991
REMARK  8 active torsions:
REMARK  status: ('A' for Active; 'I' for Inactive)
REMARK    1  A    between atoms: C_2  and  C_7 
REMARK    2  A    between atoms: C_4  and  O_15 
REMARK    3  A    between atoms: C_7  and  C_9 
REMARK    4  A    between atoms: O_15  and  C_16 
REMARK    5  A    between atoms: C_16  and  C_17 
REMARK    6  A    between atoms: C_17  and  N_18 
REMARK    7  A    between atoms: N_18  and  O_19 
REMARK    8  A    between atoms: N_18  and  C_20 
ROOT
HETATM    1  C   UNK N   1      33.375  17.490   5.318  0.00  0.00     0.015 A 
HETATM    2  C   UNK N   1      33.090  17.479   6.693  0.00  0.00     0.017 A 
HETATM    3  C   UNK N   1      31.772  17.323   7.089  0.00  0.00     0.052 A 
HETATM    4  C   UNK N   1      30.718  17.179   6.181  0.00  0.00     0.069 A 
HETATM    5  C   UNK N   1      31.002  17.191   4.811  0.00  0.00     0.037 A 
HETATM    6  C   UNK N   1      32.334  17.347   4.381  0.00  0.00     0.004 A 
ENDROOT
BRANCH   2   7
HETATM    7  C   UNK N   1      34.101  17.621   7.781  0.00  0.00     0.192 C 
HETATM    8  O   UNK N   1      34.831  18.606   7.754  0.00  0.00    -0.287 OA
BRANCH   7   9
HETATM    9  C   UNK N   1      34.289  16.658   8.893  0.00  0.00     0.015 A 
HETATM   10  C   UNK N   1      33.737  15.371   8.872  0.00  0.00     0.015 A 
HETATM   11  C   UNK N   1      33.942  14.499   9.946  0.00  0.00     0.001 A 
HETATM   12  C   UNK N   1      34.701  14.907  11.046  0.00  0.00     0.000 A 
HETATM   13  C   UNK N   1      35.256  16.186  11.076  0.00  0.00     0.001 A 
HETATM   14  C   UNK N   1      35.051  17.057  10.005  0.00  0.00     0.015 A 
ENDBRANCH   7   9
ENDBRANCH   2   7
BRANCH   4  15
HETATM   15  O   UNK N   1      29.450  17.031   6.650  0.00  0.00    -0.349 OA
BRANCH  15  16
HETATM   16  C   UNK N   1      28.615  18.129   6.590  0.00  0.00     0.198 C 
BRANCH  16  17
HETATM   17  C   UNK N   1      28.338  18.867   7.877  0.00  0.00     0.185 C 
BRANCH  17  18
HETATM   18  N   UNK N   1      28.304  17.893   8.958  0.00  0.00    -0.234 N 
BRANCH  18  19
HETATM   19  O   UNK N   1      27.324  16.978   9.028  0.00  0.00    -0.285 OA
HETATM   20  H   UNK N   1      26.893  16.791   9.876  0.00  0.00     0.245 HD
ENDBRANCH  18  19
BRANCH  18  21
HETATM   21  C   UNK N   1      29.268  17.909   9.903  0.00  0.00     0.376 C 
HETATM   22  O   UNK N   1      29.754  18.972  10.265  0.00  0.00    -0.281 OA
ENDBRANCH  18  21
ENDBRANCH  17  18
ENDBRANCH  16  17
ENDBRANCH  15  16
ENDBRANCH   4  15
TORSDOF 8
ENDMDL
MODEL 6
REMARK VINA RESULT:      -6.3     19.752     23.329
REMARK  8 active torsions:
REMARK  status: ('A' for Active; 'I' for Inactive)
REMARK    1  A    between atoms: C_2  and  C_7 
REMARK    2  A    between atoms: C_4  and  O_15 
REMARK    3  A    between atoms: C_7  and  C_9 
REMARK    4  A    between atoms: O_15  and  C_16 
REMARK    5  A    between atoms: C_16  and  C_17 
REMARK    6  A    between atoms: C_17  and  N_18 
REMARK    7  A    between atoms: N_18  and  O_19 
REMARK    8  A    between atoms: N_18  and  C_20 
ROOT
HETATM    1  C   UNK N   1      34.232  10.948  14.479  0.00  0.00     0.015 A 
HETATM    2  C   UNK N   1      35.036  12.087  14.319  0.00  0.00     0.017 A 
HETATM    3  C   UNK N   1      35.346  12.497  13.033  0.00  0.00     0.052 A 
HETATM    4  C   UNK N   1      34.893  11.827  11.893  0.00  0.00     0.069 A 
HETATM    5  C   UNK N   1      34.091  10.692  12.052  0.00  0.00     0.037 A 
HETATM    6  C   UNK N   1      33.762  10.253  13.348  0.00  0.00     0.004 A 
ENDROOT
BRANCH   2   7
HETATM    7  C   UNK N   1      35.595  12.907  15.434  0.00  0.00     0.192 C 
HETATM    8  O   UNK N   1      36.162  13.954  15.141  0.00  0.00    -0.287 OA
BRANCH   7   9
HETATM    9  C   UNK N   1      35.515  12.549  16.871  0.00  0.00     0.015 A 
HETATM   10  C   UNK N   1      35.766  11.251  17.335  0.00  0.00     0.015 A 
HETATM   11  C   UNK N   1      35.678  10.962  18.700  0.00  0.00     0.001 A 
HETATM   12  C   UNK N   1      35.339  11.968  19.610  0.00  0.00     0.000 A 
HETATM   13  C   UNK N   1      35.088  13.263  19.158  0.00  0.00     0.001 A 
HETATM   14  C   UNK N   1      35.176  13.551  17.796  0.00  0.00     0.015 A 
ENDBRANCH   7   9
ENDBRANCH   2   7
BRANCH   4  15
HETATM   15  O   UNK N   1      35.241  12.294  10.663  0.00  0.00    -0.349 OA
BRANCH  15  16
HETATM   16  C   UNK N   1      35.961  13.470  10.607  0.00  0.00     0.198 C 
BRANCH  16  17
HETATM   17  C   UNK N   1      35.530  14.504   9.595  0.00  0.00     0.185 C 
BRANCH  17  18
HETATM   18  N   UNK N   1      34.616  15.427  10.252  0.00  0.00    -0.234 N 
BRANCH  18  19
HETATM   19  O   UNK N   1      33.737  14.989  11.168  0.00  0.00    -0.285 OA
HETATM   20  H   UNK N   1      33.845  14.109  11.561  0.00  0.00     0.245 HD
ENDBRANCH  18  19
BRANCH  18  21
HETATM   21  C   UNK N   1      34.652  16.740   9.938  0.00  0.00     0.376 C 
HETATM   22  O   UNK N   1      35.586  17.435  10.314  0.00  0.00    -0.281 OA
ENDBRANCH  18  21
ENDBRANCH  17  18
ENDBRANCH  16  17
ENDBRANCH  15  16
ENDBRANCH   4  15
TORSDOF 8
ENDMDL
MODEL 7
REMARK VINA RESULT:      -6.3     11.384     14.081
REMARK  8 active torsions:
REMARK  status: ('A' for Active; 'I' for Inactive)
REMARK    1  A    between atoms: C_2  and  C_7 
REMARK    2  A    between atoms: C_4  and  O_15 
REMARK    3  A    between atoms: C_7  and  C_9 
REMARK    4  A    between atoms: O_15  and  C_16 
REMARK    5  A    between atoms: C_16  and  C_17 
REMARK    6  A    between atoms: C_17  and  N_18 
REMARK    7  A    between atoms: N_18  and  O_19 
REMARK    8  A    between atoms: N_18  and  C_20 
ROOT
HETATM    1  C   UNK N   1      31.558  17.413   4.924  0.00  0.00     0.015 A 
HETATM    2  C   UNK N   1      30.699  17.338   6.032  0.00  0.00     0.017 A 
HETATM    3  C   UNK N   1      31.262  17.254   7.295  0.00  0.00     0.052 A 
HETATM    4  C   UNK N   1      32.643  17.240   7.512  0.00  0.00     0.069 A 
HETATM    5  C   UNK N   1      33.499  17.314   6.408  0.00  0.00     0.037 A 
HETATM    6  C   UNK N   1      32.954  17.401   5.112  0.00  0.00     0.004 A 
ENDROOT
BRANCH   2   7
HETATM    7  C   UNK N   1      29.208  17.342   5.964  0.00  0.00     0.192 C 
HETATM    8  O   UNK N   1      28.629  16.275   6.129  0.00  0.00    -0.287 OA
BRANCH   7   9
HETATM    9  C   UNK N   1      28.376  18.543   5.712  0.00  0.00     0.015 A 
HETATM   10  C   UNK N   1      27.988  18.930   4.424  0.00  0.00     0.015 A 
HETATM   11  C   UNK N   1      27.202  20.072   4.237  0.00  0.00     0.001 A 
HETATM   12  C   UNK N   1      26.799  20.834   5.337  0.00  0.00     0.000 A 
HETATM   13  C   UNK N   1      27.180  20.457   6.625  0.00  0.00     0.001 A 
HETATM   14  C   UNK N   1      27.964  19.318   6.811  0.00  0.00     0.015 A 
ENDBRANCH   7   9
ENDBRANCH   2   7
BRANCH   4  15
HETATM   15  O   UNK N   1      33.117  17.154   8.783  0.00  0.00    -0.349 OA
BRANCH  15  16
HETATM   16  C   UNK N   1      34.425  16.746   8.951  0.00  0.00     0.198 C 
BRANCH  16  17
HETATM   17  C   UNK N   1      34.680  15.267   9.115  0.00  0.00     0.185 C 
BRANCH  17  18
HETATM   18  N   UNK N   1      33.483  14.663   9.682  0.00  0.00    -0.234 N 
BRANCH  18  19
HETATM   19  O   UNK N   1      32.984  15.096  10.852  0.00  0.00    -0.285 OA
HETATM   20  H   UNK N   1      32.352  15.831  10.867  0.00  0.00     0.245 HD
ENDBRANCH  18  19
BRANCH  18  21
HETATM   21  C   UNK N   1      32.868  13.656   9.028  0.00  0.00     0.376 C 
HETATM   22  O   UNK N   1      32.337  13.863   7.945  0.00  0.00    -0.281 OA
ENDBRANCH  18  21
ENDBRANCH  17  18
ENDBRANCH  16  17
ENDBRANCH  15  16
ENDBRANCH   4  15
TORSDOF 8
ENDMDL
MODEL 8
REMARK VINA RESULT:      -6.2     11.862     14.478
REMARK  8 active torsions:
REMARK  status: ('A' for Active; 'I' for Inactive)
REMARK    1  A    between atoms: C_2  and  C_7 
REMARK    2  A    between atoms: C_4  and  O_15 
REMARK    3  A    between atoms: C_7  and  C_9 
REMARK    4  A    between atoms: O_15  and  C_16 
REMARK    5  A    between atoms: C_16  and  C_17 
REMARK    6  A    between atoms: C_17  and  N_18 
REMARK    7  A    between atoms: N_18  and  O_19 
REMARK    8  A    between atoms: N_18  and  C_20 
ROOT
HETATM    1  C   UNK N   1      31.517  17.455   4.980  0.00  0.00     0.015 A 
HETATM    2  C   UNK N   1      30.674  17.288   6.091  0.00  0.00     0.017 A 
HETATM    3  C   UNK N   1      31.255  17.072   7.330  0.00  0.00     0.052 A 
HETATM    4  C   UNK N   1      32.638  17.013   7.520  0.00  0.00     0.069 A 
HETATM    5  C   UNK N   1      33.479  17.179   6.413  0.00  0.00     0.037 A 
HETATM    6  C   UNK N   1      32.915  17.400   5.142  0.00  0.00     0.004 A 
ENDROOT
BRANCH   2   7
HETATM    7  C   UNK N   1      29.183  17.325   6.050  0.00  0.00     0.192 C 
HETATM    8  O   UNK N   1      28.582  16.275   6.248  0.00  0.00    -0.287 OA
BRANCH   7   9
HETATM    9  C   UNK N   1      28.373  18.539   5.786  0.00  0.00     0.015 A 
HETATM   10  C   UNK N   1      28.033  18.947   4.490  0.00  0.00     0.015 A 
HETATM   11  C   UNK N   1      27.267  20.100   4.293  0.00  0.00     0.001 A 
HETATM   12  C   UNK N   1      26.836  20.853   5.389  0.00  0.00     0.000 A 
HETATM   13  C   UNK N   1      27.170  20.455   6.683  0.00  0.00     0.001 A 
HETATM   14  C   UNK N   1      27.934  19.305   6.880  0.00  0.00     0.015 A 
ENDBRANCH   7   9
ENDBRANCH   2   7
BRANCH   4  15
HETATM   15  O   UNK N   1      33.131  16.797   8.769  0.00  0.00    -0.349 OA
BRANCH  15  16
HETATM   16  C   UNK N   1      33.369  15.490   9.144  0.00  0.00     0.198 C 
BRANCH  16  17
HETATM   17  C   UNK N   1      34.777  15.125   9.549  0.00  0.00     0.185 C 
BRANCH  17  18
HETATM   18  N   UNK N   1      35.073  15.794  10.807  0.00  0.00    -0.234 N 
BRANCH  18  19
HETATM   19  O   UNK N   1      35.032  17.134  10.899  0.00  0.00    -0.285 OA
HETATM   20  H   UNK N   1      34.198  17.580  11.111  0.00  0.00     0.245 HD
ENDBRANCH  18  19
BRANCH  18  21
HETATM   21  C   UNK N   1      35.392  15.061  11.895  0.00  0.00     0.376 C 
HETATM   22  O   UNK N   1      34.665  14.145  12.253  0.00  0.00    -0.281 OA
ENDBRANCH  18  21
ENDBRANCH  17  18
ENDBRANCH  16  17
ENDBRANCH  15  16
ENDBRANCH   4  15
TORSDOF 8
ENDMDL
MODEL 9
REMARK VINA RESULT:      -6.2      2.758      6.944
REMARK  8 active torsions:
REMARK  status: ('A' for Active; 'I' for Inactive)
REMARK    1  A    between atoms: C_2  and  C_7 
REMARK    2  A    between atoms: C_4  and  O_15 
REMARK    3  A    between atoms: C_7  and  C_9 
REMARK    4  A    between atoms: O_15  and  C_16 
REMARK    5  A    between atoms: C_16  and  C_17 
REMARK    6  A    between atoms: C_17  and  N_18 
REMARK    7  A    between atoms: N_18  and  O_19 
REMARK    8  A    between atoms: N_18  and  C_20 
ROOT
HETATM    1  C   UNK N   1      30.276  25.161  -3.751  0.00  0.00     0.015 A 
HETATM    2  C   UNK N   1      29.734  23.993  -3.190  0.00  0.00     0.017 A 
HETATM    3  C   UNK N   1      28.363  23.808  -3.255  0.00  0.00     0.052 A 
HETATM    4  C   UNK N   1      27.499  24.731  -3.853  0.00  0.00     0.069 A 
HETATM    5  C   UNK N   1      28.039  25.895  -4.412  0.00  0.00     0.037 A 
HETATM    6  C   UNK N   1      29.430  26.108  -4.360  0.00  0.00     0.004 A 
ENDROOT
BRANCH   2   7
HETATM    7  C   UNK N   1      30.522  22.918  -2.519  0.00  0.00     0.192 C 
HETATM    8  O   UNK N   1      30.545  22.910  -1.294  0.00  0.00    -0.287 OA
BRANCH   7   9
HETATM    9  C   UNK N   1      31.279  21.857  -3.227  0.00  0.00     0.015 A 
HETATM   10  C   UNK N   1      30.710  21.081  -4.244  0.00  0.00     0.015 A 
HETATM   11  C   UNK N   1      31.465  20.092  -4.882  0.00  0.00     0.001 A 
HETATM   12  C   UNK N   1      32.794  19.872  -4.507  0.00  0.00     0.000 A 
HETATM   13  C   UNK N   1      33.369  20.640  -3.495  0.00  0.00     0.001 A 
HETATM   14  C   UNK N   1      32.616  21.626  -2.859  0.00  0.00     0.015 A 
ENDBRANCH   7   9
ENDBRANCH   2   7
BRANCH   4  15
HETATM   15  O   UNK N   1      26.164  24.476  -3.876  0.00  0.00    -0.349 OA
BRANCH  15  16
HETATM   16  C   UNK N   1      25.533  24.485  -5.105  0.00  0.00     0.198 C 
BRANCH  16  17
HETATM   17  C   UNK N   1      25.906  23.402  -6.089  0.00  0.00     0.185 C 
BRANCH  17  18
HETATM   18  N   UNK N   1      26.039  24.012  -7.403  0.00  0.00    -0.234 N 
BRANCH  18  19
HETATM   19  O   UNK N   1      26.853  25.064  -7.594  0.00  0.00    -0.285 OA
HETATM   20  H   UNK N   1      27.325  25.165  -8.435  0.00  0.00     0.245 HD
ENDBRANCH  18  19
BRANCH  18  21
HETATM   21  C   UNK N   1      25.336  23.517  -8.444  0.00  0.00     0.376 C 
HETATM   22  O   UNK N   1      24.405  22.749  -8.245  0.00  0.00    -0.281 OA
ENDBRANCH  18  21
ENDBRANCH  17  18
ENDBRANCH  16  17
ENDBRANCH  15  16
ENDBRANCH   4  15
TORSDOF 8
ENDMDL
