REMARK  8 active torsions:
REMARK  status: ('A' for Active; 'I' for Inactive)
REMARK    1  A    between atoms: C_2  and  C_7 
REMARK    2  A    between atoms: C_4  and  O_15 
REMARK    3  A    between atoms: C_7  and  C_9 
REMARK    4  A    between atoms: O_15  and  C_16 
REMARK    5  A    between atoms: C_16  and  C_17 
REMARK    6  A    between atoms: C_17  and  N_18 
REMARK    7  A    between atoms: N_18  and  O_19 
REMARK    8  A    between atoms: N_18  and  C_20 
ROOT
HETATM    1  C   UNK N   1      -2.256  -0.890   0.000  0.00  0.00     0.015 A 
HETATM    2  C   UNK N   1      -1.063  -0.150   0.000  0.00  0.00     0.017 A 
HETATM    3  C   UNK N   1       0.138  -0.840  -0.000  0.00  0.00     0.052 A 
HETATM    4  C   UNK N   1       0.212  -2.236   0.000  0.00  0.00     0.069 A 
HETATM    5  C   UNK N   1      -0.977  -2.974   0.000  0.00  0.00     0.037 A 
HETATM    6  C   UNK N   1      -2.212  -2.298   0.000  0.00  0.00     0.004 A 
ENDROOT
BRANCH   2   7
HETATM    7  C   UNK N   1      -0.977   1.340  -0.000  0.00  0.00     0.192 C 
HETATM    8  O   UNK N   1       0.140   1.845  -0.000  0.00  0.00    -0.287 OA
BRANCH   7   9
HETATM    9  C   UNK N   1      -2.144   2.255   0.000  0.00  0.00     0.015 A 
HETATM   10  C   UNK N   1      -3.464   1.787   0.000  0.00  0.00     0.015 A 
HETATM   11  C   UNK N   1      -4.532   2.690   0.000  0.00  0.00     0.001 A 
HETATM   12  C   UNK N   1      -4.287   4.066  -0.000  0.00  0.00     0.000 A 
HETATM   13  C   UNK N   1      -2.976   4.542  -0.000  0.00  0.00     0.001 A 
HETATM   14  C   UNK N   1      -1.911   3.641  -0.000  0.00  0.00     0.015 A 
ENDBRANCH   7   9
ENDBRANCH   2   7
BRANCH   4  15
HETATM   15  O   UNK N   1       1.431  -2.839  -0.000  0.00  0.00    -0.349 OA
BRANCH  15  16
HETATM   16  C   UNK N   1       2.546  -2.025  -0.000  0.00  0.00     0.198 C 
BRANCH  16  17
HETATM   17  C   UNK N   1       3.899  -2.695   0.000  0.00  0.00     0.185 C 
BRANCH  17  18
HETATM   18  N   UNK N   1       4.918  -1.656   0.000  0.00  0.00    -0.234 N 
BRANCH  18  19
HETATM   19  O   UNK N   1       4.575  -0.357  -0.000  0.00  0.00    -0.285 OA
HETATM   20  H   UNK N   1       5.263   0.326  -0.000  0.00  0.00     0.245 HD
ENDBRANCH  18  19
BRANCH  18  21
HETATM   21  C   UNK N   1       6.223  -2.000   0.000  0.00  0.00     0.376 C 
HETATM   22  O   UNK N   1       7.086  -1.133   0.000  0.00  0.00    -0.281 OA
ENDBRANCH  18  21
ENDBRANCH  17  18
ENDBRANCH  16  17
ENDBRANCH  15  16
ENDBRANCH   4  15
TORSDOF 8
