REMARK  6 active torsions:
REMARK  status: ('A' for Active; 'I' for Inactive)
REMARK    1  A    between atoms: C_4  and  C_9 
REMARK    2  A    between atoms: C_9  and  C_10 
REMARK    3  A    between atoms: C_10  and  C_11 
REMARK    4  A    between atoms: C_11  and  N_12 
REMARK    5  A    between atoms: N_12  and  O_13 
REMARK    6  A    between atoms: N_12  and  C_14 
ROOT
HETATM    1  C   UNK N   1      -2.134   1.498  -0.000  0.00  0.00     0.005 A 
HETATM    2  N   UNK N   1      -1.067   0.661  -0.000  0.00  0.00    -0.363 N 
ATOM      3  HN  UNK N   1      -0.127   1.058  -0.000  1.00  0.00     0.165 HD
HETATM    4  C   UNK N   1      -1.209  -0.697   0.000  0.00  0.00     0.009 A 
HETATM    5  C   UNK N   1      -2.490  -1.256   0.000  0.00  0.00     0.025 A 
HETATM    6  C   UNK N   1      -3.604  -0.410   0.000  0.00  0.00     0.004 A 
HETATM    7  C   UNK N   1      -3.428   0.976   0.000  0.00  0.00     0.024 A 
HETATM    8  C   UNK N   1      -1.917   2.968  -0.000  0.00  0.00     0.068 C 
ENDROOT
BRANCH   4   9
HETATM    9  C   UNK N   1       0.001  -1.587  -0.000  0.00  0.00     0.058 C 
BRANCH   9  10
HETATM   10  C   UNK N   1       1.255  -0.730  -0.000  0.00  0.00     0.028 C 
BRANCH  10  11
HETATM   11  C   UNK N   1       2.551  -1.515  -0.000  0.00  0.00     0.159 C 
BRANCH  11  12
HETATM   12  N   UNK N   1       3.679  -0.605   0.000  0.00  0.00    -0.236 N 
BRANCH  12  13
HETATM   13  O   UNK N   1       3.488   0.724  -0.000  0.00  0.00    -0.285 OA
HETATM   14  H   UNK N   1       4.251   1.324  -0.000  0.00  0.00     0.245 HD
ENDBRANCH  12  13
BRANCH  12  15
HETATM   15  C   UNK N   1       4.933  -1.104   0.000  0.00  0.00     0.376 C 
HETATM   16  O   UNK N   1       5.897  -0.352   0.000  0.00  0.00    -0.281 OA
ENDBRANCH  12  15
ENDBRANCH  11  12
ENDBRANCH  10  11
ENDBRANCH   9  10
ENDBRANCH   4   9
TORSDOF 6
