MODEL 1
REMARK VINA RESULT:      -5.2      0.000      0.000
REMARK  6 active torsions:
REMARK  status: ('A' for Active; 'I' for Inactive)
REMARK    1  A    between atoms: C_4  and  C_9 
REMARK    2  A    between atoms: C_9  and  C_10 
REMARK    3  A    between atoms: C_10  and  C_11 
REMARK    4  A    between atoms: C_11  and  N_12 
REMARK    5  A    between atoms: N_12  and  O_13 
REMARK    6  A    between atoms: N_12  and  C_14 
ROOT
HETATM    1  C   UNK N   1      27.059  18.870   5.181  0.00  0.00     0.005 A 
HETATM    2  N   UNK N   1      25.759  18.536   5.376  0.00  0.00    -0.363 N 
ATOM      3  HN  UNK N   1      25.525  17.867   6.110  1.00  0.00     0.165 HD
HETATM    4  C   UNK N   1      24.752  19.068   4.623  0.00  0.00     0.009 A 
HETATM    5  C   UNK N   1      25.057  19.986   3.614  0.00  0.00     0.025 A 
HETATM    6  C   UNK N   1      26.392  20.343   3.397  0.00  0.00     0.004 A 
HETATM    7  C   UNK N   1      27.401  19.783   4.183  0.00  0.00     0.024 A 
HETATM    8  C   UNK N   1      28.113  18.258   6.032  0.00  0.00     0.068 C 
ENDROOT
BRANCH   4   9
HETATM    9  C   UNK N   1      23.326  18.670   4.874  0.00  0.00     0.058 C 
BRANCH   9  10
HETATM   10  C   UNK N   1      22.557  18.705   3.564  0.00  0.00     0.028 C 
BRANCH  10  11
HETATM   11  C   UNK N   1      21.319  19.579   3.587  0.00  0.00     0.159 C 
BRANCH  11  12
HETATM   12  N   UNK N   1      21.423  20.608   2.571  0.00  0.00    -0.236 N 
BRANCH  12  13
HETATM   13  O   UNK N   1      22.125  21.729   2.800  0.00  0.00    -0.285 OA
HETATM   14  H   UNK N   1      22.390  21.959   3.705  0.00  0.00     0.245 HD
ENDBRANCH  12  13
BRANCH  12  15
HETATM   15  C   UNK N   1      20.804  20.432   1.385  0.00  0.00     0.376 C 
HETATM   16  O   UNK N   1      21.358  20.760   0.345  0.00  0.00    -0.281 OA
ENDBRANCH  12  15
ENDBRANCH  11  12
ENDBRANCH  10  11
ENDBRANCH   9  10
ENDBRANCH   4   9
TORSDOF 6
ENDMDL
MODEL 2
REMARK VINA RESULT:      -5.1      7.557      8.710
REMARK  6 active torsions:
REMARK  status: ('A' for Active; 'I' for Inactive)
REMARK    1  A    between atoms: C_4  and  C_9 
REMARK    2  A    between atoms: C_9  and  C_10 
REMARK    3  A    between atoms: C_10  and  C_11 
REMARK    4  A    between atoms: C_11  and  N_12 
REMARK    5  A    between atoms: N_12  and  O_13 
REMARK    6  A    between atoms: N_12  and  C_14 
ROOT
HETATM    1  C   UNK N   1      23.497  12.665  10.377  0.00  0.00     0.005 A 
HETATM    2  N   UNK N   1      22.799  13.410   9.484  0.00  0.00    -0.363 N 
ATOM      3  HN  UNK N   1      23.306  13.906   8.751  1.00  0.00     0.165 HD
HETATM    4  C   UNK N   1      21.439  13.518   9.534  0.00  0.00     0.009 A 
HETATM    5  C   UNK N   1      20.730  12.844  10.533  0.00  0.00     0.025 A 
HETATM    6  C   UNK N   1      21.431  12.070  11.464  0.00  0.00     0.004 A 
HETATM    7  C   UNK N   1      22.823  11.978  11.388  0.00  0.00     0.024 A 
HETATM    8  C   UNK N   1      24.977  12.585  10.273  0.00  0.00     0.068 C 
ENDROOT
BRANCH   4   9
HETATM    9  C   UNK N   1      20.706  14.354   8.524  0.00  0.00     0.058 C 
BRANCH   9  10
HETATM   10  C   UNK N   1      20.459  15.737   9.101  0.00  0.00     0.028 C 
BRANCH  10  11
HETATM   11  C   UNK N   1      20.189  16.810   8.066  0.00  0.00     0.159 C 
BRANCH  11  12
HETATM   12  N   UNK N   1      19.543  17.947   8.690  0.00  0.00    -0.236 N 
BRANCH  12  13
HETATM   13  O   UNK N   1      20.104  19.166   8.643  0.00  0.00    -0.285 OA
HETATM   14  H   UNK N   1      20.263  19.594   7.786  0.00  0.00     0.245 HD
ENDBRANCH  12  13
BRANCH  12  15
HETATM   15  C   UNK N   1      18.365  17.773   9.325  0.00  0.00     0.376 C 
HETATM   16  O   UNK N   1      18.109  18.410  10.337  0.00  0.00    -0.281 OA
ENDBRANCH  12  15
ENDBRANCH  11  12
ENDBRANCH  10  11
ENDBRANCH   9  10
ENDBRANCH   4   9
TORSDOF 6
ENDMDL
MODEL 3
REMARK VINA RESULT:      -5.0      4.488      6.160
REMARK  6 active torsions:
REMARK  status: ('A' for Active; 'I' for Inactive)
REMARK    1  A    between atoms: C_4  and  C_9 
REMARK    2  A    between atoms: C_9  and  C_10 
REMARK    3  A    between atoms: C_10  and  C_11 
REMARK    4  A    between atoms: C_11  and  N_12 
REMARK    5  A    between atoms: N_12  and  O_13 
REMARK    6  A    between atoms: N_12  and  C_14 
ROOT
HETATM    1  C   UNK N   1      19.579  14.300   1.192  0.00  0.00     0.005 A 
HETATM    2  N   UNK N   1      19.264  15.360   1.977  0.00  0.00    -0.363 N 
ATOM      3  HN  UNK N   1      18.281  15.571   2.151  1.00  0.00     0.165 HD
HETATM    4  C   UNK N   1      20.219  16.155   2.542  0.00  0.00     0.009 A 
HETATM    5  C   UNK N   1      21.570  15.879   2.313  0.00  0.00     0.025 A 
HETATM    6  C   UNK N   1      21.916  14.790   1.506  0.00  0.00     0.004 A 
HETATM    7  C   UNK N   1      20.917  13.994   0.941  0.00  0.00     0.024 A 
HETATM    8  C   UNK N   1      18.496  13.471   0.604  0.00  0.00     0.068 C 
ENDROOT
BRANCH   4   9
HETATM    9  C   UNK N   1      19.824  17.320   3.405  0.00  0.00     0.058 C 
BRANCH   9  10
HETATM   10  C   UNK N   1      19.925  18.601   2.596  0.00  0.00     0.028 C 
BRANCH  10  11
HETATM   11  C   UNK N   1      20.594  19.751   3.323  0.00  0.00     0.159 C 
BRANCH  11  12
HETATM   12  N   UNK N   1      21.063  20.733   2.366  0.00  0.00    -0.236 N 
BRANCH  12  13
HETATM   13  O   UNK N   1      21.994  21.636   2.711  0.00  0.00    -0.285 OA
HETATM   14  H   UNK N   1      22.035  22.490   2.251  0.00  0.00     0.245 HD
ENDBRANCH  12  13
BRANCH  12  15
HETATM   15  C   UNK N   1      20.555  20.735   1.115  0.00  0.00     0.376 C 
HETATM   16  O   UNK N   1      21.300  20.688   0.146  0.00  0.00    -0.281 OA
ENDBRANCH  12  15
ENDBRANCH  11  12
ENDBRANCH  10  11
ENDBRANCH   9  10
ENDBRANCH   4   9
TORSDOF 6
ENDMDL
MODEL 4
REMARK VINA RESULT:      -4.9     13.808     16.355
REMARK  6 active torsions:
REMARK  status: ('A' for Active; 'I' for Inactive)
REMARK    1  A    between atoms: C_4  and  C_9 
REMARK    2  A    between atoms: C_9  and  C_10 
REMARK    3  A    between atoms: C_10  and  C_11 
REMARK    4  A    between atoms: C_11  and  N_12 
REMARK    5  A    between atoms: N_12  and  O_13 
REMARK    6  A    between atoms: N_12  and  C_14 
ROOT
HETATM    1  C   UNK N   1      36.713  14.469  15.674  0.00  0.00     0.005 A 
HETATM    2  N   UNK N   1      36.895  14.046  14.398  0.00  0.00    -0.363 N 
ATOM      3  HN  UNK N   1      37.532  14.563  13.792  1.00  0.00     0.165 HD
HETATM    4  C   UNK N   1      36.254  12.949  13.899  0.00  0.00     0.009 A 
HETATM    5  C   UNK N   1      35.378  12.231  14.717  0.00  0.00     0.025 A 
HETATM    6  C   UNK N   1      35.176  12.651  16.036  0.00  0.00     0.004 A 
HETATM    7  C   UNK N   1      35.847  13.777  16.520  0.00  0.00     0.024 A 
HETATM    8  C   UNK N   1      37.440  15.670  16.162  0.00  0.00     0.068 C 
ENDROOT
BRANCH   4   9
HETATM    9  C   UNK N   1      36.485  12.515  12.479  0.00  0.00     0.058 C 
BRANCH   9  10
HETATM   10  C   UNK N   1      35.273  12.881  11.639  0.00  0.00     0.028 C 
BRANCH  10  11
HETATM   11  C   UNK N   1      35.535  13.944  10.591  0.00  0.00     0.159 C 
BRANCH  11  12
HETATM   12  N   UNK N   1      34.710  15.106  10.852  0.00  0.00    -0.236 N 
BRANCH  12  13
HETATM   13  O   UNK N   1      33.434  14.967  11.246  0.00  0.00    -0.285 OA
HETATM   14  H   UNK N   1      32.908  14.214  10.933  0.00  0.00     0.245 HD
ENDBRANCH  12  13
BRANCH  12  15
HETATM   15  C   UNK N   1      35.234  16.340  10.696  0.00  0.00     0.376 C 
HETATM   16  O   UNK N   1      36.443  16.511  10.770  0.00  0.00    -0.281 OA
ENDBRANCH  12  15
ENDBRANCH  11  12
ENDBRANCH  10  11
ENDBRANCH   9  10
ENDBRANCH   4   9
TORSDOF 6
ENDMDL
MODEL 5
REMARK VINA RESULT:      -4.9     14.325     16.825
REMARK  6 active torsions:
REMARK  status: ('A' for Active; 'I' for Inactive)
REMARK    1  A    between atoms: C_4  and  C_9 
REMARK    2  A    between atoms: C_9  and  C_10 
REMARK    3  A    between atoms: C_10  and  C_11 
REMARK    4  A    between atoms: C_11  and  N_12 
REMARK    5  A    between atoms: N_12  and  O_13 
REMARK    6  A    between atoms: N_12  and  C_14 
ROOT
HETATM    1  C   UNK N   1      35.122  12.868  17.269  0.00  0.00     0.005 A 
HETATM    2  N   UNK N   1      34.906  12.969  15.934  0.00  0.00    -0.363 N 
ATOM      3  HN  UNK N   1      34.842  13.895  15.512  1.00  0.00     0.165 HD
HETATM    4  C   UNK N   1      34.769  11.870  15.135  0.00  0.00     0.009 A 
HETATM    5  C   UNK N   1      34.854  10.593  15.699  0.00  0.00     0.025 A 
HETATM    6  C   UNK N   1      35.077  10.468  17.074  0.00  0.00     0.004 A 
HETATM    7  C   UNK N   1      35.213  11.610  17.866  0.00  0.00     0.024 A 
HETATM    8  C   UNK N   1      35.263  14.100  18.087  0.00  0.00     0.068 C 
ENDROOT
BRANCH   4   9
HETATM    9  C   UNK N   1      34.530  12.027  13.661  0.00  0.00     0.058 C 
BRANCH   9  10
HETATM   10  C   UNK N   1      35.293  13.239  13.155  0.00  0.00     0.028 C 
BRANCH  10  11
HETATM   11  C   UNK N   1      35.146  13.498  11.669  0.00  0.00     0.159 C 
BRANCH  11  12
HETATM   12  N   UNK N   1      34.626  14.833  11.450  0.00  0.00    -0.236 N 
BRANCH  12  13
HETATM   13  O   UNK N   1      33.325  15.027  11.183  0.00  0.00    -0.285 OA
HETATM   14  H   UNK N   1      32.866  14.446  10.555  0.00  0.00     0.245 HD
ENDBRANCH  12  13
BRANCH  12  15
HETATM   15  C   UNK N   1      35.464  15.889  11.515  0.00  0.00     0.376 C 
HETATM   16  O   UNK N   1      35.220  16.910  10.889  0.00  0.00    -0.281 OA
ENDBRANCH  12  15
ENDBRANCH  11  12
ENDBRANCH  10  11
ENDBRANCH   9  10
ENDBRANCH   4   9
TORSDOF 6
ENDMDL
MODEL 6
REMARK VINA RESULT:      -4.9      9.004     11.325
REMARK  6 active torsions:
REMARK  status: ('A' for Active; 'I' for Inactive)
REMARK    1  A    between atoms: C_4  and  C_9 
REMARK    2  A    between atoms: C_9  and  C_10 
REMARK    3  A    between atoms: C_10  and  C_11 
REMARK    4  A    between atoms: C_11  and  N_12 
REMARK    5  A    between atoms: N_12  and  O_13 
REMARK    6  A    between atoms: N_12  and  C_14 
ROOT
HETATM    1  C   UNK N   1      30.507  17.931   8.661  0.00  0.00     0.005 A 
HETATM    2  N   UNK N   1      31.853  17.981   8.815  0.00  0.00    -0.363 N 
ATOM      3  HN  UNK N   1      32.238  18.326   9.695  1.00  0.00     0.165 HD
HETATM    4  C   UNK N   1      32.713  17.585   7.831  0.00  0.00     0.009 A 
HETATM    5  C   UNK N   1      32.201  17.110   6.620  0.00  0.00     0.025 A 
HETATM    6  C   UNK N   1      30.815  17.051   6.440  0.00  0.00     0.004 A 
HETATM    7  C   UNK N   1      29.960  17.463   7.466  0.00  0.00     0.024 A 
HETATM    8  C   UNK N   1      29.622  18.376   9.768  0.00  0.00     0.068 C 
ENDROOT
BRANCH   4   9
HETATM    9  C   UNK N   1      34.198  17.657   8.045  0.00  0.00     0.058 C 
BRANCH   9  10
HETATM   10  C   UNK N   1      34.537  17.087   9.411  0.00  0.00     0.028 C 
BRANCH  10  11
HETATM   11  C   UNK N   1      34.891  15.614   9.406  0.00  0.00     0.159 C 
BRANCH  11  12
HETATM   12  N   UNK N   1      33.746  14.830   9.825  0.00  0.00    -0.236 N 
BRANCH  12  13
HETATM   13  O   UNK N   1      33.182  15.028  11.028  0.00  0.00    -0.285 OA
HETATM   14  H   UNK N   1      32.254  14.785  11.175  0.00  0.00     0.245 HD
ENDBRANCH  12  13
BRANCH  12  15
HETATM   15  C   UNK N   1      33.245  13.892   8.994  0.00  0.00     0.376 C 
HETATM   16  O   UNK N   1      32.173  14.071   8.434  0.00  0.00    -0.281 OA
ENDBRANCH  12  15
ENDBRANCH  11  12
ENDBRANCH  10  11
ENDBRANCH   9  10
ENDBRANCH   4   9
TORSDOF 6
ENDMDL
MODEL 7
REMARK VINA RESULT:      -4.9     11.462     14.352
REMARK  6 active torsions:
REMARK  status: ('A' for Active; 'I' for Inactive)
REMARK    1  A    between atoms: C_4  and  C_9 
REMARK    2  A    between atoms: C_9  and  C_10 
REMARK    3  A    between atoms: C_10  and  C_11 
REMARK    4  A    between atoms: C_11  and  N_12 
REMARK    5  A    between atoms: N_12  and  O_13 
REMARK    6  A    between atoms: N_12  and  C_14 
ROOT
HETATM    1  C   UNK N   1      36.333  14.128  14.238  0.00  0.00     0.005 A 
HETATM    2  N   UNK N   1      36.471  15.050  13.254  0.00  0.00    -0.363 N 
ATOM      3  HN  UNK N   1      37.021  15.890  13.436  1.00  0.00     0.165 HD
HETATM    4  C   UNK N   1      35.897  14.892  12.025  0.00  0.00     0.009 A 
HETATM    5  C   UNK N   1      35.140  13.747  11.760  0.00  0.00     0.025 A 
HETATM    6  C   UNK N   1      34.986  12.784  12.762  0.00  0.00     0.004 A 
HETATM    7  C   UNK N   1      35.585  12.972  14.010  0.00  0.00     0.024 A 
HETATM    8  C   UNK N   1      36.981  14.355  15.556  0.00  0.00     0.068 C 
ENDROOT
BRANCH   4   9
HETATM    9  C   UNK N   1      36.075  15.940  10.963  0.00  0.00     0.058 C 
BRANCH   9  10
HETATM   10  C   UNK N   1      35.220  15.585   9.759  0.00  0.00     0.028 C 
BRANCH  10  11
HETATM   11  C   UNK N   1      34.115  16.578   9.461  0.00  0.00     0.159 C 
BRANCH  11  12
HETATM   12  N   UNK N   1      34.539  17.488   8.415  0.00  0.00    -0.236 N 
BRANCH  12  13
HETATM   13  O   UNK N   1      35.138  18.650   8.718  0.00  0.00    -0.285 OA
HETATM   14  H   UNK N   1      34.875  19.466   8.263  0.00  0.00     0.245 HD
ENDBRANCH  12  13
BRANCH  12  15
HETATM   15  C   UNK N   1      34.325  17.158   7.123  0.00  0.00     0.376 C 
HETATM   16  O   UNK N   1      34.249  18.029   6.268  0.00  0.00    -0.281 OA
ENDBRANCH  12  15
ENDBRANCH  11  12
ENDBRANCH  10  11
ENDBRANCH   9  10
ENDBRANCH   4   9
TORSDOF 6
ENDMDL
MODEL 8
REMARK VINA RESULT:      -4.8     10.028     11.830
REMARK  6 active torsions:
REMARK  status: ('A' for Active; 'I' for Inactive)
REMARK    1  A    between atoms: C_4  and  C_9 
REMARK    2  A    between atoms: C_9  and  C_10 
REMARK    3  A    between atoms: C_10  and  C_11 
REMARK    4  A    between atoms: C_11  and  N_12 
REMARK    5  A    between atoms: N_12  and  O_13 
REMARK    6  A    between atoms: N_12  and  C_14 
ROOT
HETATM    1  C   UNK N   1      26.885  27.358  -5.496  0.00  0.00     0.005 A 
HETATM    2  N   UNK N   1      27.399  26.523  -4.559  0.00  0.00    -0.363 N 
ATOM      3  HN  UNK N   1      28.116  26.874  -3.924  1.00  0.00     0.165 HD
HETATM    4  C   UNK N   1      26.989  25.227  -4.438  0.00  0.00     0.009 A 
HETATM    5  C   UNK N   1      26.007  24.731  -5.301  0.00  0.00     0.025 A 
HETATM    6  C   UNK N   1      25.464  25.576  -6.274  0.00  0.00     0.004 A 
HETATM    7  C   UNK N   1      25.903  26.898  -6.375  0.00  0.00     0.024 A 
HETATM    8  C   UNK N   1      27.371  28.760  -5.580  0.00  0.00     0.068 C 
ENDROOT
BRANCH   4   9
HETATM    9  C   UNK N   1      27.586  24.336  -3.386  0.00  0.00     0.058 C 
BRANCH   9  10
HETATM   10  C   UNK N   1      29.090  24.263  -3.584  0.00  0.00     0.028 C 
BRANCH  10  11
HETATM   11  C   UNK N   1      29.634  22.858  -3.741  0.00  0.00     0.159 C 
BRANCH  11  12
HETATM   12  N   UNK N   1      30.586  22.577  -2.685  0.00  0.00    -0.236 N 
BRANCH  12  13
HETATM   13  O   UNK N   1      30.396  23.056  -1.445  0.00  0.00    -0.285 OA
HETATM   14  H   UNK N   1      31.024  22.837  -0.738  0.00  0.00     0.245 HD
ENDBRANCH  12  13
BRANCH  12  15
HETATM   15  C   UNK N   1      31.673  21.824  -2.955  0.00  0.00     0.376 C 
HETATM   16  O   UNK N   1      32.434  21.493  -2.057  0.00  0.00    -0.281 OA
ENDBRANCH  12  15
ENDBRANCH  11  12
ENDBRANCH  10  11
ENDBRANCH   9  10
ENDBRANCH   4   9
TORSDOF 6
ENDMDL
MODEL 9
REMARK VINA RESULT:      -4.7      4.386      6.860
REMARK  6 active torsions:
REMARK  status: ('A' for Active; 'I' for Inactive)
REMARK    1  A    between atoms: C_4  and  C_9 
REMARK    2  A    between atoms: C_9  and  C_10 
REMARK    3  A    between atoms: C_10  and  C_11 
REMARK    4  A    between atoms: C_11  and  N_12 
REMARK    5  A    between atoms: N_12  and  O_13 
REMARK    6  A    between atoms: N_12  and  C_14 
ROOT
HETATM    1  C   UNK N   1      24.364  19.015   4.603  0.00  0.00     0.005 A 
HETATM    2  N   UNK N   1      25.472  19.349   5.310  0.00  0.00    -0.363 N 
ATOM      3  HN  UNK N   1      25.570  19.008   6.267  1.00  0.00     0.165 HD
HETATM    4  C   UNK N   1      26.461  20.129   4.784  0.00  0.00     0.009 A 
HETATM    5  C   UNK N   1      26.341  20.605   3.475  0.00  0.00     0.025 A 
HETATM    6  C   UNK N   1      25.206  20.271   2.729  0.00  0.00     0.004 A 
HETATM    7  C   UNK N   1      24.210  19.471   3.294  0.00  0.00     0.024 A 
HETATM    8  C   UNK N   1      23.320  18.162   5.230  0.00  0.00     0.068 C 
ENDROOT
BRANCH   4   9
HETATM    9  C   UNK N   1      27.672  20.476   5.603  0.00  0.00     0.058 C 
BRANCH   9  10
HETATM   10  C   UNK N   1      27.537  19.859   6.984  0.00  0.00     0.028 C 
BRANCH  10  11
HETATM   11  C   UNK N   1      28.258  18.537   7.153  0.00  0.00     0.159 C 
BRANCH  11  12
HETATM   12  N   UNK N   1      28.444  18.253   8.563  0.00  0.00    -0.236 N 
BRANCH  12  13
HETATM   13  O   UNK N   1      27.390  18.167   9.390  0.00  0.00    -0.285 OA
HETATM   14  H   UNK N   1      27.195  18.893  10.005  0.00  0.00     0.245 HD
ENDBRANCH  12  13
BRANCH  12  15
HETATM   15  C   UNK N   1      29.692  18.074   9.043  0.00  0.00     0.376 C 
HETATM   16  O   UNK N   1      30.308  19.012   9.529  0.00  0.00    -0.281 OA
ENDBRANCH  12  15
ENDBRANCH  11  12
ENDBRANCH  10  11
ENDBRANCH   9  10
ENDBRANCH   4   9
TORSDOF 6
ENDMDL
