MODEL 1
REMARK VINA RESULT:      -6.8      0.000      0.000
REMARK  14 active torsions:
REMARK  status: ('A' for Active; 'I' for Inactive)
REMARK    1  A    between atoms: C_3  and  C_7 
REMARK    2  A    between atoms: C_7  and  O_8 
REMARK    3  A    between atoms: O_8  and  C_9 
REMARK       I    between atoms: C_9  and  N_11 
REMARK    4  A    between atoms: C_12  and  N_11 
REMARK    5  A    between atoms: C_12  and  C_13 
REMARK    6  A    between atoms: C_12  and  C_21 
REMARK       I    between atoms: C_13  and  N_14 
REMARK    7  A    between atoms: C_15  and  N_14 
REMARK    8  A    between atoms: C_15  and  C_16 
REMARK    9  A    between atoms: C_15  and  C_17 
REMARK   10  A    between atoms: C_16  and  O_26 
REMARK   11  A    between atoms: C_16  and  C_27 
REMARK   12  A    between atoms: C_17  and  C_18 
REMARK   13  A    between atoms: C_21  and  C_22 
REMARK   14  A    between atoms: C_27  and  O_28 
ROOT
HETATM    1  C   UNK N   1      35.564  14.853  11.039  0.00  0.00     0.179 C 
ENDROOT
BRANCH   1   2
HETATM    2  N   UNK N   1      35.536  14.486  12.444  0.00  0.00    -0.324 N 
HETATM    3  C   UNK N   1      35.134  13.287  12.975  0.00  0.00     0.361 C 
HETATM    4  O   UNK N   1      34.901  12.324  12.270  0.00  0.00    -0.238 OA
HETATM    5  H   UNK N   1      35.839  15.170  13.084  0.00  0.00     0.165 HD
BRANCH   3   6
HETATM    6  O   UNK N   1      34.892  13.201  14.301  0.00  0.00    -0.299 OA
BRANCH   6   7
HETATM    7  C   UNK N   1      35.818  13.637  15.215  0.00  0.00     0.219 C 
BRANCH   7   8
HETATM    8  C   UNK N   1      35.624  12.956  16.510  0.00  0.00    -0.034 A 
HETATM    9  C   UNK N   1      35.794  11.572  16.598  0.00  0.00     0.009 A 
HETATM   10  C   UNK N   1      35.634  10.929  17.827  0.00  0.00     0.001 A 
HETATM   11  C   UNK N   1      35.314  11.674  18.967  0.00  0.00     0.000 A 
HETATM   12  C   UNK N   1      35.148  13.059  18.877  0.00  0.00     0.001 A 
HETATM   13  C   UNK N   1      35.304  13.701  17.648  0.00  0.00     0.009 A 
ENDBRANCH   7   8
ENDBRANCH   6   7
ENDBRANCH   3   6
ENDBRANCH   1   2
BRANCH   1  14
HETATM   14  C   UNK N   1      34.860  16.119  10.678  0.00  0.00     0.240 C 
HETATM   15  N   UNK N   1      33.815  15.960   9.838  0.00  0.00    -0.352 N 
HETATM   16  H   UNK N   1      33.322  15.112   9.920  0.00  0.00     0.163 HD
HETATM   17  O   UNK N   1      35.355  17.218  10.883  0.00  0.00    -0.271 OA
BRANCH  15  18
HETATM   18  C   UNK N   1      33.333  16.872   8.838  0.00  0.00     0.115 C 
BRANCH  18  19
HETATM   19  C   UNK N   1      34.431  16.810   7.747  0.00  0.00     0.164 C 
BRANCH  19  20
HETATM   20  O   UNK N   1      34.557  18.073   7.161  0.00  0.00    -0.391 OA
HETATM   21  H   UNK N   1      35.240  18.650   6.787  0.00  0.00     0.210 HD
ENDBRANCH  19  20
BRANCH  19  22
HETATM   22  C   UNK N   1      34.223  15.775   6.654  0.00  0.00     0.200 C 
BRANCH  22  23
HETATM   23  O   UNK N   1      34.576  16.340   5.424  0.00  0.00    -0.393 OA
HETATM   24  C   UNK N   1      33.622  15.876   4.525  0.00  0.00     0.201 C 
ENDBRANCH  22  23
ENDBRANCH  19  22
ENDBRANCH  18  19
BRANCH  18  25
HETATM   25  C   UNK N   1      31.961  16.396   8.347  0.00  0.00     0.031 C 
BRANCH  25  26
HETATM   26  C   UNK N   1      31.105  17.558   7.832  0.00  0.00    -0.021 C 
HETATM   27  C   UNK N   1      30.096  17.969   8.882  0.00  0.00     0.009 C 
HETATM   28  C   UNK N   1      30.374  17.203   6.549  0.00  0.00     0.009 C 
ENDBRANCH  25  26
ENDBRANCH  18  25
ENDBRANCH  15  18
ENDBRANCH   1  14
BRANCH   1  29
HETATM   29  C   UNK N   1      36.964  14.965  10.422  0.00  0.00     0.038 C 
BRANCH  29  30
HETATM   30  C   UNK N   1      37.344  13.743   9.614  0.00  0.00    -0.020 C 
HETATM   31  C   UNK N   1      38.050  12.759  10.525  0.00  0.00     0.009 C 
HETATM   32  C   UNK N   1      36.086  13.102   9.073  0.00  0.00     0.009 C 
ENDBRANCH  29  30
ENDBRANCH   1  29
TORSDOF 14
ENDMDL
MODEL 2
REMARK VINA RESULT:      -6.4      2.332      5.145
REMARK  14 active torsions:
REMARK  status: ('A' for Active; 'I' for Inactive)
REMARK    1  A    between atoms: C_3  and  C_7 
REMARK    2  A    between atoms: C_7  and  O_8 
REMARK    3  A    between atoms: O_8  and  C_9 
REMARK       I    between atoms: C_9  and  N_11 
REMARK    4  A    between atoms: C_12  and  N_11 
REMARK    5  A    between atoms: C_12  and  C_13 
REMARK    6  A    between atoms: C_12  and  C_21 
REMARK       I    between atoms: C_13  and  N_14 
REMARK    7  A    between atoms: C_15  and  N_14 
REMARK    8  A    between atoms: C_15  and  C_16 
REMARK    9  A    between atoms: C_15  and  C_17 
REMARK   10  A    between atoms: C_16  and  O_26 
REMARK   11  A    between atoms: C_16  and  C_27 
REMARK   12  A    between atoms: C_17  and  C_18 
REMARK   13  A    between atoms: C_21  and  C_22 
REMARK   14  A    between atoms: C_27  and  O_28 
ROOT
HETATM    1  C   UNK N   1      33.176  17.093   8.860  0.00  0.00     0.179 C 
ENDROOT
BRANCH   1   2
HETATM    2  N   UNK N   1      33.859  16.213   9.793  0.00  0.00    -0.324 N 
HETATM    3  C   UNK N   1      35.063  16.440  10.409  0.00  0.00     0.361 C 
HETATM    4  O   UNK N   1      35.618  17.520  10.345  0.00  0.00    -0.238 OA
HETATM    5  H   UNK N   1      33.409  15.363  10.006  0.00  0.00     0.165 HD
BRANCH   3   6
HETATM    6  O   UNK N   1      35.698  15.412  11.013  0.00  0.00    -0.299 OA
BRANCH   6   7
HETATM    7  C   UNK N   1      34.989  14.400  11.609  0.00  0.00     0.219 C 
BRANCH   7   8
HETATM    8  C   UNK N   1      35.858  13.628  12.519  0.00  0.00    -0.034 A 
HETATM    9  C   UNK N   1      35.902  13.954  13.877  0.00  0.00     0.009 A 
HETATM   10  C   UNK N   1      36.705  13.211  14.744  0.00  0.00     0.001 A 
HETATM   11  C   UNK N   1      37.456  12.137  14.252  0.00  0.00     0.000 A 
HETATM   12  C   UNK N   1      37.407  11.812  12.893  0.00  0.00     0.001 A 
HETATM   13  C   UNK N   1      36.607  12.558  12.026  0.00  0.00     0.009 A 
ENDBRANCH   7   8
ENDBRANCH   6   7
ENDBRANCH   3   6
ENDBRANCH   1   2
BRANCH   1  14
HETATM   14  C   UNK N   1      33.802  17.231   7.511  0.00  0.00     0.240 C 
HETATM   15  N   UNK N   1      33.678  16.142   6.722  0.00  0.00    -0.352 N 
HETATM   16  H   UNK N   1      32.859  15.609   6.849  0.00  0.00     0.163 HD
HETATM   17  O   UNK N   1      34.600  18.121   7.253  0.00  0.00    -0.271 OA
BRANCH  15  18
HETATM   18  C   UNK N   1      34.590  15.663   5.722  0.00  0.00     0.115 C 
BRANCH  18  19
HETATM   19  C   UNK N   1      35.674  14.933   6.554  0.00  0.00     0.164 C 
BRANCH  19  20
HETATM   20  O   UNK N   1      36.833  14.815   5.781  0.00  0.00    -0.391 OA
HETATM   21  H   UNK N   1      37.740  14.480   5.854  0.00  0.00     0.210 HD
ENDBRANCH  19  20
BRANCH  19  22
HETATM   22  C   UNK N   1      35.292  13.563   7.087  0.00  0.00     0.200 C 
BRANCH  22  23
HETATM   23  O   UNK N   1      34.451  13.728   8.193  0.00  0.00    -0.393 OA
HETATM   24  C   UNK N   1      33.475  12.748   8.055  0.00  0.00     0.201 C 
ENDBRANCH  22  23
ENDBRANCH  19  22
ENDBRANCH  18  19
BRANCH  18  25
HETATM   25  C   UNK N   1      33.836  14.735   4.762  0.00  0.00     0.031 C 
BRANCH  25  26
HETATM   26  C   UNK N   1      33.694  15.352   3.366  0.00  0.00    -0.021 C 
HETATM   27  C   UNK N   1      32.247  15.705   3.096  0.00  0.00     0.009 C 
HETATM   28  C   UNK N   1      34.191  14.419   2.276  0.00  0.00     0.009 C 
ENDBRANCH  25  26
ENDBRANCH  18  25
ENDBRANCH  15  18
ENDBRANCH   1  14
BRANCH   1  29
HETATM   29  C   UNK N   1      31.702  16.753   8.603  0.00  0.00     0.038 C 
BRANCH  29  30
HETATM   30  C   UNK N   1      30.911  17.939   8.097  0.00  0.00    -0.020 C 
HETATM   31  C   UNK N   1      29.929  17.456   7.049  0.00  0.00     0.009 C 
HETATM   32  C   UNK N   1      30.146  18.547   9.251  0.00  0.00     0.009 C 
ENDBRANCH  29  30
ENDBRANCH   1  29
TORSDOF 14
ENDMDL
MODEL 3
REMARK VINA RESULT:      -6.4      1.513      2.291
REMARK  14 active torsions:
REMARK  status: ('A' for Active; 'I' for Inactive)
REMARK    1  A    between atoms: C_3  and  C_7 
REMARK    2  A    between atoms: C_7  and  O_8 
REMARK    3  A    between atoms: O_8  and  C_9 
REMARK       I    between atoms: C_9  and  N_11 
REMARK    4  A    between atoms: C_12  and  N_11 
REMARK    5  A    between atoms: C_12  and  C_13 
REMARK    6  A    between atoms: C_12  and  C_21 
REMARK       I    between atoms: C_13  and  N_14 
REMARK    7  A    between atoms: C_15  and  N_14 
REMARK    8  A    between atoms: C_15  and  C_16 
REMARK    9  A    between atoms: C_15  and  C_17 
REMARK   10  A    between atoms: C_16  and  O_26 
REMARK   11  A    between atoms: C_16  and  C_27 
REMARK   12  A    between atoms: C_17  and  C_18 
REMARK   13  A    between atoms: C_21  and  C_22 
REMARK   14  A    between atoms: C_27  and  O_28 
ROOT
HETATM    1  C   UNK N   1      36.819  14.047  10.911  0.00  0.00     0.179 C 
ENDROOT
BRANCH   1   2
HETATM    2  N   UNK N   1      36.954  13.941  12.354  0.00  0.00    -0.324 N 
HETATM    3  C   UNK N   1      36.612  12.868  13.137  0.00  0.00     0.361 C 
HETATM    4  O   UNK N   1      36.295  11.800  12.651  0.00  0.00    -0.238 OA
HETATM    5  H   UNK N   1      37.332  14.722  12.820  0.00  0.00     0.165 HD
BRANCH   3   6
HETATM    6  O   UNK N   1      36.525  13.030  14.476  0.00  0.00    -0.299 OA
BRANCH   6   7
HETATM    7  C   UNK N   1      35.306  13.167  15.089  0.00  0.00     0.219 C 
BRANCH   7   8
HETATM    8  C   UNK N   1      35.374  12.686  16.484  0.00  0.00    -0.034 A 
HETATM    9  C   UNK N   1      35.124  13.571  17.535  0.00  0.00     0.009 A 
HETATM   10  C   UNK N   1      35.165  13.112  18.853  0.00  0.00     0.001 A 
HETATM   11  C   UNK N   1      35.448  11.767  19.116  0.00  0.00     0.000 A 
HETATM   12  C   UNK N   1      35.694  10.883  18.061  0.00  0.00     0.001 A 
HETATM   13  C   UNK N   1      35.657  11.343  16.744  0.00  0.00     0.009 A 
ENDBRANCH   7   8
ENDBRANCH   6   7
ENDBRANCH   3   6
ENDBRANCH   1   2
BRANCH   1  14
HETATM   14  C   UNK N   1      36.089  15.248  10.408  0.00  0.00     0.240 C 
HETATM   15  N   UNK N   1      35.147  14.982   9.478  0.00  0.00    -0.352 N 
HETATM   16  H   UNK N   1      34.694  14.112   9.560  0.00  0.00     0.163 HD
HETATM   17  O   UNK N   1      36.502  16.384  10.596  0.00  0.00    -0.271 OA
BRANCH  15  18
HETATM   18  C   UNK N   1      34.723  15.809   8.383  0.00  0.00     0.115 C 
BRANCH  18  19
HETATM   19  C   UNK N   1      35.063  14.949   7.140  0.00  0.00     0.164 C 
BRANCH  19  20
HETATM   20  O   UNK N   1      35.376  15.799   6.074  0.00  0.00    -0.391 OA
HETATM   21  H   UNK N   1      36.056  16.437   5.812  0.00  0.00     0.210 HD
ENDBRANCH  19  20
BRANCH  19  22
HETATM   22  C   UNK N   1      33.989  13.971   6.696  0.00  0.00     0.200 C 
BRANCH  22  23
HETATM   23  O   UNK N   1      34.053  12.833   7.507  0.00  0.00    -0.393 OA
HETATM   24  C   UNK N   1      34.982  12.001   6.892  0.00  0.00     0.201 C 
ENDBRANCH  22  23
ENDBRANCH  19  22
ENDBRANCH  18  19
BRANCH  18  25
HETATM   25  C   UNK N   1      33.225  16.101   8.527  0.00  0.00     0.031 C 
BRANCH  25  26
HETATM   26  C   UNK N   1      32.850  17.464   7.933  0.00  0.00    -0.021 C 
HETATM   27  C   UNK N   1      33.982  18.448   8.127  0.00  0.00     0.009 C 
HETATM   28  C   UNK N   1      31.586  18.028   8.558  0.00  0.00     0.009 C 
ENDBRANCH  25  26
ENDBRANCH  18  25
ENDBRANCH  15  18
ENDBRANCH   1  14
BRANCH   1  29
HETATM   29  C   UNK N   1      38.138  14.002  10.129  0.00  0.00     0.038 C 
BRANCH  29  30
HETATM   30  C   UNK N   1      38.165  12.897   9.096  0.00  0.00    -0.020 C 
HETATM   31  C   UNK N   1      38.291  13.521   7.721  0.00  0.00     0.009 C 
HETATM   32  C   UNK N   1      39.366  12.016   9.351  0.00  0.00     0.009 C 
ENDBRANCH  29  30
ENDBRANCH   1  29
TORSDOF 14
ENDMDL
MODEL 4
REMARK VINA RESULT:      -6.4      2.804      5.438
REMARK  14 active torsions:
REMARK  status: ('A' for Active; 'I' for Inactive)
REMARK    1  A    between atoms: C_3  and  C_7 
REMARK    2  A    between atoms: C_7  and  O_8 
REMARK    3  A    between atoms: O_8  and  C_9 
REMARK       I    between atoms: C_9  and  N_11 
REMARK    4  A    between atoms: C_12  and  N_11 
REMARK    5  A    between atoms: C_12  and  C_13 
REMARK    6  A    between atoms: C_12  and  C_21 
REMARK       I    between atoms: C_13  and  N_14 
REMARK    7  A    between atoms: C_15  and  N_14 
REMARK    8  A    between atoms: C_15  and  C_16 
REMARK    9  A    between atoms: C_15  and  C_17 
REMARK   10  A    between atoms: C_16  and  O_26 
REMARK   11  A    between atoms: C_16  and  C_27 
REMARK   12  A    between atoms: C_17  and  C_18 
REMARK   13  A    between atoms: C_21  and  C_22 
REMARK   14  A    between atoms: C_27  and  O_28 
ROOT
HETATM    1  C   UNK N   1      32.492  17.385   8.324  0.00  0.00     0.179 C 
ENDROOT
BRANCH   1   2
HETATM    2  N   UNK N   1      33.400  16.606   9.149  0.00  0.00    -0.324 N 
HETATM    3  C   UNK N   1      34.679  16.943   9.508  0.00  0.00     0.361 C 
HETATM    4  O   UNK N   1      35.134  18.049   9.287  0.00  0.00    -0.238 OA
HETATM    5  H   UNK N   1      33.061  15.745   9.485  0.00  0.00     0.165 HD
BRANCH   3   6
HETATM    6  O   UNK N   1      35.490  15.995  10.028  0.00  0.00    -0.299 OA
BRANCH   6   7
HETATM    7  C   UNK N   1      35.950  16.093  11.317  0.00  0.00     0.219 C 
BRANCH   7   8
HETATM    8  C   UNK N   1      35.775  14.809  12.025  0.00  0.00    -0.034 A 
HETATM    9  C   UNK N   1      36.231  14.673  13.338  0.00  0.00     0.009 A 
HETATM   10  C   UNK N   1      36.045  13.468  14.017  0.00  0.00     0.001 A 
HETATM   11  C   UNK N   1      35.396  12.403  13.382  0.00  0.00     0.000 A 
HETATM   12  C   UNK N   1      34.937  12.542  12.069  0.00  0.00     0.001 A 
HETATM   13  C   UNK N   1      35.127  13.747  11.390  0.00  0.00     0.009 A 
ENDBRANCH   7   8
ENDBRANCH   6   7
ENDBRANCH   3   6
ENDBRANCH   1   2
BRANCH   1  14
HETATM   14  C   UNK N   1      32.685  17.270   6.848  0.00  0.00     0.240 C 
HETATM   15  N   UNK N   1      31.948  16.305   6.259  0.00  0.00    -0.352 N 
HETATM   16  H   UNK N   1      31.073  16.119   6.671  0.00  0.00     0.163 HD
HETATM   17  O   UNK N   1      33.631  17.794   6.275  0.00  0.00    -0.271 OA
BRANCH  15  18
HETATM   18  C   UNK N   1      32.280  15.513   5.108  0.00  0.00     0.115 C 
BRANCH  18  19
HETATM   19  C   UNK N   1      32.503  14.100   5.704  0.00  0.00     0.164 C 
BRANCH  19  20
HETATM   20  O   UNK N   1      31.807  14.004   6.912  0.00  0.00    -0.391 OA
HETATM   21  H   UNK N   1      31.899  14.263   7.842  0.00  0.00     0.210 HD
ENDBRANCH  19  20
BRANCH  19  22
HETATM   22  C   UNK N   1      33.950  13.697   5.932  0.00  0.00     0.200 C 
BRANCH  22  23
HETATM   23  O   UNK N   1      34.458  14.431   7.010  0.00  0.00    -0.393 OA
HETATM   24  C   UNK N   1      35.699  14.892   6.581  0.00  0.00     0.201 C 
ENDBRANCH  22  23
ENDBRANCH  19  22
ENDBRANCH  18  19
BRANCH  18  25
HETATM   25  C   UNK N   1      31.120  15.572   4.108  0.00  0.00     0.031 C 
BRANCH  25  26
HETATM   26  C   UNK N   1      29.811  16.006   4.778  0.00  0.00    -0.021 C 
HETATM   27  C   UNK N   1      28.901  14.812   4.969  0.00  0.00     0.009 C 
HETATM   28  C   UNK N   1      29.081  17.064   3.970  0.00  0.00     0.009 C 
ENDBRANCH  25  26
ENDBRANCH  18  25
ENDBRANCH  15  18
ENDBRANCH   1  14
BRANCH   1  29
HETATM   29  C   UNK N   1      31.000  17.121   8.570  0.00  0.00     0.038 C 
BRANCH  29  30
HETATM   30  C   UNK N   1      30.174  18.388   8.548  0.00  0.00    -0.020 C 
HETATM   31  C   UNK N   1      28.983  18.175   7.635  0.00  0.00     0.009 C 
HETATM   32  C   UNK N   1      29.680  18.676   9.947  0.00  0.00     0.009 C 
ENDBRANCH  29  30
ENDBRANCH   1  29
TORSDOF 14
ENDMDL
MODEL 5
REMARK VINA RESULT:      -6.3      2.016      8.896
REMARK  14 active torsions:
REMARK  status: ('A' for Active; 'I' for Inactive)
REMARK    1  A    between atoms: C_3  and  C_7 
REMARK    2  A    between atoms: C_7  and  O_8 
REMARK    3  A    between atoms: O_8  and  C_9 
REMARK       I    between atoms: C_9  and  N_11 
REMARK    4  A    between atoms: C_12  and  N_11 
REMARK    5  A    between atoms: C_12  and  C_13 
REMARK    6  A    between atoms: C_12  and  C_21 
REMARK       I    between atoms: C_13  and  N_14 
REMARK    7  A    between atoms: C_15  and  N_14 
REMARK    8  A    between atoms: C_15  and  C_16 
REMARK    9  A    between atoms: C_15  and  C_17 
REMARK   10  A    between atoms: C_16  and  O_26 
REMARK   11  A    between atoms: C_16  and  C_27 
REMARK   12  A    between atoms: C_17  and  C_18 
REMARK   13  A    between atoms: C_21  and  C_22 
REMARK   14  A    between atoms: C_27  and  O_28 
ROOT
HETATM    1  C   UNK N   1      36.036  14.478  10.610  0.00  0.00     0.179 C 
ENDROOT
BRANCH   1   2
HETATM    2  N   UNK N   1      35.205  15.385   9.837  0.00  0.00    -0.324 N 
HETATM    3  C   UNK N   1      35.157  16.752   9.944  0.00  0.00     0.361 C 
HETATM    4  O   UNK N   1      35.958  17.367  10.621  0.00  0.00    -0.238 OA
HETATM    5  H   UNK N   1      34.613  14.976   9.165  0.00  0.00     0.165 HD
BRANCH   3   6
HETATM    6  O   UNK N   1      34.135  17.423   9.370  0.00  0.00    -0.299 OA
BRANCH   6   7
HETATM    7  C   UNK N   1      34.314  18.100   8.190  0.00  0.00     0.219 C 
BRANCH   7   8
HETATM    8  C   UNK N   1      33.292  17.695   7.204  0.00  0.00    -0.034 A 
HETATM    9  C   UNK N   1      31.979  17.465   7.621  0.00  0.00     0.009 A 
HETATM   10  C   UNK N   1      31.006  17.105   6.686  0.00  0.00     0.001 A 
HETATM   11  C   UNK N   1      31.348  16.986   5.335  0.00  0.00     0.000 A 
HETATM   12  C   UNK N   1      32.662  17.222   4.919  0.00  0.00     0.001 A 
HETATM   13  C   UNK N   1      33.634  17.577   5.855  0.00  0.00     0.009 A 
ENDBRANCH   7   8
ENDBRANCH   6   7
ENDBRANCH   3   6
ENDBRANCH   1   2
BRANCH   1  14
HETATM   14  C   UNK N   1      35.551  14.155  11.984  0.00  0.00     0.240 C 
HETATM   15  N   UNK N   1      36.479  13.596  12.790  0.00  0.00    -0.352 N 
HETATM   16  H   UNK N   1      37.410  13.878  12.634  0.00  0.00     0.163 HD
HETATM   17  O   UNK N   1      34.360  14.123  12.262  0.00  0.00    -0.271 OA
BRANCH  15  18
HETATM   18  C   UNK N   1      36.280  12.641  13.844  0.00  0.00     0.115 C 
BRANCH  18  19
HETATM   19  C   UNK N   1      37.548  11.754  13.760  0.00  0.00     0.164 C 
BRANCH  19  20
HETATM   20  O   UNK N   1      38.140  11.929  12.506  0.00  0.00    -0.391 OA
HETATM   21  H   UNK N   1      37.939  12.318  11.641  0.00  0.00     0.210 HD
ENDBRANCH  19  20
BRANCH  19  22
HETATM   22  C   UNK N   1      37.337  10.270  14.006  0.00  0.00     0.200 C 
BRANCH  22  23
HETATM   23  O   UNK N   1      38.021   9.904  15.169  0.00  0.00    -0.393 OA
HETATM   24  C   UNK N   1      39.189   9.293  14.725  0.00  0.00     0.201 C 
ENDBRANCH  22  23
ENDBRANCH  19  22
ENDBRANCH  18  19
BRANCH  18  25
HETATM   25  C   UNK N   1      36.149  13.387  15.177  0.00  0.00     0.031 C 
BRANCH  25  26
HETATM   26  C   UNK N   1      34.816  13.084  15.871  0.00  0.00    -0.021 C 
HETATM   27  C   UNK N   1      35.034  12.883  17.355  0.00  0.00     0.009 C 
HETATM   28  C   UNK N   1      34.140  11.853  15.295  0.00  0.00     0.009 C 
ENDBRANCH  25  26
ENDBRANCH  18  25
ENDBRANCH  15  18
ENDBRANCH   1  14
BRANCH   1  29
HETATM   29  C   UNK N   1      36.323  13.128   9.941  0.00  0.00     0.038 C 
BRANCH  29  30
HETATM   30  C   UNK N   1      37.476  13.195   8.964  0.00  0.00    -0.020 C 
HETATM   31  C   UNK N   1      38.546  14.101   9.539  0.00  0.00     0.009 C 
HETATM   32  C   UNK N   1      38.047  11.807   8.782  0.00  0.00     0.009 C 
ENDBRANCH  29  30
ENDBRANCH   1  29
TORSDOF 14
ENDMDL
MODEL 6
REMARK VINA RESULT:      -6.2      1.773      8.754
REMARK  14 active torsions:
REMARK  status: ('A' for Active; 'I' for Inactive)
REMARK    1  A    between atoms: C_3  and  C_7 
REMARK    2  A    between atoms: C_7  and  O_8 
REMARK    3  A    between atoms: O_8  and  C_9 
REMARK       I    between atoms: C_9  and  N_11 
REMARK    4  A    between atoms: C_12  and  N_11 
REMARK    5  A    between atoms: C_12  and  C_13 
REMARK    6  A    between atoms: C_12  and  C_21 
REMARK       I    between atoms: C_13  and  N_14 
REMARK    7  A    between atoms: C_15  and  N_14 
REMARK    8  A    between atoms: C_15  and  C_16 
REMARK    9  A    between atoms: C_15  and  C_17 
REMARK   10  A    between atoms: C_16  and  O_26 
REMARK   11  A    between atoms: C_16  and  C_27 
REMARK   12  A    between atoms: C_17  and  C_18 
REMARK   13  A    between atoms: C_21  and  C_22 
REMARK   14  A    between atoms: C_27  and  O_28 
ROOT
HETATM    1  C   UNK N   1      35.641  15.364  10.117  0.00  0.00     0.179 C 
ENDROOT
BRANCH   1   2
HETATM    2  N   UNK N   1      34.652  16.054   9.306  0.00  0.00    -0.324 N 
HETATM    3  C   UNK N   1      34.554  17.406   9.101  0.00  0.00     0.361 C 
HETATM    4  O   UNK N   1      35.422  18.172   9.473  0.00  0.00    -0.238 OA
HETATM    5  H   UNK N   1      33.982  15.491   8.855  0.00  0.00     0.165 HD
BRANCH   3   6
HETATM    6  O   UNK N   1      33.421  17.911   8.567  0.00  0.00    -0.299 OA
BRANCH   6   7
HETATM    7  C   UNK N   1      32.428  17.081   8.109  0.00  0.00     0.219 C 
BRANCH   7   8
HETATM    8  C   UNK N   1      32.285  17.208   6.645  0.00  0.00    -0.034 A 
HETATM    9  C   UNK N   1      31.016  17.154   6.066  0.00  0.00     0.009 A 
HETATM   10  C   UNK N   1      30.876  17.297   4.684  0.00  0.00     0.001 A 
HETATM   11  C   UNK N   1      32.007  17.504   3.886  0.00  0.00     0.000 A 
HETATM   12  C   UNK N   1      33.277  17.561   4.470  0.00  0.00     0.001 A 
HETATM   13  C   UNK N   1      33.415  17.413   5.851  0.00  0.00     0.009 A 
ENDBRANCH   7   8
ENDBRANCH   6   7
ENDBRANCH   3   6
ENDBRANCH   1   2
BRANCH   1  14
HETATM   14  C   UNK N   1      35.147  14.786  11.402  0.00  0.00     0.240 C 
HETATM   15  N   UNK N   1      36.114  14.287  12.201  0.00  0.00    -0.352 N 
HETATM   16  H   UNK N   1      36.988  14.738  12.151  0.00  0.00     0.163 HD
HETATM   17  O   UNK N   1      33.967  14.521  11.583  0.00  0.00    -0.271 OA
BRANCH  15  18
HETATM   18  C   UNK N   1      36.029  13.182  13.114  0.00  0.00     0.115 C 
BRANCH  18  19
HETATM   19  C   UNK N   1      37.091  12.194  12.571  0.00  0.00     0.164 C 
BRANCH  19  20
HETATM   20  O   UNK N   1      38.137  12.923  11.999  0.00  0.00    -0.391 OA
HETATM   21  H   UNK N   1      38.824  13.557  12.257  0.00  0.00     0.210 HD
ENDBRANCH  19  20
BRANCH  19  22
HETATM   22  C   UNK N   1      36.593  11.170  11.566  0.00  0.00     0.200 C 
BRANCH  22  23
HETATM   23  O   UNK N   1      35.201  11.272  11.470  0.00  0.00    -0.393 OA
HETATM   24  C   UNK N   1      34.724   9.996  11.750  0.00  0.00     0.201 C 
ENDBRANCH  22  23
ENDBRANCH  19  22
ENDBRANCH  18  19
BRANCH  18  25
HETATM   25  C   UNK N   1      36.332  13.679  14.532  0.00  0.00     0.031 C 
BRANCH  25  26
HETATM   26  C   UNK N   1      35.761  12.740  15.601  0.00  0.00    -0.021 C 
HETATM   27  C   UNK N   1      34.498  12.079  15.095  0.00  0.00     0.009 C 
HETATM   28  C   UNK N   1      35.457  13.470  16.897  0.00  0.00     0.009 C 
ENDBRANCH  25  26
ENDBRANCH  18  25
ENDBRANCH  15  18
ENDBRANCH   1  14
BRANCH   1  29
HETATM   29  C   UNK N   1      36.386  14.225   9.407  0.00  0.00     0.038 C 
BRANCH  29  30
HETATM   30  C   UNK N   1      35.742  13.838   8.094  0.00  0.00    -0.020 C 
HETATM   31  C   UNK N   1      36.777  13.954   6.993  0.00  0.00     0.009 C 
HETATM   32  C   UNK N   1      35.271  12.405   8.182  0.00  0.00     0.009 C 
ENDBRANCH  29  30
ENDBRANCH   1  29
TORSDOF 14
ENDMDL
MODEL 7
REMARK VINA RESULT:      -6.2     16.591     21.042
REMARK  14 active torsions:
REMARK  status: ('A' for Active; 'I' for Inactive)
REMARK    1  A    between atoms: C_3  and  C_7 
REMARK    2  A    between atoms: C_7  and  O_8 
REMARK    3  A    between atoms: O_8  and  C_9 
REMARK       I    between atoms: C_9  and  N_11 
REMARK    4  A    between atoms: C_12  and  N_11 
REMARK    5  A    between atoms: C_12  and  C_13 
REMARK    6  A    between atoms: C_12  and  C_21 
REMARK       I    between atoms: C_13  and  N_14 
REMARK    7  A    between atoms: C_15  and  N_14 
REMARK    8  A    between atoms: C_15  and  C_16 
REMARK    9  A    between atoms: C_15  and  C_17 
REMARK   10  A    between atoms: C_16  and  O_26 
REMARK   11  A    between atoms: C_16  and  C_27 
REMARK   12  A    between atoms: C_17  and  C_18 
REMARK   13  A    between atoms: C_21  and  C_22 
REMARK   14  A    between atoms: C_27  and  O_28 
ROOT
HETATM    1  C   UNK N   1      29.343  24.623  -3.315  0.00  0.00     0.179 C 
ENDROOT
BRANCH   1   2
HETATM    2  N   UNK N   1      28.245  24.901  -4.226  0.00  0.00    -0.324 N 
HETATM    3  C   UNK N   1      26.909  24.712  -3.986  0.00  0.00     0.361 C 
HETATM    4  O   UNK N   1      26.493  24.427  -2.879  0.00  0.00    -0.238 OA
HETATM    5  H   UNK N   1      28.487  25.263  -5.109  0.00  0.00     0.165 HD
BRANCH   3   6
HETATM    6  O   UNK N   1      26.042  24.740  -5.022  0.00  0.00    -0.299 OA
BRANCH   6   7
HETATM    7  C   UNK N   1      25.372  25.893  -5.347  0.00  0.00     0.219 C 
BRANCH   7   8
HETATM    8  C   UNK N   1      26.299  26.877  -5.941  0.00  0.00    -0.034 A 
HETATM    9  C   UNK N   1      26.552  28.079  -5.277  0.00  0.00     0.009 A 
HETATM   10  C   UNK N   1      27.447  29.001  -5.826  0.00  0.00     0.001 A 
HETATM   11  C   UNK N   1      28.092  28.712  -7.034  0.00  0.00     0.000 A 
HETATM   12  C   UNK N   1      27.839  27.506  -7.694  0.00  0.00     0.001 A 
HETATM   13  C   UNK N   1      26.942  26.588  -7.147  0.00  0.00     0.009 A 
ENDBRANCH   7   8
ENDBRANCH   6   7
ENDBRANCH   3   6
ENDBRANCH   1   2
BRANCH   1  14
HETATM   14  C   UNK N   1      29.691  23.183  -3.128  0.00  0.00     0.240 C 
HETATM   15  N   UNK N   1      30.275  22.604  -4.199  0.00  0.00    -0.352 N 
HETATM   16  H   UNK N   1      30.836  23.193  -4.754  0.00  0.00     0.163 HD
HETATM   17  O   UNK N   1      29.227  22.517  -2.213  0.00  0.00    -0.271 OA
BRANCH  15  18
HETATM   18  C   UNK N   1      30.181  21.237  -4.631  0.00  0.00     0.115 C 
BRANCH  18  19
HETATM   19  C   UNK N   1      29.834  21.366  -6.135  0.00  0.00     0.164 C 
BRANCH  19  20
HETATM   20  O   UNK N   1      30.511  20.368  -6.842  0.00  0.00    -0.391 OA
HETATM   21  H   UNK N   1      30.344  19.500  -7.238  0.00  0.00     0.210 HD
ENDBRANCH  19  20
BRANCH  19  22
HETATM   22  C   UNK N   1      30.131  22.713  -6.771  0.00  0.00     0.200 C 
BRANCH  22  23
HETATM   23  O   UNK N   1      28.990  23.518  -6.677  0.00  0.00    -0.393 OA
HETATM   24  C   UNK N   1      27.971  22.772  -7.261  0.00  0.00     0.201 C 
ENDBRANCH  22  23
ENDBRANCH  19  22
ENDBRANCH  18  19
BRANCH  18  25
HETATM   25  C   UNK N   1      31.520  20.538  -4.375  0.00  0.00     0.031 C 
BRANCH  25  26
HETATM   26  C   UNK N   1      32.624  21.535  -4.005  0.00  0.00    -0.021 C 
HETATM   27  C   UNK N   1      33.572  21.722  -5.169  0.00  0.00     0.009 C 
HETATM   28  C   UNK N   1      33.412  21.087  -2.787  0.00  0.00     0.009 C 
ENDBRANCH  25  26
ENDBRANCH  18  25
ENDBRANCH  15  18
ENDBRANCH   1  14
BRANCH   1  29
HETATM   29  C   UNK N   1      30.663  25.330  -3.651  0.00  0.00     0.038 C 
BRANCH  29  30
HETATM   30  C   UNK N   1      30.535  26.271  -4.829  0.00  0.00    -0.020 C 
HETATM   31  C   UNK N   1      30.638  27.696  -4.325  0.00  0.00     0.009 C 
HETATM   32  C   UNK N   1      31.667  26.004  -5.794  0.00  0.00     0.009 C 
ENDBRANCH  29  30
ENDBRANCH   1  29
TORSDOF 14
ENDMDL
MODEL 8
REMARK VINA RESULT:      -6.1     17.794     21.763
REMARK  14 active torsions:
REMARK  status: ('A' for Active; 'I' for Inactive)
REMARK    1  A    between atoms: C_3  and  C_7 
REMARK    2  A    between atoms: C_7  and  O_8 
REMARK    3  A    between atoms: O_8  and  C_9 
REMARK       I    between atoms: C_9  and  N_11 
REMARK    4  A    between atoms: C_12  and  N_11 
REMARK    5  A    between atoms: C_12  and  C_13 
REMARK    6  A    between atoms: C_12  and  C_21 
REMARK       I    between atoms: C_13  and  N_14 
REMARK    7  A    between atoms: C_15  and  N_14 
REMARK    8  A    between atoms: C_15  and  C_16 
REMARK    9  A    between atoms: C_15  and  C_17 
REMARK   10  A    between atoms: C_16  and  O_26 
REMARK   11  A    between atoms: C_16  and  C_27 
REMARK   12  A    between atoms: C_17  and  C_18 
REMARK   13  A    between atoms: C_21  and  C_22 
REMARK   14  A    between atoms: C_27  and  O_28 
ROOT
HETATM    1  C   UNK N   1      29.006  23.254  -5.097  0.00  0.00     0.179 C 
ENDROOT
BRANCH   1   2
HETATM    2  N   UNK N   1      28.137  24.264  -5.678  0.00  0.00    -0.324 N 
HETATM    3  C   UNK N   1      26.819  24.489  -5.375  0.00  0.00     0.361 C 
HETATM    4  O   UNK N   1      26.277  23.937  -4.437  0.00  0.00    -0.238 OA
HETATM    5  H   UNK N   1      28.538  24.850  -6.361  0.00  0.00     0.165 HD
BRANCH   3   6
HETATM    6  O   UNK N   1      26.076  25.260  -6.199  0.00  0.00    -0.299 OA
BRANCH   6   7
HETATM    7  C   UNK N   1      25.195  26.183  -5.693  0.00  0.00     0.219 C 
BRANCH   7   8
HETATM    8  C   UNK N   1      25.897  27.442  -5.371  0.00  0.00    -0.034 A 
HETATM    9  C   UNK N   1      25.586  28.128  -4.195  0.00  0.00     0.009 A 
HETATM   10  C   UNK N   1      26.266  29.305  -3.877  0.00  0.00     0.001 A 
HETATM   11  C   UNK N   1      27.262  29.789  -4.732  0.00  0.00     0.000 A 
HETATM   12  C   UNK N   1      27.574  29.097  -5.907  0.00  0.00     0.001 A 
HETATM   13  C   UNK N   1      26.891  27.923  -6.226  0.00  0.00     0.009 A 
ENDBRANCH   7   8
ENDBRANCH   6   7
ENDBRANCH   3   6
ENDBRANCH   1   2
BRANCH   1  14
HETATM   14  C   UNK N   1      29.324  22.084  -5.968  0.00  0.00     0.240 C 
HETATM   15  N   UNK N   1      28.750  22.122  -7.189  0.00  0.00    -0.352 N 
HETATM   16  H   UNK N   1      28.615  23.018  -7.574  0.00  0.00     0.163 HD
HETATM   17  O   UNK N   1      29.810  21.055  -5.521  0.00  0.00    -0.271 OA
BRANCH  15  18
HETATM   18  C   UNK N   1      28.309  21.019  -7.997  0.00  0.00     0.115 C 
BRANCH  18  19
HETATM   19  C   UNK N   1      27.024  21.565  -8.669  0.00  0.00     0.164 C 
BRANCH  19  20
HETATM   20  O   UNK N   1      26.884  22.918  -8.345  0.00  0.00    -0.391 OA
HETATM   21  H   UNK N   1      26.379  23.486  -7.743  0.00  0.00     0.210 HD
ENDBRANCH  19  20
BRANCH  19  22
HETATM   22  C   UNK N   1      25.735  20.837  -8.327  0.00  0.00     0.200 C 
BRANCH  22  23
HETATM   23  O   UNK N   1      24.806  21.767  -7.847  0.00  0.00    -0.393 OA
HETATM   24  C   UNK N   1      24.255  21.176  -6.715  0.00  0.00     0.201 C 
ENDBRANCH  22  23
ENDBRANCH  19  22
ENDBRANCH  18  19
BRANCH  18  25
HETATM   25  C   UNK N   1      29.412  20.661  -9.000  0.00  0.00     0.031 C 
BRANCH  25  26
HETATM   26  C   UNK N   1      30.044  19.298  -8.691  0.00  0.00    -0.021 C 
HETATM   27  C   UNK N   1      30.258  18.520  -9.971  0.00  0.00     0.009 C 
HETATM   28  C   UNK N   1      29.188  18.476  -7.745  0.00  0.00     0.009 C 
ENDBRANCH  25  26
ENDBRANCH  18  25
ENDBRANCH  15  18
ENDBRANCH   1  14
BRANCH   1  29
HETATM   29  C   UNK N   1      30.357  23.773  -4.586  0.00  0.00     0.038 C 
BRANCH  29  30
HETATM   30  C   UNK N   1      30.547  23.538  -3.104  0.00  0.00    -0.020 C 
HETATM   31  C   UNK N   1      29.213  23.149  -2.499  0.00  0.00     0.009 C 
HETATM   32  C   UNK N   1      31.528  22.405  -2.908  0.00  0.00     0.009 C 
ENDBRANCH  29  30
ENDBRANCH   1  29
TORSDOF 14
ENDMDL
MODEL 9
REMARK VINA RESULT:      -6.1     17.920     22.215
REMARK  14 active torsions:
REMARK  status: ('A' for Active; 'I' for Inactive)
REMARK    1  A    between atoms: C_3  and  C_7 
REMARK    2  A    between atoms: C_7  and  O_8 
REMARK    3  A    between atoms: O_8  and  C_9 
REMARK       I    between atoms: C_9  and  N_11 
REMARK    4  A    between atoms: C_12  and  N_11 
REMARK    5  A    between atoms: C_12  and  C_13 
REMARK    6  A    between atoms: C_12  and  C_21 
REMARK       I    between atoms: C_13  and  N_14 
REMARK    7  A    between atoms: C_15  and  N_14 
REMARK    8  A    between atoms: C_15  and  C_16 
REMARK    9  A    between atoms: C_15  and  C_17 
REMARK   10  A    between atoms: C_16  and  O_26 
REMARK   11  A    between atoms: C_16  and  C_27 
REMARK   12  A    between atoms: C_17  and  C_18 
REMARK   13  A    between atoms: C_21  and  C_22 
REMARK   14  A    between atoms: C_27  and  O_28 
ROOT
HETATM    1  C   UNK N   1      28.613  24.320  -4.593  0.00  0.00     0.179 C 
ENDROOT
BRANCH   1   2
HETATM    2  N   UNK N   1      28.049  25.432  -3.846  0.00  0.00    -0.324 N 
HETATM    3  C   UNK N   1      26.729  25.622  -3.524  0.00  0.00     0.361 C 
HETATM    4  O   UNK N   1      25.896  24.757  -3.710  0.00  0.00    -0.238 OA
HETATM    5  H   UNK N   1      28.681  26.121  -3.538  0.00  0.00     0.165 HD
BRANCH   3   6
HETATM    6  O   UNK N   1      26.326  26.835  -3.086  0.00  0.00    -0.299 OA
BRANCH   6   7
HETATM    7  C   UNK N   1      25.592  27.666  -3.895  0.00  0.00     0.219 C 
BRANCH   7   8
HETATM    8  C   UNK N   1      26.428  28.779  -4.385  0.00  0.00    -0.034 A 
HETATM    9  C   UNK N   1      26.470  29.980  -3.674  0.00  0.00     0.009 A 
HETATM   10  C   UNK N   1      27.280  31.026  -4.123  0.00  0.00     0.001 A 
HETATM   11  C   UNK N   1      28.052  30.863  -5.279  0.00  0.00     0.000 A 
HETATM   12  C   UNK N   1      28.011  29.658  -5.987  0.00  0.00     0.001 A 
HETATM   13  C   UNK N   1      27.198  28.615  -5.539  0.00  0.00     0.009 A 
ENDBRANCH   7   8
ENDBRANCH   6   7
ENDBRANCH   3   6
ENDBRANCH   1   2
BRANCH   1  14
HETATM   14  C   UNK N   1      28.717  24.509  -6.070  0.00  0.00     0.240 C 
HETATM   15  N   UNK N   1      27.717  25.235  -6.615  0.00  0.00    -0.352 N 
HETATM   16  H   UNK N   1      27.331  25.935  -6.040  0.00  0.00     0.163 HD
HETATM   17  O   UNK N   1      29.465  23.831  -6.760  0.00  0.00    -0.271 OA
BRANCH  15  18
HETATM   18  C   UNK N   1      27.144  25.112  -7.926  0.00  0.00     0.115 C 
BRANCH  18  19
HETATM   19  C   UNK N   1      25.800  24.389  -7.657  0.00  0.00     0.164 C 
BRANCH  19  20
HETATM   20  O   UNK N   1      25.248  24.887  -6.473  0.00  0.00    -0.391 OA
HETATM   21  H   UNK N   1      25.184  24.657  -5.533  0.00  0.00     0.210 HD
ENDBRANCH  19  20
BRANCH  19  22
HETATM   22  C   UNK N   1      25.866  22.874  -7.575  0.00  0.00     0.200 C 
BRANCH  22  23
HETATM   23  O   UNK N   1      24.589  22.353  -7.810  0.00  0.00    -0.393 OA
HETATM   24  C   UNK N   1      24.486  21.252  -6.966  0.00  0.00     0.201 C 
ENDBRANCH  22  23
ENDBRANCH  19  22
ENDBRANCH  18  19
BRANCH  18  25
HETATM   25  C   UNK N   1      26.970  26.511  -8.529  0.00  0.00     0.031 C 
BRANCH  25  26
HETATM   26  C   UNK N   1      28.037  26.812  -9.587  0.00  0.00    -0.021 C 
HETATM   27  C   UNK N   1      28.834  25.564  -9.897  0.00  0.00     0.009 C 
HETATM   28  C   UNK N   1      28.985  27.912  -9.143  0.00  0.00     0.009 C 
ENDBRANCH  25  26
ENDBRANCH  18  25
ENDBRANCH  15  18
ENDBRANCH   1  14
BRANCH   1  29
HETATM   29  C   UNK N   1      30.003  23.865  -4.132  0.00  0.00     0.038 C 
BRANCH  29  30
HETATM   30  C   UNK N   1      29.956  22.603  -3.298  0.00  0.00    -0.020 C 
HETATM   31  C   UNK N   1      31.359  22.042  -3.186  0.00  0.00     0.009 C 
HETATM   32  C   UNK N   1      29.447  22.946  -1.917  0.00  0.00     0.009 C 
ENDBRANCH  29  30
ENDBRANCH   1  29
TORSDOF 14
ENDMDL
