REMARK  14 active torsions:
REMARK  status: ('A' for Active; 'I' for Inactive)
REMARK    1  A    between atoms: C_3  and  C_7 
REMARK    2  A    between atoms: C_7  and  O_8 
REMARK    3  A    between atoms: O_8  and  C_9 
REMARK       I    between atoms: C_9  and  N_11 
REMARK    4  A    between atoms: C_12  and  N_11 
REMARK    5  A    between atoms: C_12  and  C_13 
REMARK    6  A    between atoms: C_12  and  C_21 
REMARK       I    between atoms: C_13  and  N_14 
REMARK    7  A    between atoms: C_15  and  N_14 
REMARK    8  A    between atoms: C_15  and  C_16 
REMARK    9  A    between atoms: C_15  and  C_17 
REMARK   10  A    between atoms: C_16  and  O_26 
REMARK   11  A    between atoms: C_16  and  C_27 
REMARK   12  A    between atoms: C_17  and  C_18 
REMARK   13  A    between atoms: C_21  and  C_22 
REMARK   14  A    between atoms: C_27  and  O_28 
ROOT
HETATM    1  C   UNK N   1      -0.680  -1.046  -0.304  0.00  0.00     0.179 C 
ENDROOT
BRANCH   1   2
HETATM    2  N   UNK N   1      -2.108  -0.793  -0.213  0.00  0.00    -0.324 N 
HETATM    3  C   UNK N   1      -3.046  -1.581   0.403  0.00  0.00     0.361 C 
HETATM    4  O   UNK N   1      -2.728  -2.529   1.095  0.00  0.00    -0.238 OA
HETATM    5  H   UNK N   1      -2.437   0.032  -0.638  0.00  0.00     0.165 HD
BRANCH   3   6
HETATM    6  O   UNK N   1      -4.356  -1.364   0.153  0.00  0.00    -0.299 OA
BRANCH   6   7
HETATM    7  C   UNK N   1      -4.749  -0.533  -0.866  0.00  0.00     0.219 C 
BRANCH   7   8
HETATM    8  C   UNK N   1      -5.691   0.487  -0.364  0.00  0.00    -0.034 A 
HETATM    9  C   UNK N   1      -5.312   1.831  -0.345  0.00  0.00     0.009 A 
HETATM   10  C   UNK N   1      -6.210   2.800   0.107  0.00  0.00     0.001 A 
HETATM   11  C   UNK N   1      -7.489   2.422   0.531  0.00  0.00     0.000 A 
HETATM   12  C   UNK N   1      -7.867   1.076   0.507  0.00  0.00     0.001 A 
HETATM   13  C   UNK N   1      -6.967   0.108   0.059  0.00  0.00     0.009 A 
ENDBRANCH   7   8
ENDBRANCH   6   7
ENDBRANCH   3   6
ENDBRANCH   1   2
BRANCH   1  14
HETATM   14  C   UNK N   1       0.212   0.084   0.092  0.00  0.00     0.240 C 
HETATM   15  N   UNK N   1       1.465   0.010  -0.405  0.00  0.00    -0.352 N 
HETATM   16  H   UNK N   1       1.554  -0.421  -1.286  0.00  0.00     0.163 HD
HETATM   17  O   UNK N   1      -0.069   0.842   1.010  0.00  0.00    -0.271 OA
BRANCH  15  18
HETATM   18  C   UNK N   1       2.685   0.479   0.190  0.00  0.00     0.115 C 
BRANCH  18  19
HETATM   19  C   UNK N   1       3.558  -0.799   0.259  0.00  0.00     0.164 C 
BRANCH  19  20
HETATM   20  O   UNK N   1       3.068  -1.627   1.273  0.00  0.00    -0.391 OA
HETATM   21  H   UNK N   1       2.401  -1.620   1.976  0.00  0.00     0.210 HD
ENDBRANCH  19  20
BRANCH  19  22
HETATM   22  C   UNK N   1       5.045  -0.576   0.476  0.00  0.00     0.200 C 
BRANCH  22  23
HETATM   23  O   UNK N   1       5.639  -0.269  -0.753  0.00  0.00    -0.393 OA
HETATM   24  C   UNK N   1       6.973  -0.011  -0.456  0.00  0.00     0.201 C 
ENDBRANCH  22  23
ENDBRANCH  19  22
ENDBRANCH  18  19
BRANCH  18  25
HETATM   25  C   UNK N   1       3.285   1.576  -0.697  0.00  0.00     0.031 C 
BRANCH  25  26
HETATM   26  C   UNK N   1       3.677   2.816   0.115  0.00  0.00    -0.021 C 
HETATM   27  C   UNK N   1       4.076   3.943  -0.812  0.00  0.00     0.009 C 
HETATM   28  C   UNK N   1       4.819   2.531   1.074  0.00  0.00     0.009 C 
ENDBRANCH  25  26
ENDBRANCH  18  25
ENDBRANCH  15  18
ENDBRANCH   1  14
BRANCH   1  29
HETATM   29  C   UNK N   1      -0.183  -2.265   0.484  0.00  0.00     0.038 C 
BRANCH  29  30
HETATM   30  C   UNK N   1      -0.029  -3.495  -0.383  0.00  0.00    -0.020 C 
HETATM   31  C   UNK N   1       1.424  -3.619  -0.796  0.00  0.00     0.009 C 
HETATM   32  C   UNK N   1      -0.421  -4.714   0.420  0.00  0.00     0.009 C 
ENDBRANCH  29  30
ENDBRANCH   1  29
TORSDOF 14
