MODEL 1
REMARK VINA RESULT:      -8.0      0.000      0.000
REMARK  4 active torsions:
REMARK  status: ('A' for Active; 'I' for Inactive)
REMARK    1  A    between atoms: C_3  and  N_7 
REMARK    2  A    between atoms: C_6  and  S_24 
REMARK    3  A    between atoms: C_10  and  C_21 
REMARK       I    between atoms: C_21  and  N_22 
REMARK    4  A    between atoms: S_24  and  N_27 
ROOT
HETATM    1  N   UNK N   1      31.365  16.858   6.499  0.00  0.00    -0.254 N 
HETATM    2  C   UNK N   1      30.103  17.364   6.525  0.00  0.00     0.083 A 
HETATM    3  C   UNK N   1      29.594  17.351   5.247  0.00  0.00     0.027 A 
HETATM    4  C   UNK N   1      30.593  16.824   4.455  0.00  0.00     0.129 A 
HETATM    5  N   UNK N   1      31.665  16.544   5.240  0.00  0.00    -0.287 N 
ATOM      6  HN  UNK N   1      32.552  16.157   4.918  1.00  0.00     0.188 HD
HETATM    7  C   UNK N   1      29.321  17.903   7.559  0.00  0.00     0.038 A 
HETATM    8  C   UNK N   1      28.308  17.834   4.935  0.00  0.00     0.018 A 
HETATM    9  C   UNK N   1      27.522  18.367   5.983  0.00  0.00     0.033 A 
HETATM   10  C   UNK N   1      28.070  18.387   7.275  0.00  0.00     0.062 A 
HETATM   11  C   UNK N   1      29.499  18.119   8.908  0.00  0.00     0.123 A 
HETATM   12  N   UNK N   1      27.507  18.870   8.390  0.00  0.00    -0.300 N 
HETATM   13  N   UNK N   1      28.375  18.707   9.384  0.00  0.00    -0.310 N 
ATOM     14  HN  UNK N   1      28.219  18.981  10.354  1.00  0.00     0.186 HD
HETATM   15  H   UNK N   1      26.612  19.273   8.461  0.00  0.00     0.187 HD
ENDROOT
BRANCH   1  16
HETATM   16  C   UNK N   1      32.303  16.700   7.584  0.00  0.00     0.057 A 
HETATM   17  C   UNK N   1      32.281  15.538   8.367  0.00  0.00     0.033 A 
HETATM   18  C   UNK N   1      33.255  15.326   9.351  0.00  0.00     0.027 A 
HETATM   19  C   UNK N   1      34.255  16.283   9.602  0.00  0.00     0.079 A 
HETATM   20  C   UNK N   1      34.223  17.484   8.846  0.00  0.00     0.027 A 
HETATM   21  C   UNK N   1      33.268  17.671   7.853  0.00  0.00     0.033 A 
BRANCH  19  22
HETATM   22  S   UNK N   1      35.531  15.853  10.878  0.00  0.00     0.256 S 
HETATM   23  O   UNK N   1      37.044  16.113  10.922  0.00  0.00    -0.201 OA
HETATM   24  O   UNK N   1      35.709  17.295  10.377  0.00  0.00    -0.201 OA
BRANCH  22  25
HETATM   25  N   UNK N   1      36.115  14.845   9.542  0.00  0.00    -0.324 N 
HETATM   26  H   UNK N   1      35.559  14.733   8.694  0.00  0.00     0.169 HD
HETATM   27  H   UNK N   1      37.015  14.371   9.622  0.00  0.00     0.169 HD
ENDBRANCH  22  25
ENDBRANCH  19  22
ENDBRANCH   1  16
BRANCH   4  28
HETATM   28  C   UNK N   1      30.549  16.609   2.996  0.00  0.00     0.268 C 
HETATM   29  N   UNK N   1      31.547  17.070   2.215  0.00  0.00    -0.365 N 
HETATM   30  H   UNK N   1      31.521  16.920   1.243  0.00  0.00     0.159 HD
HETATM   31  H   UNK N   1      32.302  17.557   2.618  0.00  0.00     0.159 HD
HETATM   32  O   UNK N   1      29.613  16.014   2.488  0.00  0.00    -0.266 OA
ENDBRANCH   4  28
TORSDOF 4
ENDMDL
MODEL 2
REMARK VINA RESULT:      -7.8      2.202      4.130
REMARK  4 active torsions:
REMARK  status: ('A' for Active; 'I' for Inactive)
REMARK    1  A    between atoms: C_3  and  N_7 
REMARK    2  A    between atoms: C_6  and  S_24 
REMARK    3  A    between atoms: C_10  and  C_21 
REMARK       I    between atoms: C_21  and  N_22 
REMARK    4  A    between atoms: S_24  and  N_27 
ROOT
HETATM    1  N   UNK N   1      31.528  16.696   8.191  0.00  0.00    -0.254 N 
HETATM    2  C   UNK N   1      31.054  17.083   6.976  0.00  0.00     0.083 A 
HETATM    3  C   UNK N   1      29.749  17.494   7.122  0.00  0.00     0.027 A 
HETATM    4  C   UNK N   1      29.457  17.338   8.460  0.00  0.00     0.129 A 
HETATM    5  N   UNK N   1      30.553  16.838   9.086  0.00  0.00    -0.287 N 
ATOM      6  HN  UNK N   1      30.618  16.611  10.078  1.00  0.00     0.188 HD
HETATM    7  C   UNK N   1      31.623  17.080   5.694  0.00  0.00     0.038 A 
HETATM    8  C   UNK N   1      28.966  17.938   6.037  0.00  0.00     0.018 A 
HETATM    9  C   UNK N   1      29.549  17.940   4.749  0.00  0.00     0.033 A 
HETATM   10  C   UNK N   1      30.876  17.498   4.623  0.00  0.00     0.062 A 
HETATM   11  C   UNK N   1      32.842  16.711   5.166  0.00  0.00     0.123 A 
HETATM   12  N   UNK N   1      31.597  17.397   3.499  0.00  0.00    -0.300 N 
HETATM   13  N   UNK N   1      32.793  16.919   3.828  0.00  0.00    -0.310 N 
ATOM     14  HN  UNK N   1      33.555  16.738   3.175  1.00  0.00     0.186 HD
HETATM   15  H   UNK N   1      31.295  17.634   2.593  0.00  0.00     0.187 HD
ENDROOT
BRANCH   1  16
HETATM   16  C   UNK N   1      32.826  16.164   8.532  0.00  0.00     0.057 A 
HETATM   17  C   UNK N   1      33.805  17.004   9.082  0.00  0.00     0.033 A 
HETATM   18  C   UNK N   1      35.028  16.477   9.517  0.00  0.00     0.027 A 
HETATM   19  C   UNK N   1      35.318  15.107   9.383  0.00  0.00     0.079 A 
HETATM   20  C   UNK N   1      34.342  14.283   8.763  0.00  0.00     0.027 A 
HETATM   21  C   UNK N   1      33.121  14.812   8.361  0.00  0.00     0.033 A 
BRANCH  19  22
HETATM   22  S   UNK N   1      36.940  14.520  10.066  0.00  0.00     0.256 S 
HETATM   23  O   UNK N   1      37.274  13.726  11.337  0.00  0.00    -0.201 OA
HETATM   24  O   UNK N   1      35.870  13.419  10.149  0.00  0.00    -0.201 OA
BRANCH  22  25
HETATM   25  N   UNK N   1      36.495  15.668  11.341  0.00  0.00    -0.324 N 
HETATM   26  H   UNK N   1      36.768  15.500  12.309  0.00  0.00     0.169 HD
HETATM   27  H   UNK N   1      35.961  16.504  11.104  0.00  0.00     0.169 HD
ENDBRANCH  22  25
ENDBRANCH  19  22
ENDBRANCH   1  16
BRANCH   4  28
HETATM   28  C   UNK N   1      28.175  17.629   9.129  0.00  0.00     0.268 C 
HETATM   29  N   UNK N   1      27.593  18.836   8.979  0.00  0.00    -0.365 N 
HETATM   30  H   UNK N   1      26.735  19.027   9.420  0.00  0.00     0.159 HD
HETATM   31  H   UNK N   1      28.028  19.526   8.428  0.00  0.00     0.159 HD
HETATM   32  O   UNK N   1      27.633  16.782   9.821  0.00  0.00    -0.266 OA
ENDBRANCH   4  28
TORSDOF 4
ENDMDL
MODEL 3
REMARK VINA RESULT:      -7.5      8.216     10.409
REMARK  4 active torsions:
REMARK  status: ('A' for Active; 'I' for Inactive)
REMARK    1  A    between atoms: C_3  and  N_7 
REMARK    2  A    between atoms: C_6  and  S_24 
REMARK    3  A    between atoms: C_10  and  C_21 
REMARK       I    between atoms: C_21  and  N_22 
REMARK    4  A    between atoms: S_24  and  N_27 
ROOT
HETATM    1  N   UNK N   1      23.126  17.728   5.060  0.00  0.00    -0.254 N 
HETATM    2  C   UNK N   1      22.496  18.463   4.104  0.00  0.00     0.083 A 
HETATM    3  C   UNK N   1      23.333  19.481   3.707  0.00  0.00     0.027 A 
HETATM    4  C   UNK N   1      24.480  19.334   4.457  0.00  0.00     0.129 A 
HETATM    5  N   UNK N   1      24.323  18.267   5.282  0.00  0.00    -0.287 N 
ATOM      6  HN  UNK N   1      25.010  17.933   5.958  1.00  0.00     0.188 HD
HETATM    7  C   UNK N   1      21.213  18.384   3.543  0.00  0.00     0.038 A 
HETATM    8  C   UNK N   1      22.962  20.436   2.740  0.00  0.00     0.018 A 
HETATM    9  C   UNK N   1      21.670  20.345   2.172  0.00  0.00     0.033 A 
HETATM   10  C   UNK N   1      20.828  19.309   2.607  0.00  0.00     0.062 A 
HETATM   11  C   UNK N   1      20.120  17.562   3.714  0.00  0.00     0.123 A 
HETATM   12  N   UNK N   1      19.570  19.066   2.220  0.00  0.00    -0.300 N 
HETATM   13  N   UNK N   1      19.138  18.004   2.892  0.00  0.00    -0.310 N 
ATOM     14  HN  UNK N   1      18.212  17.585   2.802  1.00  0.00     0.186 HD
HETATM   15  H   UNK N   1      19.057  19.581   1.557  0.00  0.00     0.187 HD
ENDROOT
BRANCH   1  16
HETATM   16  C   UNK N   1      22.640  16.584   5.793  0.00  0.00     0.057 A 
HETATM   17  C   UNK N   1      23.150  15.307   5.519  0.00  0.00     0.033 A 
HETATM   18  C   UNK N   1      22.765  14.208   6.298  0.00  0.00     0.027 A 
HETATM   19  C   UNK N   1      21.838  14.348   7.346  0.00  0.00     0.079 A 
HETATM   20  C   UNK N   1      21.281  15.635   7.566  0.00  0.00     0.027 A 
HETATM   21  C   UNK N   1      21.691  16.724   6.806  0.00  0.00     0.033 A 
BRANCH  19  22
HETATM   22  S   UNK N   1      21.468  12.833   8.351  0.00  0.00     0.256 S 
HETATM   23  O   UNK N   1      20.767  12.666   9.707  0.00  0.00    -0.201 OA
HETATM   24  O   UNK N   1      20.256  13.776   8.300  0.00  0.00    -0.201 OA
BRANCH  22  25
HETATM   25  N   UNK N   1      22.605  13.633   9.451  0.00  0.00    -0.324 N 
HETATM   26  H   UNK N   1      23.054  14.510   9.187  0.00  0.00     0.169 HD
HETATM   27  H   UNK N   1      22.812  13.212  10.357  0.00  0.00     0.169 HD
ENDBRANCH  22  25
ENDBRANCH  19  22
ENDBRANCH   1  16
BRANCH   4  28
HETATM   28  C   UNK N   1      25.684  20.186   4.416  0.00  0.00     0.268 C 
HETATM   29  N   UNK N   1      26.429  20.249   3.295  0.00  0.00    -0.365 N 
HETATM   30  H   UNK N   1      27.227  20.823   3.265  0.00  0.00     0.159 HD
HETATM   31  H   UNK N   1      26.173  19.721   2.504  0.00  0.00     0.159 HD
HETATM   32  O   UNK N   1      26.012  20.838   5.394  0.00  0.00    -0.266 OA
ENDBRANCH   4  28
TORSDOF 4
ENDMDL
MODEL 4
REMARK VINA RESULT:      -7.3      3.925      5.216
REMARK  4 active torsions:
REMARK  status: ('A' for Active; 'I' for Inactive)
REMARK    1  A    between atoms: C_3  and  N_7 
REMARK    2  A    between atoms: C_6  and  S_24 
REMARK    3  A    between atoms: C_10  and  C_21 
REMARK       I    between atoms: C_21  and  N_22 
REMARK    4  A    between atoms: S_24  and  N_27 
ROOT
HETATM    1  N   UNK N   1      29.854  17.520   5.027  0.00  0.00    -0.254 N 
HETATM    2  C   UNK N   1      29.514  17.729   6.328  0.00  0.00     0.083 A 
HETATM    3  C   UNK N   1      28.433  18.580   6.371  0.00  0.00     0.027 A 
HETATM    4  C   UNK N   1      28.141  18.876   5.057  0.00  0.00     0.129 A 
HETATM    5  N   UNK N   1      29.028  18.229   4.260  0.00  0.00    -0.287 N 
ATOM      6  HN  UNK N   1      29.057  18.276   3.241  1.00  0.00     0.188 HD
HETATM    7  C   UNK N   1      30.078  17.290   7.535  0.00  0.00     0.038 A 
HETATM    8  C   UNK N   1      27.852  19.010   7.580  0.00  0.00     0.018 A 
HETATM    9  C   UNK N   1      28.420  18.557   8.794  0.00  0.00     0.033 A 
HETATM   10  C   UNK N   1      29.534  17.705   8.723  0.00  0.00     0.062 A 
HETATM   11  C   UNK N   1      31.150  16.497   7.882  0.00  0.00     0.123 A 
HETATM   12  N   UNK N   1      30.230  17.190   9.745  0.00  0.00    -0.300 N 
HETATM   13  N   UNK N   1      31.213  16.455   9.235  0.00  0.00    -0.310 N 
ATOM     14  HN  UNK N   1      31.907  15.940   9.777  1.00  0.00     0.186 HD
HETATM   15  H   UNK N   1      30.048  17.331  10.702  0.00  0.00     0.187 HD
ENDROOT
BRANCH   1  16
HETATM   16  C   UNK N   1      30.934  16.731   4.486  0.00  0.00     0.057 A 
HETATM   17  C   UNK N   1      30.812  15.336   4.407  0.00  0.00     0.033 A 
HETATM   18  C   UNK N   1      31.807  14.571   3.785  0.00  0.00     0.027 A 
HETATM   19  C   UNK N   1      32.963  15.173   3.258  0.00  0.00     0.079 A 
HETATM   20  C   UNK N   1      33.103  16.578   3.407  0.00  0.00     0.027 A 
HETATM   21  C   UNK N   1      32.096  17.330   4.001  0.00  0.00     0.033 A 
BRANCH  19  22
HETATM   22  S   UNK N   1      34.171  14.062   2.393  0.00  0.00     0.256 S 
HETATM   23  O   UNK N   1      34.465  13.856   0.899  0.00  0.00    -0.201 OA
HETATM   24  O   UNK N   1      34.178  15.472   1.783  0.00  0.00    -0.201 OA
BRANCH  22  25
HETATM   25  N   UNK N   1      32.658  13.339   1.818  0.00  0.00    -0.324 N 
HETATM   26  H   UNK N   1      31.815  13.373   2.392  0.00  0.00     0.169 HD
HETATM   27  H   UNK N   1      32.629  12.884   0.905  0.00  0.00     0.169 HD
ENDBRANCH  22  25
ENDBRANCH  19  22
ENDBRANCH   1  16
BRANCH   4  28
HETATM   28  C   UNK N   1      27.069  19.762   4.563  0.00  0.00     0.268 C 
HETATM   29  N   UNK N   1      26.114  19.276   3.745  0.00  0.00    -0.365 N 
HETATM   30  H   UNK N   1      25.395  19.865   3.422  0.00  0.00     0.159 HD
HETATM   31  H   UNK N   1      26.136  18.330   3.471  0.00  0.00     0.159 HD
HETATM   32  O   UNK N   1      27.039  20.937   4.892  0.00  0.00    -0.266 OA
ENDBRANCH   4  28
TORSDOF 4
ENDMDL
MODEL 5
REMARK VINA RESULT:      -7.2      8.004     10.129
REMARK  4 active torsions:
REMARK  status: ('A' for Active; 'I' for Inactive)
REMARK    1  A    between atoms: C_3  and  N_7 
REMARK    2  A    between atoms: C_6  and  S_24 
REMARK    3  A    between atoms: C_10  and  C_21 
REMARK       I    between atoms: C_21  and  N_22 
REMARK    4  A    between atoms: S_24  and  N_27 
ROOT
HETATM    1  N   UNK N   1      22.760  17.939   4.310  0.00  0.00    -0.254 N 
HETATM    2  C   UNK N   1      23.918  18.612   4.069  0.00  0.00     0.083 A 
HETATM    3  C   UNK N   1      23.642  19.690   3.259  0.00  0.00     0.027 A 
HETATM    4  C   UNK N   1      22.285  19.639   3.022  0.00  0.00     0.129 A 
HETATM    5  N   UNK N   1      21.774  18.556   3.662  0.00  0.00    -0.287 N 
ATOM      6  HN  UNK N   1      20.797  18.265   3.650  1.00  0.00     0.188 HD
HETATM    7  C   UNK N   1      25.248  18.368   4.442  0.00  0.00     0.038 A 
HETATM    8  C   UNK N   1      24.639  20.577   2.809  0.00  0.00     0.018 A 
HETATM    9  C   UNK N   1      25.977  20.332   3.196  0.00  0.00     0.033 A 
HETATM   10  C   UNK N   1      26.235  19.214   4.006  0.00  0.00     0.062 A 
HETATM   11  C   UNK N   1      25.895  17.401   5.179  0.00  0.00     0.123 A 
HETATM   12  N   UNK N   1      27.424  18.793   4.456  0.00  0.00    -0.300 N 
HETATM   13  N   UNK N   1      27.219  17.691   5.170  0.00  0.00    -0.310 N 
ATOM     14  HN  UNK N   1      27.944  17.147   5.638  1.00  0.00     0.186 HD
HETATM   15  H   UNK N   1      28.294  19.222   4.288  0.00  0.00     0.187 HD
ENDROOT
BRANCH   1  16
HETATM   16  C   UNK N   1      22.553  16.733   5.076  0.00  0.00     0.057 A 
HETATM   17  C   UNK N   1      22.100  16.813   6.400  0.00  0.00     0.033 A 
HETATM   18  C   UNK N   1      21.792  15.649   7.116  0.00  0.00     0.027 A 
HETATM   19  C   UNK N   1      21.959  14.377   6.541  0.00  0.00     0.079 A 
HETATM   20  C   UNK N   1      22.482  14.312   5.223  0.00  0.00     0.027 A 
HETATM   21  C   UNK N   1      22.758  15.474   4.512  0.00  0.00     0.033 A 
BRANCH  19  22
HETATM   22  S   UNK N   1      21.445  12.917   7.563  0.00  0.00     0.256 S 
HETATM   23  O   UNK N   1      20.665  12.832   8.884  0.00  0.00    -0.201 OA
HETATM   24  O   UNK N   1      20.297  13.928   7.422  0.00  0.00    -0.201 OA
BRANCH  22  25
HETATM   25  N   UNK N   1      22.569  13.679   8.702  0.00  0.00    -0.324 N 
HETATM   26  H   UNK N   1      23.079  14.524   8.442  0.00  0.00     0.169 HD
HETATM   27  H   UNK N   1      22.708  13.269   9.626  0.00  0.00     0.169 HD
ENDBRANCH  22  25
ENDBRANCH  19  22
ENDBRANCH   1  16
BRANCH   4  28
HETATM   28  C   UNK N   1      21.492  20.571   2.197  0.00  0.00     0.268 C 
HETATM   29  N   UNK N   1      20.628  21.424   2.783  0.00  0.00    -0.365 N 
HETATM   30  H   UNK N   1      20.105  22.050   2.233  0.00  0.00     0.159 HD
HETATM   31  H   UNK N   1      20.521  21.421   3.762  0.00  0.00     0.159 HD
HETATM   32  O   UNK N   1      21.612  20.576   0.983  0.00  0.00    -0.266 OA
ENDBRANCH   4  28
TORSDOF 4
ENDMDL
MODEL 6
REMARK VINA RESULT:      -7.0     12.429     14.891
REMARK  4 active torsions:
REMARK  status: ('A' for Active; 'I' for Inactive)
REMARK    1  A    between atoms: C_3  and  N_7 
REMARK    2  A    between atoms: C_6  and  S_24 
REMARK    3  A    between atoms: C_10  and  C_21 
REMARK       I    between atoms: C_21  and  N_22 
REMARK    4  A    between atoms: S_24  and  N_27 
ROOT
HETATM    1  N   UNK N   1      28.787  25.956  -4.089  0.00  0.00    -0.254 N 
HETATM    2  C   UNK N   1      27.623  25.987  -4.793  0.00  0.00     0.083 A 
HETATM    3  C   UNK N   1      27.042  27.224  -4.633  0.00  0.00     0.027 A 
HETATM    4  C   UNK N   1      27.893  27.930  -3.809  0.00  0.00     0.129 A 
HETATM    5  N   UNK N   1      28.941  27.131  -3.482  0.00  0.00    -0.287 N 
ATOM      6  HN  UNK N   1      29.717  27.389  -2.874  1.00  0.00     0.188 HD
HETATM    7  C   UNK N   1      26.951  25.016  -5.551  0.00  0.00     0.038 A 
HETATM    8  C   UNK N   1      25.809  27.566  -5.221  0.00  0.00     0.018 A 
HETATM    9  C   UNK N   1      25.141  26.587  -5.992  0.00  0.00     0.033 A 
HETATM   10  C   UNK N   1      25.745  25.326  -6.124  0.00  0.00     0.062 A 
HETATM   11  C   UNK N   1      27.188  23.701  -5.887  0.00  0.00     0.123 A 
HETATM   12  N   UNK N   1      25.268  24.261  -6.782  0.00  0.00    -0.300 N 
HETATM   13  N   UNK N   1      26.145  23.272  -6.639  0.00  0.00    -0.310 N 
ATOM     14  HN  UNK N   1      26.049  22.337  -7.034  1.00  0.00     0.186 HD
HETATM   15  H   UNK N   1      24.421  24.218  -7.281  0.00  0.00     0.187 HD
ENDROOT
BRANCH   1  16
HETATM   16  C   UNK N   1      29.724  24.870  -3.930  0.00  0.00     0.057 A 
HETATM   17  C   UNK N   1      29.448  23.833  -3.028  0.00  0.00     0.033 A 
HETATM   18  C   UNK N   1      30.296  22.721  -2.945  0.00  0.00     0.027 A 
HETATM   19  C   UNK N   1      31.457  22.632  -3.734  0.00  0.00     0.079 A 
HETATM   20  C   UNK N   1      31.757  23.721  -4.592  0.00  0.00     0.027 A 
HETATM   21  C   UNK N   1      30.893  24.807  -4.687  0.00  0.00     0.033 A 
BRANCH  19  22
HETATM   22  S   UNK N   1      32.456  21.076  -3.587  0.00  0.00     0.256 S 
HETATM   23  O   UNK N   1      33.754  20.776  -2.822  0.00  0.00    -0.201 OA
HETATM   24  O   UNK N   1      32.289  21.759  -2.221  0.00  0.00    -0.201 OA
BRANCH  22  25
HETATM   25  N   UNK N   1      33.631  22.087  -4.447  0.00  0.00    -0.324 N 
HETATM   26  H   UNK N   1      34.585  21.759  -4.600  0.00  0.00     0.169 HD
HETATM   27  H   UNK N   1      33.350  23.005  -4.793  0.00  0.00     0.169 HD
ENDBRANCH  22  25
ENDBRANCH  19  22
ENDBRANCH   1  16
BRANCH   4  28
HETATM   28  C   UNK N   1      27.716  29.312  -3.325  0.00  0.00     0.268 C 
HETATM   29  N   UNK N   1      27.974  30.353  -4.141  0.00  0.00    -0.365 N 
HETATM   30  H   UNK N   1      27.849  31.274  -3.819  0.00  0.00     0.159 HD
HETATM   31  H   UNK N   1      28.289  30.191  -5.060  0.00  0.00     0.159 HD
HETATM   32  O   UNK N   1      27.333  29.522  -2.185  0.00  0.00    -0.266 OA
ENDBRANCH   4  28
TORSDOF 4
ENDMDL
MODEL 7
REMARK VINA RESULT:      -6.9     12.252     15.537
REMARK  4 active torsions:
REMARK  status: ('A' for Active; 'I' for Inactive)
REMARK    1  A    between atoms: C_3  and  N_7 
REMARK    2  A    between atoms: C_6  and  S_24 
REMARK    3  A    between atoms: C_10  and  C_21 
REMARK       I    between atoms: C_21  and  N_22 
REMARK    4  A    between atoms: S_24  and  N_27 
ROOT
HETATM    1  N   UNK N   1      29.393  23.380  -4.280  0.00  0.00    -0.254 N 
HETATM    2  C   UNK N   1      29.368  22.472  -5.293  0.00  0.00     0.083 A 
HETATM    3  C   UNK N   1      30.346  21.530  -5.067  0.00  0.00     0.027 A 
HETATM    4  C   UNK N   1      30.958  21.905  -3.890  0.00  0.00     0.129 A 
HETATM    5  N   UNK N   1      30.368  23.041  -3.438  0.00  0.00    -0.287 N 
ATOM      6  HN  UNK N   1      30.628  23.550  -2.594  1.00  0.00     0.188 HD
HETATM    7  C   UNK N   1      28.599  22.382  -6.462  0.00  0.00     0.038 A 
HETATM    8  C   UNK N   1      30.590  20.462  -5.952  0.00  0.00     0.018 A 
HETATM    9  C   UNK N   1      29.805  20.372  -7.125  0.00  0.00     0.033 A 
HETATM   10  C   UNK N   1      28.827  21.355  -7.342  0.00  0.00     0.062 A 
HETATM   11  C   UNK N   1      27.595  23.134  -7.033  0.00  0.00     0.123 A 
HETATM   12  N   UNK N   1      28.005  21.467  -8.393  0.00  0.00    -0.300 N 
HETATM   13  N   UNK N   1      27.254  22.548  -8.206  0.00  0.00    -0.310 N 
ATOM     14  HN  UNK N   1      26.534  22.883  -8.845  1.00  0.00     0.186 HD
HETATM   15  H   UNK N   1      27.964  20.858  -9.165  0.00  0.00     0.187 HD
ENDROOT
BRANCH   1  16
HETATM   16  C   UNK N   1      28.582  24.559  -4.096  0.00  0.00     0.057 A 
HETATM   17  C   UNK N   1      29.103  25.824  -4.402  0.00  0.00     0.033 A 
HETATM   18  C   UNK N   1      28.289  26.962  -4.331  0.00  0.00     0.027 A 
HETATM   19  C   UNK N   1      26.947  26.872  -3.921  0.00  0.00     0.079 A 
HETATM   20  C   UNK N   1      26.455  25.594  -3.549  0.00  0.00     0.027 A 
HETATM   21  C   UNK N   1      27.263  24.467  -3.651  0.00  0.00     0.033 A 
BRANCH  19  22
HETATM   22  S   UNK N   1      25.954  28.439  -3.940  0.00  0.00     0.256 S 
HETATM   23  O   UNK N   1      26.368  29.895  -4.205  0.00  0.00    -0.201 OA
HETATM   24  O   UNK N   1      26.918  28.376  -5.136  0.00  0.00    -0.201 OA
BRANCH  22  25
HETATM   25  N   UNK N   1      26.997  28.782  -2.549  0.00  0.00    -0.324 N 
HETATM   26  H   UNK N   1      27.218  29.744  -2.290  0.00  0.00     0.169 HD
HETATM   27  H   UNK N   1      27.380  28.011  -2.002  0.00  0.00     0.169 HD
ENDBRANCH  22  25
ENDBRANCH  19  22
ENDBRANCH   1  16
BRANCH   4  28
HETATM   28  C   UNK N   1      32.083  21.226  -3.219  0.00  0.00     0.268 C 
HETATM   29  N   UNK N   1      32.737  20.226  -3.841  0.00  0.00    -0.365 N 
HETATM   30  H   UNK N   1      33.491  19.778  -3.396  0.00  0.00     0.159 HD
HETATM   31  H   UNK N   1      32.459  19.943  -4.743  0.00  0.00     0.159 HD
HETATM   32  O   UNK N   1      32.429  21.566  -2.099  0.00  0.00    -0.266 OA
ENDBRANCH   4  28
TORSDOF 4
ENDMDL
MODEL 8
REMARK VINA RESULT:      -6.7      4.092      7.145
REMARK  4 active torsions:
REMARK  status: ('A' for Active; 'I' for Inactive)
REMARK    1  A    between atoms: C_3  and  N_7 
REMARK    2  A    between atoms: C_6  and  S_24 
REMARK    3  A    between atoms: C_10  and  C_21 
REMARK       I    between atoms: C_21  and  N_22 
REMARK    4  A    between atoms: S_24  and  N_27 
ROOT
HETATM    1  N   UNK N   1      34.850  15.136  10.151  0.00  0.00    -0.254 N 
HETATM    2  C   UNK N   1      35.328  14.885   8.902  0.00  0.00     0.083 A 
HETATM    3  C   UNK N   1      34.687  15.714   8.009  0.00  0.00     0.027 A 
HETATM    4  C   UNK N   1      33.809  16.464   8.762  0.00  0.00     0.129 A 
HETATM    5  N   UNK N   1      33.919  16.083  10.061  0.00  0.00    -0.287 N 
ATOM      6  HN  UNK N   1      33.378  16.462  10.838  1.00  0.00     0.188 HD
HETATM    7  C   UNK N   1      36.258  13.955   8.415  0.00  0.00     0.038 A 
HETATM    8  C   UNK N   1      34.946  15.684   6.625  0.00  0.00     0.018 A 
HETATM    9  C   UNK N   1      35.891  14.750   6.141  0.00  0.00     0.033 A 
HETATM   10  C   UNK N   1      36.517  13.903   7.069  0.00  0.00     0.062 A 
HETATM   11  C   UNK N   1      37.039  12.968   8.975  0.00  0.00     0.123 A 
HETATM   12  N   UNK N   1      37.412  12.939   6.817  0.00  0.00    -0.300 N 
HETATM   13  N   UNK N   1      37.731  12.370   7.975  0.00  0.00    -0.310 N 
ATOM     14  HN  UNK N   1      38.394  11.604   8.093  1.00  0.00     0.186 HD
HETATM   15  H   UNK N   1      37.770  12.696   5.933  0.00  0.00     0.187 HD
ENDROOT
BRANCH   1  16
HETATM   16  C   UNK N   1      35.194  14.500  11.400  0.00  0.00     0.057 A 
HETATM   17  C   UNK N   1      36.012  15.165  12.323  0.00  0.00     0.033 A 
HETATM   18  C   UNK N   1      36.263  14.604  13.582  0.00  0.00     0.027 A 
HETATM   19  C   UNK N   1      35.733  13.351  13.938  0.00  0.00     0.079 A 
HETATM   20  C   UNK N   1      34.963  12.660  12.966  0.00  0.00     0.027 A 
HETATM   21  C   UNK N   1      34.697  13.239  11.731  0.00  0.00     0.033 A 
BRANCH  19  22
HETATM   22  S   UNK N   1      36.075  12.751  15.660  0.00  0.00     0.256 S 
HETATM   23  O   UNK N   1      35.634  13.295  17.027  0.00  0.00    -0.201 OA
HETATM   24  O   UNK N   1      34.596  13.129  15.487  0.00  0.00    -0.201 OA
BRANCH  22  25
HETATM   25  N   UNK N   1      36.925  14.305  15.727  0.00  0.00    -0.324 N 
HETATM   26  H   UNK N   1      36.520  15.137  15.299  0.00  0.00     0.169 HD
HETATM   27  H   UNK N   1      37.828  14.367  16.199  0.00  0.00     0.169 HD
ENDBRANCH  22  25
ENDBRANCH  19  22
ENDBRANCH   1  16
BRANCH   4  28
HETATM   28  C   UNK N   1      32.876  17.496   8.272  0.00  0.00     0.268 C 
HETATM   29  N   UNK N   1      31.562  17.221   8.161  0.00  0.00    -0.365 N 
HETATM   30  H   UNK N   1      30.939  17.912   7.841  0.00  0.00     0.159 HD
HETATM   31  H   UNK N   1      31.225  16.327   8.400  0.00  0.00     0.159 HD
HETATM   32  O   UNK N   1      33.287  18.604   7.966  0.00  0.00    -0.266 OA
ENDBRANCH   4  28
TORSDOF 4
ENDMDL
MODEL 9
REMARK VINA RESULT:      -6.6     10.200     13.942
REMARK  4 active torsions:
REMARK  status: ('A' for Active; 'I' for Inactive)
REMARK    1  A    between atoms: C_3  and  N_7 
REMARK    2  A    between atoms: C_6  and  S_24 
REMARK    3  A    between atoms: C_10  and  C_21 
REMARK       I    between atoms: C_21  and  N_22 
REMARK    4  A    between atoms: S_24  and  N_27 
ROOT
HETATM    1  N   UNK N   1      35.816  11.111  16.955  0.00  0.00    -0.254 N 
HETATM    2  C   UNK N   1      36.724  10.514  16.137  0.00  0.00     0.083 A 
HETATM    3  C   UNK N   1      36.897  11.301  15.020  0.00  0.00     0.027 A 
HETATM    4  C   UNK N   1      36.062  12.384  15.195  0.00  0.00     0.129 A 
HETATM    5  N   UNK N   1      35.406  12.238  16.375  0.00  0.00    -0.287 N 
ATOM      6  HN  UNK N   1      34.714  12.884  16.754  1.00  0.00     0.188 HD
HETATM    7  C   UNK N   1      37.416   9.297  16.221  0.00  0.00     0.038 A 
HETATM    8  C   UNK N   1      37.762  10.945  13.967  0.00  0.00     0.018 A 
HETATM    9  C   UNK N   1      38.463   9.720  14.062  0.00  0.00     0.033 A 
HETATM   10  C   UNK N   1      38.255   8.927  15.202  0.00  0.00     0.062 A 
HETATM   11  C   UNK N   1      37.465   8.261  17.128  0.00  0.00     0.123 A 
HETATM   12  N   UNK N   1      38.795   7.732  15.470  0.00  0.00    -0.300 N 
HETATM   13  N   UNK N   1      38.317   7.325  16.642  0.00  0.00    -0.310 N 
ATOM     14  HN  UNK N   1      38.553   6.447  17.103  1.00  0.00     0.186 HD
HETATM   15  H   UNK N   1      39.433   7.241  14.903  0.00  0.00     0.187 HD
ENDROOT
BRANCH   1  16
HETATM   16  C   UNK N   1      35.292  10.652  18.219  0.00  0.00     0.057 A 
HETATM   17  C   UNK N   1      35.681  11.283  19.409  0.00  0.00     0.033 A 
HETATM   18  C   UNK N   1      35.097  10.917  20.629  0.00  0.00     0.027 A 
HETATM   19  C   UNK N   1      34.137   9.892  20.697  0.00  0.00     0.079 A 
HETATM   20  C   UNK N   1      33.805   9.218  19.493  0.00  0.00     0.027 A 
HETATM   21  C   UNK N   1      34.370   9.608  18.284  0.00  0.00     0.033 A 
BRANCH  19  22
HETATM   22  S   UNK N   1      33.384   9.553  22.358  0.00  0.00     0.256 S 
HETATM   23  O   UNK N   1      31.929   9.635  22.844  0.00  0.00    -0.201 OA
HETATM   24  O   UNK N   1      32.544   8.934  21.230  0.00  0.00    -0.201 OA
BRANCH  22  25
HETATM   25  N   UNK N   1      33.059  11.292  22.249  0.00  0.00    -0.324 N 
HETATM   26  H   UNK N   1      33.112  11.775  21.352  0.00  0.00     0.169 HD
HETATM   27  H   UNK N   1      32.817  11.815  23.091  0.00  0.00     0.169 HD
ENDBRANCH  22  25
ENDBRANCH  19  22
ENDBRANCH   1  16
BRANCH   4  28
HETATM   28  C   UNK N   1      35.869  13.515  14.269  0.00  0.00     0.268 C 
HETATM   29  N   UNK N   1      36.793  14.494  14.197  0.00  0.00    -0.365 N 
HETATM   30  H   UNK N   1      36.667  15.245  13.574  0.00  0.00     0.159 HD
HETATM   31  H   UNK N   1      37.594  14.458  14.769  0.00  0.00     0.159 HD
HETATM   32  O   UNK N   1      34.876  13.572  13.563  0.00  0.00    -0.266 OA
ENDBRANCH   4  28
TORSDOF 4
ENDMDL
