MODEL 1
REMARK VINA RESULT:      -7.3      0.000      0.000
REMARK  3 active torsions:
REMARK  status: ('A' for Active; 'I' for Inactive)
REMARK    1  A    between atoms: C_2  and  N_18 
REMARK    2  A    between atoms: C_4  and  S_7 
REMARK    3  A    between atoms: S_7  and  C_10 
ROOT
HETATM    1  C   UNK N   1      30.397  20.875  -5.684  0.00  0.00     0.030 A 
HETATM    2  C   UNK N   1      30.587  21.288  -4.361  0.00  0.00     0.048 A 
HETATM    3  C   UNK N   1      29.862  22.380  -3.848  0.00  0.00     0.092 A 
HETATM    4  C   UNK N   1      28.920  23.023  -4.685  0.00  0.00     0.087 A 
HETATM    5  C   UNK N   1      28.753  22.600  -6.006  0.00  0.00     0.025 A 
HETATM    6  C   UNK N   1      29.492  21.538  -6.509  0.00  0.00     0.004 A 
HETATM    7  N   UNK N   1      30.314  23.099  -1.379  0.00  0.00    -0.191 NA
HETATM    8  C   UNK N   1      30.097  22.798  -2.477  0.00  0.00     0.103 C 
ENDROOT
BRANCH   2   9
HETATM    9  N   UNK N   1      31.493  20.578  -3.546  0.00  0.00    -0.398 N 
HETATM   10  H   UNK N   1      31.869  20.975  -2.728  0.00  0.00     0.156 HD
HETATM   11  H   UNK N   1      31.754  19.665  -3.803  0.00  0.00     0.156 HD
ENDBRANCH   2   9
BRANCH   4  12
HETATM   12  S   UNK N   1      27.890  24.365  -4.144  0.00  0.00     0.208 S 
HETATM   13  O   UNK N   1      27.113  23.934  -2.887  0.00  0.00    -0.217 OA
HETATM   14  O   UNK N   1      26.755  23.842  -5.042  0.00  0.00    -0.217 OA
BRANCH  12  15
HETATM   15  C   UNK N   1      27.414  26.005  -4.559  0.00  0.00     0.065 A 
HETATM   16  C   UNK N   1      26.208  26.176  -5.235  0.00  0.00     0.030 A 
HETATM   17  C   UNK N   1      25.474  27.340  -5.061  0.00  0.00    -0.060 A 
HETATM   18  C   UNK N   1      25.931  28.322  -4.172  0.00  0.00     0.013 A 
HETATM   19  C   UNK N   1      24.132  27.449  -5.683  0.00  0.00     0.048 C 
HETATM   20  C   UNK N   1      27.165  28.162  -3.529  0.00  0.00    -0.060 A 
HETATM   21  C   UNK N   1      27.892  26.999  -3.715  0.00  0.00     0.030 A 
HETATM   22  C   UNK N   1      27.614  29.128  -2.499  0.00  0.00     0.048 C 
ENDBRANCH  12  15
ENDBRANCH   4  12
TORSDOF 3
ENDMDL
MODEL 2
REMARK VINA RESULT:      -7.2      0.979      1.963
REMARK  3 active torsions:
REMARK  status: ('A' for Active; 'I' for Inactive)
REMARK    1  A    between atoms: C_2  and  N_18 
REMARK    2  A    between atoms: C_4  and  S_7 
REMARK    3  A    between atoms: S_7  and  C_10 
ROOT
HETATM    1  C   UNK N   1      30.228  21.013  -5.843  0.00  0.00     0.030 A 
HETATM    2  C   UNK N   1      30.533  21.351  -4.521  0.00  0.00     0.048 A 
HETATM    3  C   UNK N   1      29.856  22.407  -3.883  0.00  0.00     0.092 A 
HETATM    4  C   UNK N   1      28.843  23.092  -4.595  0.00  0.00     0.087 A 
HETATM    5  C   UNK N   1      28.560  22.744  -5.918  0.00  0.00     0.025 A 
HETATM    6  C   UNK N   1      29.252  21.717  -6.545  0.00  0.00     0.004 A 
HETATM    7  N   UNK N   1      30.525  22.987  -1.427  0.00  0.00    -0.191 NA
HETATM    8  C   UNK N   1      30.211  22.747  -2.517  0.00  0.00     0.103 C 
ENDROOT
BRANCH   2   9
HETATM    9  N   UNK N   1      31.509  20.601  -3.832  0.00  0.00    -0.398 N 
HETATM   10  H   UNK N   1      32.416  20.479  -4.195  0.00  0.00     0.156 HD
HETATM   11  H   UNK N   1      31.278  20.191  -2.967  0.00  0.00     0.156 HD
ENDBRANCH   2   9
BRANCH   4  12
HETATM   12  S   UNK N   1      27.864  24.394  -3.889  0.00  0.00     0.208 S 
HETATM   13  O   UNK N   1      27.143  23.865  -2.636  0.00  0.00    -0.217 OA
HETATM   14  O   UNK N   1      26.677  23.964  -4.770  0.00  0.00    -0.217 OA
BRANCH  12  15
HETATM   15  C   UNK N   1      27.394  26.070  -4.136  0.00  0.00     0.065 A 
HETATM   16  C   UNK N   1      28.367  26.952  -4.602  0.00  0.00     0.030 A 
HETATM   17  C   UNK N   1      28.001  28.039  -5.381  0.00  0.00    -0.060 A 
HETATM   18  C   UNK N   1      26.657  28.222  -5.730  0.00  0.00     0.013 A 
HETATM   19  C   UNK N   1      29.059  28.890  -5.978  0.00  0.00     0.048 C 
HETATM   20  C   UNK N   1      25.680  27.356  -5.222  0.00  0.00    -0.060 A 
HETATM   21  C   UNK N   1      26.055  26.277  -4.441  0.00  0.00     0.030 A 
HETATM   22  C   UNK N   1      24.270  27.458  -5.668  0.00  0.00     0.048 C 
ENDBRANCH  12  15
ENDBRANCH   4  12
TORSDOF 3
ENDMDL
MODEL 3
REMARK VINA RESULT:      -6.9     13.320     16.030
REMARK  3 active torsions:
REMARK  status: ('A' for Active; 'I' for Inactive)
REMARK    1  A    between atoms: C_2  and  N_18 
REMARK    2  A    between atoms: C_4  and  S_7 
REMARK    3  A    between atoms: S_7  and  C_10 
ROOT
HETATM    1  C   UNK N   1      35.311  14.695  11.388  0.00  0.00     0.030 A 
HETATM    2  C   UNK N   1      34.448  14.166  10.423  0.00  0.00     0.048 A 
HETATM    3  C   UNK N   1      34.001  14.966   9.355  0.00  0.00     0.092 A 
HETATM    4  C   UNK N   1      34.467  16.298   9.264  0.00  0.00     0.087 A 
HETATM    5  C   UNK N   1      35.322  16.810  10.243  0.00  0.00     0.025 A 
HETATM    6  C   UNK N   1      35.736  16.019  11.306  0.00  0.00     0.004 A 
HETATM    7  N   UNK N   1      32.362  13.898   7.626  0.00  0.00    -0.191 NA
HETATM    8  C   UNK N   1      33.089  14.393   8.381  0.00  0.00     0.103 C 
ENDROOT
BRANCH   2   9
HETATM    9  N   UNK N   1      34.057  12.814  10.523  0.00  0.00    -0.398 N 
HETATM   10  H   UNK N   1      34.356  12.246  11.269  0.00  0.00     0.156 HD
HETATM   11  H   UNK N   1      33.473  12.431   9.830  0.00  0.00     0.156 HD
ENDBRANCH   2   9
BRANCH   4  12
HETATM   12  S   UNK N   1      34.039  17.393   7.933  0.00  0.00     0.208 S 
HETATM   13  O   UNK N   1      34.974  18.615   7.959  0.00  0.00    -0.217 OA
HETATM   14  O   UNK N   1      33.046  18.115   8.860  0.00  0.00    -0.217 OA
BRANCH  12  15
HETATM   15  C   UNK N   1      32.896  17.594   6.612  0.00  0.00     0.065 A 
HETATM   16  C   UNK N   1      33.356  17.362   5.318  0.00  0.00     0.030 A 
HETATM   17  C   UNK N   1      32.485  16.897   4.345  0.00  0.00    -0.060 A 
HETATM   18  C   UNK N   1      31.153  16.622   4.681  0.00  0.00     0.013 A 
HETATM   19  C   UNK N   1      33.019  16.529   3.011  0.00  0.00     0.048 C 
HETATM   20  C   UNK N   1      30.687  16.899   5.973  0.00  0.00    -0.060 A 
HETATM   21  C   UNK N   1      31.565  17.369   6.934  0.00  0.00     0.030 A 
HETATM   22  C   UNK N   1      29.317  16.510   6.385  0.00  0.00     0.048 C 
ENDBRANCH  12  15
ENDBRANCH   4  12
TORSDOF 3
ENDMDL
MODEL 4
REMARK VINA RESULT:      -6.8     16.080     17.492
REMARK  3 active torsions:
REMARK  status: ('A' for Active; 'I' for Inactive)
REMARK    1  A    between atoms: C_2  and  N_18 
REMARK    2  A    between atoms: C_4  and  S_7 
REMARK    3  A    between atoms: S_7  and  C_10 
ROOT
HETATM    1  C   UNK N   1      22.865  11.901  11.882  0.00  0.00     0.030 A 
HETATM    2  C   UNK N   1      23.776  12.351  10.922  0.00  0.00     0.048 A 
HETATM    3  C   UNK N   1      23.321  12.999   9.759  0.00  0.00     0.092 A 
HETATM    4  C   UNK N   1      21.931  13.212   9.601  0.00  0.00     0.087 A 
HETATM    5  C   UNK N   1      21.036  12.746  10.567  0.00  0.00     0.025 A 
HETATM    6  C   UNK N   1      21.496  12.086  11.698  0.00  0.00     0.004 A 
HETATM    7  N   UNK N   1      25.098  13.769   8.008  0.00  0.00    -0.191 NA
HETATM    8  C   UNK N   1      24.291  13.437   8.771  0.00  0.00     0.103 C 
ENDROOT
BRANCH   2   9
HETATM    9  N   UNK N   1      25.156  12.170  11.152  0.00  0.00    -0.398 N 
HETATM   10  H   UNK N   1      25.495  11.833  12.012  0.00  0.00     0.156 HD
HETATM   11  H   UNK N   1      25.795  12.386  10.434  0.00  0.00     0.156 HD
ENDBRANCH   2   9
BRANCH   4  12
HETATM   12  S   UNK N   1      21.227  14.076   8.219  0.00  0.00     0.208 S 
HETATM   13  O   UNK N   1      19.767  14.444   8.539  0.00  0.00    -0.217 OA
HETATM   14  O   UNK N   1      20.772  12.732   7.623  0.00  0.00    -0.217 OA
BRANCH  12  15
HETATM   15  C   UNK N   1      21.597  14.630   6.592  0.00  0.00     0.065 A 
HETATM   16  C   UNK N   1      20.738  14.241   5.566  0.00  0.00     0.030 A 
HETATM   17  C   UNK N   1      20.563  15.060   4.460  0.00  0.00    -0.060 A 
HETATM   18  C   UNK N   1      21.219  16.296   4.401  0.00  0.00     0.013 A 
HETATM   19  C   UNK N   1      19.547  14.695   3.443  0.00  0.00     0.048 C 
HETATM   20  C   UNK N   1      22.114  16.660   5.416  0.00  0.00    -0.060 A 
HETATM   21  C   UNK N   1      22.286  15.832   6.511  0.00  0.00     0.030 A 
HETATM   22  C   UNK N   1      22.731  18.008   5.435  0.00  0.00     0.048 C 
ENDBRANCH  12  15
ENDBRANCH   4  12
TORSDOF 3
ENDMDL
MODEL 5
REMARK VINA RESULT:      -6.7     13.365     15.995
REMARK  3 active torsions:
REMARK  status: ('A' for Active; 'I' for Inactive)
REMARK    1  A    between atoms: C_2  and  N_18 
REMARK    2  A    between atoms: C_4  and  S_7 
REMARK    3  A    between atoms: S_7  and  C_10 
ROOT
HETATM    1  C   UNK N   1      35.404  15.188  11.640  0.00  0.00     0.030 A 
HETATM    2  C   UNK N   1      34.605  14.311  10.898  0.00  0.00     0.048 A 
HETATM    3  C   UNK N   1      34.030  14.730   9.685  0.00  0.00     0.092 A 
HETATM    4  C   UNK N   1      34.303  16.038   9.219  0.00  0.00     0.087 A 
HETATM    5  C   UNK N   1      35.096  16.901   9.980  0.00  0.00     0.025 A 
HETATM    6  C   UNK N   1      35.638  16.484  11.188  0.00  0.00     0.004 A 
HETATM    7  N   UNK N   1      32.524  13.033   8.392  0.00  0.00    -0.191 NA
HETATM    8  C   UNK N   1      33.188  13.803   8.948  0.00  0.00     0.103 C 
ENDROOT
BRANCH   2   9
HETATM    9  N   UNK N   1      34.410  12.997  11.373  0.00  0.00    -0.398 N 
HETATM   10  H   UNK N   1      34.888  12.232  10.980  0.00  0.00     0.156 HD
HETATM   11  H   UNK N   1      33.781  12.843  12.114  0.00  0.00     0.156 HD
ENDBRANCH   2   9
BRANCH   4  12
HETATM   12  S   UNK N   1      33.700  16.669   7.673  0.00  0.00     0.208 S 
HETATM   13  O   UNK N   1      34.604  17.826   7.210  0.00  0.00    -0.217 OA
HETATM   14  O   UNK N   1      32.803  17.658   8.439  0.00  0.00    -0.217 OA
BRANCH  12  15
HETATM   15  C   UNK N   1      32.409  16.465   6.497  0.00  0.00     0.065 A 
HETATM   16  C   UNK N   1      31.131  16.882   6.862  0.00  0.00     0.030 A 
HETATM   17  C   UNK N   1      30.247  17.334   5.894  0.00  0.00    -0.060 A 
HETATM   18  C   UNK N   1      30.659  17.409   4.558  0.00  0.00     0.013 A 
HETATM   19  C   UNK N   1      28.941  17.898   6.314  0.00  0.00     0.048 C 
HETATM   20  C   UNK N   1      31.931  16.948   4.193  0.00  0.00    -0.060 A 
HETATM   21  C   UNK N   1      32.803  16.492   5.166  0.00  0.00     0.030 A 
HETATM   22  C   UNK N   1      32.433  17.123   2.809  0.00  0.00     0.048 C 
ENDBRANCH  12  15
ENDBRANCH   4  12
TORSDOF 3
ENDMDL
MODEL 6
REMARK VINA RESULT:      -6.7     15.894     17.592
REMARK  3 active torsions:
REMARK  status: ('A' for Active; 'I' for Inactive)
REMARK    1  A    between atoms: C_2  and  N_18 
REMARK    2  A    between atoms: C_4  and  S_7 
REMARK    3  A    between atoms: S_7  and  C_10 
ROOT
HETATM    1  C   UNK N   1      22.881  11.947  11.858  0.00  0.00     0.030 A 
HETATM    2  C   UNK N   1      23.796  12.388  10.897  0.00  0.00     0.048 A 
HETATM    3  C   UNK N   1      23.344  13.020   9.724  0.00  0.00     0.092 A 
HETATM    4  C   UNK N   1      21.954  13.227   9.557  0.00  0.00     0.087 A 
HETATM    5  C   UNK N   1      21.056  12.771  10.526  0.00  0.00     0.025 A 
HETATM    6  C   UNK N   1      21.513  12.126  11.667  0.00  0.00     0.004 A 
HETATM    7  N   UNK N   1      25.126  13.773   7.971  0.00  0.00    -0.191 NA
HETATM    8  C   UNK N   1      24.317  13.448   8.735  0.00  0.00     0.103 C 
ENDROOT
BRANCH   2   9
HETATM    9  N   UNK N   1      25.175  12.213  11.135  0.00  0.00    -0.398 N 
HETATM   10  H   UNK N   1      25.505  11.753  11.940  0.00  0.00     0.156 HD
HETATM   11  H   UNK N   1      25.823  12.559  10.479  0.00  0.00     0.156 HD
ENDBRANCH   2   9
BRANCH   4  12
HETATM   12  S   UNK N   1      21.254  14.073   8.162  0.00  0.00     0.208 S 
HETATM   13  O   UNK N   1      19.795  14.450   8.475  0.00  0.00    -0.217 OA
HETATM   14  O   UNK N   1      20.795  12.721   7.586  0.00  0.00    -0.217 OA
BRANCH  12  15
HETATM   15  C   UNK N   1      21.626  14.600   6.527  0.00  0.00     0.065 A 
HETATM   16  C   UNK N   1      21.944  15.943   6.337  0.00  0.00     0.030 A 
HETATM   17  C   UNK N   1      22.806  16.315   5.315  0.00  0.00    -0.060 A 
HETATM   18  C   UNK N   1      23.385  15.331   4.504  0.00  0.00     0.013 A 
HETATM   19  C   UNK N   1      23.237  17.730   5.212  0.00  0.00     0.048 C 
HETATM   20  C   UNK N   1      23.027  13.987   4.673  0.00  0.00    -0.060 A 
HETATM   21  C   UNK N   1      22.161  13.628   5.692  0.00  0.00     0.030 A 
HETATM   22  C   UNK N   1      23.710  12.918   3.906  0.00  0.00     0.048 C 
ENDBRANCH  12  15
ENDBRANCH   4  12
TORSDOF 3
ENDMDL
MODEL 7
REMARK VINA RESULT:      -6.6     13.830     15.495
REMARK  3 active torsions:
REMARK  status: ('A' for Active; 'I' for Inactive)
REMARK    1  A    between atoms: C_2  and  N_18 
REMARK    2  A    between atoms: C_4  and  S_7 
REMARK    3  A    between atoms: S_7  and  C_10 
ROOT
HETATM    1  C   UNK N   1      20.387  19.244   1.823  0.00  0.00     0.030 A 
HETATM    2  C   UNK N   1      19.964  17.944   2.114  0.00  0.00     0.048 A 
HETATM    3  C   UNK N   1      20.223  17.378   3.375  0.00  0.00     0.092 A 
HETATM    4  C   UNK N   1      20.889  18.162   4.347  0.00  0.00     0.087 A 
HETATM    5  C   UNK N   1      21.312  19.456   4.033  0.00  0.00     0.025 A 
HETATM    6  C   UNK N   1      21.072  19.995   2.777  0.00  0.00     0.004 A 
HETATM    7  N   UNK N   1      19.426  14.930   3.808  0.00  0.00    -0.191 NA
HETATM    8  C   UNK N   1      19.788  16.018   3.639  0.00  0.00     0.103 C 
ENDROOT
BRANCH   2   9
HETATM    9  N   UNK N   1      19.251  17.222   1.133  0.00  0.00    -0.398 N 
HETATM   10  H   UNK N   1      18.758  17.679   0.414  0.00  0.00     0.156 HD
HETATM   11  H   UNK N   1      19.247  16.239   1.169  0.00  0.00     0.156 HD
ENDBRANCH   2   9
BRANCH   4  12
HETATM   12  S   UNK N   1      21.216  17.598   5.998  0.00  0.00     0.208 S 
HETATM   13  O   UNK N   1      21.018  18.765   6.983  0.00  0.00    -0.217 OA
HETATM   14  O   UNK N   1      22.697  17.979   5.824  0.00  0.00    -0.217 OA
BRANCH  12  15
HETATM   15  C   UNK N   1      21.725  16.183   6.908  0.00  0.00     0.065 A 
HETATM   16  C   UNK N   1      21.034  15.885   8.080  0.00  0.00     0.030 A 
HETATM   17  C   UNK N   1      20.917  14.568   8.501  0.00  0.00    -0.060 A 
HETATM   18  C   UNK N   1      21.461  13.540   7.722  0.00  0.00     0.013 A 
HETATM   19  C   UNK N   1      20.066  14.256   9.676  0.00  0.00     0.048 C 
HETATM   20  C   UNK N   1      22.192  13.851   6.568  0.00  0.00    -0.060 A 
HETATM   21  C   UNK N   1      22.307  15.168   6.160  0.00  0.00     0.030 A 
HETATM   22  C   UNK N   1      22.678  12.779   5.666  0.00  0.00     0.048 C 
ENDBRANCH  12  15
ENDBRANCH   4  12
TORSDOF 3
ENDMDL
MODEL 8
REMARK VINA RESULT:      -6.4      2.107      2.813
REMARK  3 active torsions:
REMARK  status: ('A' for Active; 'I' for Inactive)
REMARK    1  A    between atoms: C_2  and  N_18 
REMARK    2  A    between atoms: C_4  and  S_7 
REMARK    3  A    between atoms: S_7  and  C_10 
ROOT
HETATM    1  C   UNK N   1      29.667  20.610  -6.880  0.00  0.00     0.030 A 
HETATM    2  C   UNK N   1      29.756  21.573  -5.870  0.00  0.00     0.048 A 
HETATM    3  C   UNK N   1      28.826  22.628  -5.811  0.00  0.00     0.092 A 
HETATM    4  C   UNK N   1      27.788  22.672  -6.771  0.00  0.00     0.087 A 
HETATM    5  C   UNK N   1      27.722  21.704  -7.777  0.00  0.00     0.025 A 
HETATM    6  C   UNK N   1      28.660  20.683  -7.839  0.00  0.00     0.004 A 
HETATM    7  N   UNK N   1      29.098  24.398  -3.911  0.00  0.00    -0.191 NA
HETATM    8  C   UNK N   1      28.958  23.624  -4.762  0.00  0.00     0.103 C 
ENDROOT
BRANCH   2   9
HETATM    9  N   UNK N   1      30.773  21.455  -4.899  0.00  0.00    -0.398 N 
HETATM   10  H   UNK N   1      30.913  22.146  -4.213  0.00  0.00     0.156 HD
HETATM   11  H   UNK N   1      31.355  20.661  -4.909  0.00  0.00     0.156 HD
ENDBRANCH   2   9
BRANCH   4  12
HETATM   12  S   UNK N   1      26.510  23.904  -6.770  0.00  0.00     0.208 S 
HETATM   13  O   UNK N   1      25.141  23.218  -6.930  0.00  0.00    -0.217 OA
HETATM   14  O   UNK N   1      26.641  24.026  -8.299  0.00  0.00    -0.217 OA
BRANCH  12  15
HETATM   15  C   UNK N   1      26.255  25.642  -6.690  0.00  0.00     0.065 A 
HETATM   16  C   UNK N   1      25.712  26.162  -5.518  0.00  0.00     0.030 A 
HETATM   17  C   UNK N   1      26.035  27.450  -5.115  0.00  0.00    -0.060 A 
HETATM   18  C   UNK N   1      26.940  28.206  -5.871  0.00  0.00     0.013 A 
HETATM   19  C   UNK N   1      25.556  27.939  -3.800  0.00  0.00     0.048 C 
HETATM   20  C   UNK N   1      27.447  27.693  -7.072  0.00  0.00    -0.060 A 
HETATM   21  C   UNK N   1      27.114  26.409  -7.467  0.00  0.00     0.030 A 
HETATM   22  C   UNK N   1      28.492  28.424  -7.828  0.00  0.00     0.048 C 
ENDBRANCH  12  15
ENDBRANCH   4  12
TORSDOF 3
ENDMDL
MODEL 9
REMARK VINA RESULT:      -6.4      2.988      6.714
REMARK  3 active torsions:
REMARK  status: ('A' for Active; 'I' for Inactive)
REMARK    1  A    between atoms: C_2  and  N_18 
REMARK    2  A    between atoms: C_4  and  S_7 
REMARK    3  A    between atoms: S_7  and  C_10 
ROOT
HETATM    1  C   UNK N   1      29.556  27.684  -4.139  0.00  0.00     0.030 A 
HETATM    2  C   UNK N   1      28.437  26.859  -3.993  0.00  0.00     0.048 A 
HETATM    3  C   UNK N   1      28.596  25.483  -3.748  0.00  0.00     0.092 A 
HETATM    4  C   UNK N   1      29.906  24.963  -3.620  0.00  0.00     0.087 A 
HETATM    5  C   UNK N   1      31.011  25.803  -3.779  0.00  0.00     0.025 A 
HETATM    6  C   UNK N   1      30.841  27.155  -4.045  0.00  0.00     0.004 A 
HETATM    7  N   UNK N   1      26.445  24.020  -3.528  0.00  0.00    -0.191 NA
HETATM    8  C   UNK N   1      27.413  24.649  -3.622  0.00  0.00     0.103 C 
ENDROOT
BRANCH   2   9
HETATM    9  N   UNK N   1      27.150  27.433  -4.069  0.00  0.00    -0.398 N 
HETATM   10  H   UNK N   1      27.025  28.397  -4.228  0.00  0.00     0.156 HD
HETATM   11  H   UNK N   1      26.360  26.857  -3.961  0.00  0.00     0.156 HD
ENDBRANCH   2   9
BRANCH   4  12
HETATM   12  S   UNK N   1      30.248  23.263  -3.242  0.00  0.00     0.208 S 
HETATM   13  O   UNK N   1      30.501  23.120  -1.730  0.00  0.00    -0.217 OA
HETATM   14  O   UNK N   1      31.746  23.522  -3.481  0.00  0.00    -0.217 OA
BRANCH  12  15
HETATM   15  C   UNK N   1      30.439  21.684  -3.990  0.00  0.00     0.065 A 
HETATM   16  C   UNK N   1      29.811  21.468  -5.215  0.00  0.00     0.030 A 
HETATM   17  C   UNK N   1      30.361  20.584  -6.131  0.00  0.00    -0.060 A 
HETATM   18  C   UNK N   1      31.570  19.942  -5.834  0.00  0.00     0.013 A 
HETATM   19  C   UNK N   1      29.755  20.468  -7.479  0.00  0.00     0.048 C 
HETATM   20  C   UNK N   1      32.173  20.130  -4.584  0.00  0.00    -0.060 A 
HETATM   21  C   UNK N   1      31.612  21.010  -3.675  0.00  0.00     0.030 A 
HETATM   22  C   UNK N   1      33.507  19.554  -4.290  0.00  0.00     0.048 C 
ENDBRANCH  12  15
ENDBRANCH   4  12
TORSDOF 3
ENDMDL
