REMARK  3 active torsions:
REMARK  status: ('A' for Active; 'I' for Inactive)
REMARK    1  A    between atoms: C_2  and  N_18 
REMARK    2  A    between atoms: C_4  and  S_7 
REMARK    3  A    between atoms: S_7  and  C_10 
ROOT
HETATM    1  C   UNK N   1       0.609   4.310   0.209  0.00  0.00     0.030 A 
HETATM    2  C   UNK N   1       1.518   3.306  -0.139  0.00  0.00     0.048 A 
HETATM    3  C   UNK N   1       1.101   1.964  -0.209  0.00  0.00     0.092 A 
HETATM    4  C   UNK N   1      -0.257   1.661   0.047  0.00  0.00     0.087 A 
HETATM    5  C   UNK N   1      -1.147   2.678   0.402  0.00  0.00     0.025 A 
HETATM    6  C   UNK N   1      -0.718   3.995   0.492  0.00  0.00     0.004 A 
HETATM    7  N   UNK N   1       2.881   0.158  -0.830  0.00  0.00    -0.191 NA
HETATM    8  C   UNK N   1       2.074   0.942  -0.553  0.00  0.00     0.103 C 
ENDROOT
BRANCH   2   9
HETATM    9  N   UNK N   1       2.848   3.664  -0.444  0.00  0.00    -0.398 N 
HETATM   10  H   UNK N   1       3.528   2.985  -0.657  0.00  0.00     0.156 HD
HETATM   11  H   UNK N   1       3.101   4.615  -0.444  0.00  0.00     0.156 HD
ENDBRANCH   2   9
BRANCH   4  12
HETATM   12  S   UNK N   1      -0.931   0.023  -0.075  0.00  0.00     0.208 S 
HETATM   13  O   UNK N   1      -2.344   0.008   0.535  0.00  0.00    -0.217 OA
HETATM   14  O   UNK N   1      -0.321  -0.319   1.296  0.00  0.00    -0.217 OA
BRANCH  12  15
HETATM   15  C   UNK N   1      -0.540  -1.604  -0.614  0.00  0.00     0.065 A 
HETATM   16  C   UNK N   1       0.797  -1.993  -0.579  0.00  0.00     0.030 A 
HETATM   17  C   UNK N   1       1.127  -3.325  -0.377  0.00  0.00    -0.060 A 
HETATM   18  C   UNK N   1       0.112  -4.267  -0.168  0.00  0.00     0.013 A 
HETATM   19  C   UNK N   1       2.552  -3.700  -0.209  0.00  0.00     0.048 C 
HETATM   20  C   UNK N   1      -1.231  -3.876  -0.248  0.00  0.00    -0.060 A 
HETATM   21  C   UNK N   1      -1.549  -2.545  -0.456  0.00  0.00     0.030 A 
HETATM   22  C   UNK N   1      -2.319  -4.827   0.083  0.00  0.00     0.048 C 
ENDBRANCH  12  15
ENDBRANCH   4  12
TORSDOF 3
