REMARK  18 active torsions:
REMARK  status: ('A' for Active; 'I' for Inactive)
REMARK    1  A    between atoms: C_2  and  C_3 
REMARK    2  A    between atoms: C_3  and  C_4 
REMARK    3  A    between atoms: C_4  and  C_5 
REMARK    4  A    between atoms: C_5  and  C_6 
REMARK    5  A    between atoms: C_7  and  C_8 
REMARK    6  A    between atoms: C_8  and  C_9 
REMARK    7  A    between atoms: C_9  and  C_18 
REMARK    8  A    between atoms: C_9  and  P_10 
REMARK    9  A    between atoms: C_9  and  P_14 
REMARK   10  A    between atoms: P_10  and  O_11 
REMARK   11  A    between atoms: P_10  and  O_12 
REMARK   12  A    between atoms: P_14  and  O_15 
REMARK   13  A    between atoms: P_14  and  O_16 
REMARK   14  A    between atoms: C_18  and  C_19 
REMARK   15  A    between atoms: C_20  and  C_21 
REMARK   16  A    between atoms: C_21  and  C_22 
REMARK   17  A    between atoms: C_22  and  C_23 
REMARK   18  A    between atoms: C_23  and  C_24 
ROOT
HETATM    1  C   UNK N   1      -0.071   0.227   0.564  0.00  0.00     0.160 C 
ENDROOT
BRANCH   1   2
HETATM    2  C   UNK N   1      -1.226   0.649   1.504  0.00  0.00     0.061 C 
BRANCH   2   3
HETATM    3  C   UNK N   1      -2.606   0.447   0.931  0.00  0.00    -0.029 C 
HETATM    4  C   UNK N   1      -3.026   1.134  -0.131  0.00  0.00    -0.031 C 
BRANCH   4   5
HETATM    5  C   UNK N   1      -4.300   0.798  -0.829  0.00  0.00     0.027 C 
BRANCH   5   6
HETATM    6  C   UNK N   1      -5.502   1.087   0.037  0.00  0.00     0.004 C 
BRANCH   6   7
HETATM    7  C   UNK N   1      -6.535   0.013  -0.216  0.00  0.00    -0.000 C 
BRANCH   7   8
HETATM    8  C   UNK N   1      -7.765   0.304   0.610  0.00  0.00    -0.005 C 
HETATM    9  C   UNK N   1      -8.656  -0.919   0.623  0.00  0.00     0.005 C 
ENDBRANCH   7   8
ENDBRANCH   6   7
ENDBRANCH   5   6
ENDBRANCH   4   5
ENDBRANCH   2   3
ENDBRANCH   1   2
BRANCH   1  10
HETATM   10  C   UNK N   1       1.165  -0.004   1.463  0.00  0.00     0.061 C 
BRANCH  10  11
HETATM   11  C   UNK N   1       2.314  -0.715   0.798  0.00  0.00    -0.029 C 
HETATM   12  C   UNK N   1       3.016  -0.143  -0.176  0.00  0.00    -0.031 C 
BRANCH  12  13
HETATM   13  C   UNK N   1       4.037  -0.913  -0.946  0.00  0.00     0.027 C 
BRANCH  13  14
HETATM   14  C   UNK N   1       5.322  -1.080  -0.165  0.00  0.00     0.004 C 
BRANCH  14  15
HETATM   15  C   UNK N   1       6.149   0.183  -0.271  0.00  0.00    -0.000 C 
BRANCH  15  16
HETATM   16  C   UNK N   1       7.469  -0.033   0.434  0.00  0.00    -0.005 C 
HETATM   17  C   UNK N   1       8.287   1.237   0.364  0.00  0.00     0.005 C 
ENDBRANCH  15  16
ENDBRANCH  14  15
ENDBRANCH  13  14
ENDBRANCH  12  13
ENDBRANCH  10  11
ENDBRANCH   1  10
BRANCH   1  18
HETATM   18  P   UNK N   1      -0.492  -1.392  -0.335  0.00  0.00     0.257 P 
HETATM   19  O   UNK N   1      -1.716  -1.261  -1.273  0.00  0.00    -0.653 OA
BRANCH  18  20
HETATM   20  O   UNK N   1       0.752  -2.018  -1.372  0.00  0.00    -0.328 OA
HETATM   21  H   UNK N   1       0.796  -2.794  -1.951  0.00  0.00     0.220 HD
ENDBRANCH  18  20
BRANCH  18  22
HETATM   22  O   UNK N   1      -0.919  -2.689   0.738  0.00  0.00    -0.328 OA
HETATM   23  H   UNK N   1      -1.666  -2.844   1.337  0.00  0.00     0.220 HD
ENDBRANCH  18  22
ENDBRANCH   1  18
BRANCH   1  24
HETATM   24  P   UNK N   1       0.292   1.631  -0.656  0.00  0.00     0.257 P 
HETATM   25  O   UNK N   1       0.929   2.815   0.124  0.00  0.00    -0.653 OA
BRANCH  24  26
HETATM   26  O   UNK N   1      -1.033   2.391  -1.475  0.00  0.00    -0.328 OA
HETATM   27  H   UNK N   1      -1.035   3.246  -1.933  0.00  0.00     0.220 HD
ENDBRANCH  24  26
BRANCH  24  28
HETATM   28  O   UNK N   1       1.455   1.311  -1.900  0.00  0.00    -0.328 OA
HETATM   29  H   UNK N   1       1.626   0.658  -2.597  0.00  0.00     0.220 HD
ENDBRANCH  24  28
ENDBRANCH   1  24
TORSDOF 18
