MODEL 1
REMARK VINA RESULT:      -5.5      0.000      0.000
REMARK  18 active torsions:
REMARK  status: ('A' for Active; 'I' for Inactive)
REMARK    1  A    between atoms: C_2  and  C_3 
REMARK    2  A    between atoms: C_3  and  C_4 
REMARK    3  A    between atoms: C_4  and  C_5 
REMARK    4  A    between atoms: C_5  and  C_6 
REMARK    5  A    between atoms: C_7  and  C_8 
REMARK    6  A    between atoms: C_8  and  C_9 
REMARK    7  A    between atoms: C_9  and  C_18 
REMARK    8  A    between atoms: C_9  and  P_10 
REMARK    9  A    between atoms: C_9  and  P_14 
REMARK   10  A    between atoms: P_10  and  O_11 
REMARK   11  A    between atoms: P_10  and  O_12 
REMARK   12  A    between atoms: P_14  and  O_15 
REMARK   13  A    between atoms: P_14  and  O_16 
REMARK   14  A    between atoms: C_18  and  C_19 
REMARK   15  A    between atoms: C_20  and  C_21 
REMARK   16  A    between atoms: C_21  and  C_22 
REMARK   17  A    between atoms: C_22  and  C_23 
REMARK   18  A    between atoms: C_23  and  C_24 
ROOT
HETATM    1  C   UNK N   1      34.165  15.811   8.570  0.00  0.00     0.160 C 
ENDROOT
BRANCH   1   2
HETATM    2  C   UNK N   1      35.152  15.081   7.626  0.00  0.00     0.061 C 
BRANCH   2   3
HETATM    3  C   UNK N   1      34.524  14.516   6.377  0.00  0.00    -0.029 C 
HETATM    4  C   UNK N   1      34.849  14.971   5.168  0.00  0.00    -0.031 C 
BRANCH   4   5
HETATM    5  C   UNK N   1      34.395  14.286   3.924  0.00  0.00     0.027 C 
BRANCH   5   6
HETATM    6  C   UNK N   1      33.101  14.868   3.409  0.00  0.00     0.004 C 
BRANCH   6   7
HETATM    7  C   UNK N   1      33.115  16.356   3.671  0.00  0.00    -0.000 C 
BRANCH   7   8
HETATM    8  C   UNK N   1      32.044  17.017   2.836  0.00  0.00    -0.005 C 
HETATM    9  C   UNK N   1      30.806  16.147   2.836  0.00  0.00     0.005 C 
ENDBRANCH   7   8
ENDBRANCH   6   7
ENDBRANCH   5   6
ENDBRANCH   4   5
ENDBRANCH   2   3
ENDBRANCH   1   2
BRANCH   1  10
HETATM   10  C   UNK N   1      32.779  15.168   8.337  0.00  0.00     0.061 C 
BRANCH  10  11
HETATM   11  C   UNK N   1      31.716  16.108   7.834  0.00  0.00    -0.029 C 
HETATM   12  C   UNK N   1      30.971  15.812   6.772  0.00  0.00    -0.031 C 
BRANCH  12  13
HETATM   13  C   UNK N   1      30.043  16.818   6.177  0.00  0.00     0.027 C 
BRANCH  13  14
HETATM   14  C   UNK N   1      29.536  17.798   7.212  0.00  0.00     0.004 C 
BRANCH  14  15
HETATM   15  C   UNK N   1      28.277  17.255   7.853  0.00  0.00    -0.000 C 
BRANCH  15  16
HETATM   16  C   UNK N   1      28.086  17.916   9.199  0.00  0.00    -0.005 C 
HETATM   17  C   UNK N   1      29.420  18.415   9.705  0.00  0.00     0.005 C 
ENDBRANCH  15  16
ENDBRANCH  14  15
ENDBRANCH  13  14
ENDBRANCH  12  13
ENDBRANCH  10  11
ENDBRANCH   1  10
BRANCH   1  18
HETATM   18  P   UNK N   1      34.664  15.565  10.386  0.00  0.00     0.257 P 
HETATM   19  O   UNK N   1      35.926  14.686  10.551  0.00  0.00    -0.653 OA
BRANCH  18  20
HETATM   20  O   UNK N   1      35.058  17.014  11.256  0.00  0.00    -0.328 OA
HETATM   21  H   UNK N   1      34.525  17.765  11.559  0.00  0.00     0.220 HD
ENDBRANCH  18  20
BRANCH  18  22
HETATM   22  O   UNK N   1      33.455  14.752  11.331  0.00  0.00    -0.328 OA
HETATM   23  H   UNK N   1      33.253  13.818  11.499  0.00  0.00     0.220 HD
ENDBRANCH  18  22
ENDBRANCH   1  18
BRANCH   1  24
HETATM   24  P   UNK N   1      34.093  17.647   8.106  0.00  0.00     0.257 P 
HETATM   25  O   UNK N   1      35.242  18.391   8.842  0.00  0.00    -0.653 OA
BRANCH  24  26
HETATM   26  O   UNK N   1      32.698  18.570   8.559  0.00  0.00    -0.328 OA
HETATM   27  H   UNK N   1      32.619  19.535   8.619  0.00  0.00     0.220 HD
ENDBRANCH  24  26
BRANCH  24  28
HETATM   28  O   UNK N   1      34.368  18.049   6.443  0.00  0.00    -0.328 OA
HETATM   29  H   UNK N   1      34.334  18.823   5.858  0.00  0.00     0.220 HD
ENDBRANCH  24  28
ENDBRANCH   1  24
TORSDOF 18
ENDMDL
MODEL 2
REMARK VINA RESULT:      -5.4     10.147     13.048
REMARK  18 active torsions:
REMARK  status: ('A' for Active; 'I' for Inactive)
REMARK    1  A    between atoms: C_2  and  C_3 
REMARK    2  A    between atoms: C_3  and  C_4 
REMARK    3  A    between atoms: C_4  and  C_5 
REMARK    4  A    between atoms: C_5  and  C_6 
REMARK    5  A    between atoms: C_7  and  C_8 
REMARK    6  A    between atoms: C_8  and  C_9 
REMARK    7  A    between atoms: C_9  and  C_18 
REMARK    8  A    between atoms: C_9  and  P_10 
REMARK    9  A    between atoms: C_9  and  P_14 
REMARK   10  A    between atoms: P_10  and  O_11 
REMARK   11  A    between atoms: P_10  and  O_12 
REMARK   12  A    between atoms: P_14  and  O_15 
REMARK   13  A    between atoms: P_14  and  O_16 
REMARK   14  A    between atoms: C_18  and  C_19 
REMARK   15  A    between atoms: C_20  and  C_21 
REMARK   16  A    between atoms: C_21  and  C_22 
REMARK   17  A    between atoms: C_22  and  C_23 
REMARK   18  A    between atoms: C_23  and  C_24 
ROOT
HETATM    1  C   UNK N   1      20.802  16.103   6.308  0.00  0.00     0.160 C 
ENDROOT
BRANCH   1   2
HETATM    2  C   UNK N   1      20.700  15.928   7.842  0.00  0.00     0.061 C 
BRANCH   2   3
HETATM    3  C   UNK N   1      20.859  14.508   8.323  0.00  0.00    -0.029 C 
HETATM    4  C   UNK N   1      21.159  14.233   9.592  0.00  0.00    -0.031 C 
BRANCH   4   5
HETATM    5  C   UNK N   1      21.115  12.841  10.125  0.00  0.00     0.027 C 
BRANCH   5   6
HETATM    6  C   UNK N   1      22.366  12.500  10.898  0.00  0.00     0.004 C 
BRANCH   6   7
HETATM    7  C   UNK N   1      23.340  11.839   9.950  0.00  0.00    -0.000 C 
BRANCH   7   8
HETATM    8  C   UNK N   1      24.575  12.700   9.828  0.00  0.00    -0.005 C 
HETATM    9  C   UNK N   1      24.664  13.245   8.420  0.00  0.00     0.005 C 
ENDBRANCH   7   8
ENDBRANCH   6   7
ENDBRANCH   5   6
ENDBRANCH   4   5
ENDBRANCH   2   3
ENDBRANCH   1   2
BRANCH   1  10
HETATM   10  C   UNK N   1      21.821  15.051   5.812  0.00  0.00     0.061 C 
BRANCH  10  11
HETATM   11  C   UNK N   1      22.066  15.051   4.327  0.00  0.00    -0.029 C 
HETATM   12  C   UNK N   1      23.230  14.660   3.814  0.00  0.00    -0.031 C 
BRANCH  12  13
HETATM   13  C   UNK N   1      23.526  14.825   2.360  0.00  0.00     0.027 C 
BRANCH  13  14
HETATM   14  C   UNK N   1      22.271  14.752   1.518  0.00  0.00     0.004 C 
BRANCH  14  15
HETATM   15  C   UNK N   1      22.279  13.477   0.703  0.00  0.00    -0.000 C 
BRANCH  15  16
HETATM   16  C   UNK N   1      20.866  12.947   0.606  0.00  0.00    -0.005 C 
HETATM   17  C   UNK N   1      20.212  13.013   1.968  0.00  0.00     0.005 C 
ENDBRANCH  15  16
ENDBRANCH  14  15
ENDBRANCH  13  14
ENDBRANCH  12  13
ENDBRANCH  10  11
ENDBRANCH   1  10
BRANCH   1  18
HETATM   18  P   UNK N   1      19.124  15.774   5.480  0.00  0.00     0.257 P 
HETATM   19  O   UNK N   1      17.923  16.156   6.378  0.00  0.00    -0.653 OA
BRANCH  18  20
HETATM   20  O   UNK N   1      18.830  16.649   4.010  0.00  0.00    -0.328 OA
HETATM   21  H   UNK N   1      18.310  17.442   3.810  0.00  0.00     0.220 HD
ENDBRANCH  18  20
BRANCH  18  22
HETATM   22  O   UNK N   1      18.854  14.100   5.104  0.00  0.00    -0.328 OA
HETATM   23  H   UNK N   1      18.060  13.546   5.047  0.00  0.00     0.220 HD
ENDBRANCH  18  22
ENDBRANCH   1  18
BRANCH   1  24
HETATM   24  P   UNK N   1      21.448  17.840   5.913  0.00  0.00     0.257 P 
HETATM   25  O   UNK N   1      21.020  18.801   7.057  0.00  0.00    -0.653 OA
BRANCH  24  26
HETATM   26  O   UNK N   1      20.856  18.652   4.501  0.00  0.00    -0.328 OA
HETATM   27  H   UNK N   1      21.375  19.054   3.787  0.00  0.00     0.220 HD
ENDBRANCH  24  26
BRANCH  24  28
HETATM   28  O   UNK N   1      23.167  18.045   5.853  0.00  0.00    -0.328 OA
HETATM   29  H   UNK N   1      23.892  18.355   6.419  0.00  0.00     0.220 HD
ENDBRANCH  24  28
ENDBRANCH   1  24
TORSDOF 18
ENDMDL
MODEL 3
REMARK VINA RESULT:      -5.4      2.129      3.447
REMARK  18 active torsions:
REMARK  status: ('A' for Active; 'I' for Inactive)
REMARK    1  A    between atoms: C_2  and  C_3 
REMARK    2  A    between atoms: C_3  and  C_4 
REMARK    3  A    between atoms: C_4  and  C_5 
REMARK    4  A    between atoms: C_5  and  C_6 
REMARK    5  A    between atoms: C_7  and  C_8 
REMARK    6  A    between atoms: C_8  and  C_9 
REMARK    7  A    between atoms: C_9  and  C_18 
REMARK    8  A    between atoms: C_9  and  P_10 
REMARK    9  A    between atoms: C_9  and  P_14 
REMARK   10  A    between atoms: P_10  and  O_11 
REMARK   11  A    between atoms: P_10  and  O_12 
REMARK   12  A    between atoms: P_14  and  O_15 
REMARK   13  A    between atoms: P_14  and  O_16 
REMARK   14  A    between atoms: C_18  and  C_19 
REMARK   15  A    between atoms: C_20  and  C_21 
REMARK   16  A    between atoms: C_21  and  C_22 
REMARK   17  A    between atoms: C_22  and  C_23 
REMARK   18  A    between atoms: C_23  and  C_24 
ROOT
HETATM    1  C   UNK N   1      33.778  15.634   8.028  0.00  0.00     0.160 C 
ENDROOT
BRANCH   1   2
HETATM    2  C   UNK N   1      34.117  16.954   7.294  0.00  0.00     0.061 C 
BRANCH   2   3
HETATM    3  C   UNK N   1      33.105  17.373   6.257  0.00  0.00    -0.029 C 
HETATM    4  C   UNK N   1      33.393  17.355   4.956  0.00  0.00    -0.031 C 
BRANCH   4   5
HETATM    5  C   UNK N   1      32.345  17.566   3.917  0.00  0.00     0.027 C 
BRANCH   5   6
HETATM    6  C   UNK N   1      30.965  17.636   4.526  0.00  0.00     0.004 C 
BRANCH   6   7
HETATM    7  C   UNK N   1      30.168  16.453   4.025  0.00  0.00    -0.000 C 
BRANCH   7   8
HETATM    8  C   UNK N   1      29.722  15.621   5.204  0.00  0.00    -0.005 C 
HETATM    9  C   UNK N   1      30.362  14.253   5.118  0.00  0.00     0.005 C 
ENDBRANCH   7   8
ENDBRANCH   6   7
ENDBRANCH   5   6
ENDBRANCH   4   5
ENDBRANCH   2   3
ENDBRANCH   1   2
BRANCH   1  10
HETATM   10  C   UNK N   1      32.236  15.522   8.040  0.00  0.00     0.061 C 
BRANCH  10  11
HETATM   11  C   UNK N   1      31.529  16.539   8.897  0.00  0.00    -0.029 C 
HETATM   12  C   UNK N   1      30.369  17.075   8.526  0.00  0.00    -0.031 C 
BRANCH  12  13
HETATM   13  C   UNK N   1      29.762  18.204   9.291  0.00  0.00     0.027 C 
BRANCH  13  14
HETATM   14  C   UNK N   1      28.438  18.636   8.698  0.00  0.00     0.004 C 
BRANCH  14  15
HETATM   15  C   UNK N   1      28.489  18.504   7.191  0.00  0.00    -0.000 C 
BRANCH  15  16
HETATM   16  C   UNK N   1      27.761  19.675   6.571  0.00  0.00    -0.005 C 
HETATM   17  C   UNK N   1      27.875  19.594   5.065  0.00  0.00     0.005 C 
ENDBRANCH  15  16
ENDBRANCH  14  15
ENDBRANCH  13  14
ENDBRANCH  12  13
ENDBRANCH  10  11
ENDBRANCH   1  10
BRANCH   1  18
HETATM   18  P   UNK N   1      34.498  14.143   7.099  0.00  0.00     0.257 P 
HETATM   19  O   UNK N   1      34.152  12.791   7.767  0.00  0.00    -0.653 OA
BRANCH  18  20
HETATM   20  O   UNK N   1      33.948  13.943   5.464  0.00  0.00    -0.328 OA
HETATM   21  H   UNK N   1      33.197  14.309   4.974  0.00  0.00     0.220 HD
ENDBRANCH  18  20
BRANCH  18  22
HETATM   22  O   UNK N   1      36.233  14.146   7.024  0.00  0.00    -0.328 OA
HETATM   23  H   UNK N   1      36.876  14.525   6.405  0.00  0.00     0.220 HD
ENDBRANCH  18  22
ENDBRANCH   1  18
BRANCH   1  24
HETATM   24  P   UNK N   1      34.417  15.724   9.810  0.00  0.00     0.257 P 
HETATM   25  O   UNK N   1      35.775  14.972   9.889  0.00  0.00    -0.653 OA
BRANCH  24  26
HETATM   26  O   UNK N   1      33.495  14.967  11.068  0.00  0.00    -0.328 OA
HETATM   27  H   UNK N   1      33.807  14.332  11.731  0.00  0.00     0.220 HD
ENDBRANCH  24  26
BRANCH  24  28
HETATM   28  O   UNK N   1      34.802  17.295  10.429  0.00  0.00    -0.328 OA
HETATM   29  H   UNK N   1      35.574  17.873  10.542  0.00  0.00     0.220 HD
ENDBRANCH  24  28
ENDBRANCH   1  24
TORSDOF 18
ENDMDL
MODEL 4
REMARK VINA RESULT:      -5.4     10.332     12.644
REMARK  18 active torsions:
REMARK  status: ('A' for Active; 'I' for Inactive)
REMARK    1  A    between atoms: C_2  and  C_3 
REMARK    2  A    between atoms: C_3  and  C_4 
REMARK    3  A    between atoms: C_4  and  C_5 
REMARK    4  A    between atoms: C_5  and  C_6 
REMARK    5  A    between atoms: C_7  and  C_8 
REMARK    6  A    between atoms: C_8  and  C_9 
REMARK    7  A    between atoms: C_9  and  C_18 
REMARK    8  A    between atoms: C_9  and  P_10 
REMARK    9  A    between atoms: C_9  and  P_14 
REMARK   10  A    between atoms: P_10  and  O_11 
REMARK   11  A    between atoms: P_10  and  O_12 
REMARK   12  A    between atoms: P_14  and  O_15 
REMARK   13  A    between atoms: P_14  and  O_16 
REMARK   14  A    between atoms: C_18  and  C_19 
REMARK   15  A    between atoms: C_20  and  C_21 
REMARK   16  A    between atoms: C_21  and  C_22 
REMARK   17  A    between atoms: C_22  and  C_23 
REMARK   18  A    between atoms: C_23  and  C_24 
ROOT
HETATM    1  C   UNK N   1      20.522  15.843   6.374  0.00  0.00     0.160 C 
ENDROOT
BRANCH   1   2
HETATM    2  C   UNK N   1      21.448  14.636   6.085  0.00  0.00     0.061 C 
BRANCH   2   3
HETATM    3  C   UNK N   1      21.757  14.419   4.625  0.00  0.00    -0.029 C 
HETATM    4  C   UNK N   1      22.950  13.979   4.225  0.00  0.00    -0.031 C 
BRANCH   4   5
HETATM    5  C   UNK N   1      23.200  13.565   2.814  0.00  0.00     0.027 C 
BRANCH   5   6
HETATM    6  C   UNK N   1      22.911  14.686   1.846  0.00  0.00     0.004 C 
BRANCH   6   7
HETATM    7  C   UNK N   1      21.855  14.209   0.875  0.00  0.00    -0.000 C 
BRANCH   7   8
HETATM    8  C   UNK N   1      20.627  15.077   1.014  0.00  0.00    -0.005 C 
HETATM    9  C   UNK N   1      19.450  14.212   1.411  0.00  0.00     0.005 C 
ENDBRANCH   7   8
ENDBRANCH   6   7
ENDBRANCH   5   6
ENDBRANCH   4   5
ENDBRANCH   2   3
ENDBRANCH   1   2
BRANCH   1  10
HETATM   10  C   UNK N   1      20.182  15.784   7.880  0.00  0.00     0.061 C 
BRANCH  10  11
HETATM   11  C   UNK N   1      20.899  14.711   8.656  0.00  0.00    -0.029 C 
HETATM   12  C   UNK N   1      20.273  13.981   9.575  0.00  0.00    -0.031 C 
BRANCH  12  13
HETATM   13  C   UNK N   1      21.026  13.042  10.458  0.00  0.00     0.027 C 
BRANCH  13  14
HETATM   14  C   UNK N   1      22.512  13.075  10.176  0.00  0.00     0.004 C 
BRANCH  14  15
HETATM   15  C   UNK N   1      22.976  11.704   9.734  0.00  0.00    -0.000 C 
BRANCH  15  16
HETATM   16  C   UNK N   1      23.130  11.699   8.229  0.00  0.00    -0.005 C 
HETATM   17  C   UNK N   1      24.183  12.709   7.831  0.00  0.00     0.005 C 
ENDBRANCH  15  16
ENDBRANCH  14  15
ENDBRANCH  13  14
ENDBRANCH  12  13
ENDBRANCH  10  11
ENDBRANCH   1  10
BRANCH   1  18
HETATM   18  P   UNK N   1      21.414  17.478   6.005  0.00  0.00     0.257 P 
HETATM   19  O   UNK N   1      21.083  18.044   4.603  0.00  0.00    -0.653 OA
BRANCH  18  20
HETATM   20  O   UNK N   1      21.039  18.793   7.075  0.00  0.00    -0.328 OA
HETATM   21  H   UNK N   1      20.546  19.618   6.954  0.00  0.00     0.220 HD
ENDBRANCH  18  20
BRANCH  18  22
HETATM   22  O   UNK N   1      23.145  17.338   6.006  0.00  0.00    -0.328 OA
HETATM   23  H   UNK N   1      23.856  17.824   6.453  0.00  0.00     0.220 HD
ENDBRANCH  18  22
ENDBRANCH   1  18
BRANCH   1  24
HETATM   24  P   UNK N   1      18.930  15.671   5.361  0.00  0.00     0.257 P 
HETATM   25  O   UNK N   1      17.732  16.136   6.236  0.00  0.00    -0.653 OA
BRANCH  24  26
HETATM   26  O   UNK N   1      18.430  14.092   4.850  0.00  0.00    -0.328 OA
HETATM   27  H   UNK N   1      18.422  13.736   3.948  0.00  0.00     0.220 HD
ENDBRANCH  24  26
BRANCH  24  28
HETATM   28  O   UNK N   1      18.787  16.659   3.945  0.00  0.00    -0.328 OA
HETATM   29  H   UNK N   1      18.401  17.508   3.676  0.00  0.00     0.220 HD
ENDBRANCH  24  28
ENDBRANCH   1  24
TORSDOF 18
ENDMDL
MODEL 5
REMARK VINA RESULT:      -5.2     14.929     17.714
REMARK  18 active torsions:
REMARK  status: ('A' for Active; 'I' for Inactive)
REMARK    1  A    between atoms: C_2  and  C_3 
REMARK    2  A    between atoms: C_3  and  C_4 
REMARK    3  A    between atoms: C_4  and  C_5 
REMARK    4  A    between atoms: C_5  and  C_6 
REMARK    5  A    between atoms: C_7  and  C_8 
REMARK    6  A    between atoms: C_8  and  C_9 
REMARK    7  A    between atoms: C_9  and  C_18 
REMARK    8  A    between atoms: C_9  and  P_10 
REMARK    9  A    between atoms: C_9  and  P_14 
REMARK   10  A    between atoms: P_10  and  O_11 
REMARK   11  A    between atoms: P_10  and  O_12 
REMARK   12  A    between atoms: P_14  and  O_15 
REMARK   13  A    between atoms: P_14  and  O_16 
REMARK   14  A    between atoms: C_18  and  C_19 
REMARK   15  A    between atoms: C_20  and  C_21 
REMARK   16  A    between atoms: C_21  and  C_22 
REMARK   17  A    between atoms: C_22  and  C_23 
REMARK   18  A    between atoms: C_23  and  C_24 
ROOT
HETATM    1  C   UNK N   1      27.044  22.883  -7.699  0.00  0.00     0.160 C 
ENDROOT
BRANCH   1   2
HETATM    2  C   UNK N   1      27.051  23.605  -6.330  0.00  0.00     0.061 C 
BRANCH   2   3
HETATM    3  C   UNK N   1      26.519  25.016  -6.363  0.00  0.00    -0.029 C 
HETATM    4  C   UNK N   1      25.491  25.390  -5.601  0.00  0.00    -0.031 C 
BRANCH   4   5
HETATM    5  C   UNK N   1      25.092  26.821  -5.470  0.00  0.00     0.027 C 
BRANCH   5   6
HETATM    6  C   UNK N   1      25.657  27.443  -4.216  0.00  0.00     0.004 C 
BRANCH   6   7
HETATM    7  C   UNK N   1      26.217  28.800  -4.575  0.00  0.00    -0.000 C 
BRANCH   7   8
HETATM    8  C   UNK N   1      27.250  28.638  -5.664  0.00  0.00    -0.005 C 
HETATM    9  C   UNK N   1      28.519  28.071  -5.066  0.00  0.00     0.005 C 
ENDBRANCH   7   8
ENDBRANCH   6   7
ENDBRANCH   5   6
ENDBRANCH   4   5
ENDBRANCH   2   3
ENDBRANCH   1   2
BRANCH   1  10
HETATM   10  C   UNK N   1      27.967  21.652  -7.551  0.00  0.00     0.061 C 
BRANCH  10  11
HETATM   11  C   UNK N   1      29.208  21.880  -6.729  0.00  0.00    -0.029 C 
HETATM   12  C   UNK N   1      29.807  20.884  -6.082  0.00  0.00    -0.031 C 
BRANCH  12  13
HETATM   13  C   UNK N   1      30.930  21.144  -5.134  0.00  0.00     0.027 C 
BRANCH  13  14
HETATM   14  C   UNK N   1      30.460  21.160  -3.696  0.00  0.00     0.004 C 
BRANCH  14  15
HETATM   15  C   UNK N   1      30.621  22.552  -3.124  0.00  0.00    -0.000 C 
BRANCH  15  16
HETATM   16  C   UNK N   1      29.296  23.275  -3.209  0.00  0.00    -0.005 C 
HETATM   17  C   UNK N   1      29.523  24.677  -3.728  0.00  0.00     0.005 C 
ENDBRANCH  15  16
ENDBRANCH  14  15
ENDBRANCH  13  14
ENDBRANCH  12  13
ENDBRANCH  10  11
ENDBRANCH   1  10
BRANCH   1  18
HETATM   18  P   UNK N   1      25.294  22.293  -8.141  0.00  0.00     0.257 P 
HETATM   19  O   UNK N   1      24.398  23.425  -8.699  0.00  0.00    -0.653 OA
BRANCH  18  20
HETATM   20  O   UNK N   1      25.204  21.062  -9.362  0.00  0.00    -0.328 OA
HETATM   21  H   UNK N   1      24.909  21.073 -10.285  0.00  0.00     0.220 HD
ENDBRANCH  18  20
BRANCH  18  22
HETATM   22  O   UNK N   1      24.404  21.683  -6.780  0.00  0.00    -0.328 OA
HETATM   23  H   UNK N   1      24.022  22.097  -5.990  0.00  0.00     0.220 HD
ENDBRANCH  18  22
ENDBRANCH   1  18
BRANCH   1  24
HETATM   24  P   UNK N   1      27.748  24.040  -9.024  0.00  0.00     0.257 P 
HETATM   25  O   UNK N   1      28.291  23.179 -10.199  0.00  0.00    -0.653 OA
BRANCH  24  26
HETATM   26  O   UNK N   1      29.110  25.035  -8.628  0.00  0.00    -0.328 OA
HETATM   27  H   UNK N   1      29.773  24.885  -7.935  0.00  0.00     0.220 HD
ENDBRANCH  24  26
BRANCH  24  28
HETATM   28  O   UNK N   1      26.632  25.111  -9.807  0.00  0.00    -0.328 OA
HETATM   29  H   UNK N   1      25.690  25.343  -9.776  0.00  0.00     0.220 HD
ENDBRANCH  24  28
ENDBRANCH   1  24
TORSDOF 18
ENDMDL
MODEL 6
REMARK VINA RESULT:      -5.2      2.050      4.518
REMARK  18 active torsions:
REMARK  status: ('A' for Active; 'I' for Inactive)
REMARK    1  A    between atoms: C_2  and  C_3 
REMARK    2  A    between atoms: C_3  and  C_4 
REMARK    3  A    between atoms: C_4  and  C_5 
REMARK    4  A    between atoms: C_5  and  C_6 
REMARK    5  A    between atoms: C_7  and  C_8 
REMARK    6  A    between atoms: C_8  and  C_9 
REMARK    7  A    between atoms: C_9  and  C_18 
REMARK    8  A    between atoms: C_9  and  P_10 
REMARK    9  A    between atoms: C_9  and  P_14 
REMARK   10  A    between atoms: P_10  and  O_11 
REMARK   11  A    between atoms: P_10  and  O_12 
REMARK   12  A    between atoms: P_14  and  O_15 
REMARK   13  A    between atoms: P_14  and  O_16 
REMARK   14  A    between atoms: C_18  and  C_19 
REMARK   15  A    between atoms: C_20  and  C_21 
REMARK   16  A    between atoms: C_21  and  C_22 
REMARK   17  A    between atoms: C_22  and  C_23 
REMARK   18  A    between atoms: C_23  and  C_24 
ROOT
HETATM    1  C   UNK N   1      34.074  15.271   8.166  0.00  0.00     0.160 C 
ENDROOT
BRANCH   1   2
HETATM    2  C   UNK N   1      32.539  15.124   8.036  0.00  0.00     0.061 C 
BRANCH   2   3
HETATM    3  C   UNK N   1      31.752  16.319   8.512  0.00  0.00    -0.029 C 
HETATM    4  C   UNK N   1      30.806  16.876   7.756  0.00  0.00    -0.031 C 
BRANCH   4   5
HETATM    5  C   UNK N   1      29.885  17.919   8.292  0.00  0.00     0.027 C 
BRANCH   5   6
HETATM    6  C   UNK N   1      28.726  18.171   7.359  0.00  0.00     0.004 C 
BRANCH   6   7
HETATM    7  C   UNK N   1      29.144  17.760   5.966  0.00  0.00    -0.000 C 
BRANCH   7   8
HETATM    8  C   UNK N   1      27.917  17.374   5.175  0.00  0.00    -0.005 C 
HETATM    9  C   UNK N   1      27.014  16.524   6.041  0.00  0.00     0.005 C 
ENDBRANCH   7   8
ENDBRANCH   6   7
ENDBRANCH   5   6
ENDBRANCH   4   5
ENDBRANCH   2   3
ENDBRANCH   1   2
BRANCH   1  10
HETATM   10  C   UNK N   1      34.469  16.510   7.329  0.00  0.00     0.061 C 
BRANCH  10  11
HETATM   11  C   UNK N   1      33.978  16.501   5.906  0.00  0.00    -0.029 C 
HETATM   12  C   UNK N   1      33.370  17.557   5.373  0.00  0.00    -0.031 C 
BRANCH  12  13
HETATM   13  C   UNK N   1      32.735  17.482   4.024  0.00  0.00     0.027 C 
BRANCH  13  14
HETATM   14  C   UNK N   1      32.646  16.058   3.522  0.00  0.00     0.004 C 
BRANCH  14  15
HETATM   15  C   UNK N   1      31.225  15.557   3.663  0.00  0.00    -0.000 C 
BRANCH  15  16
HETATM   16  C   UNK N   1      31.205  14.402   4.638  0.00  0.00    -0.005 C 
HETATM   17  C   UNK N   1      29.792  14.192   5.135  0.00  0.00     0.005 C 
ENDBRANCH  15  16
ENDBRANCH  14  15
ENDBRANCH  13  14
ENDBRANCH  12  13
ENDBRANCH  10  11
ENDBRANCH   1  10
BRANCH   1  18
HETATM   18  P   UNK N   1      34.572  15.564   9.975  0.00  0.00     0.257 P 
HETATM   19  O   UNK N   1      35.920  14.900  10.345  0.00  0.00    -0.653 OA
BRANCH  18  20
HETATM   20  O   UNK N   1      34.796  17.224  10.431  0.00  0.00    -0.328 OA
HETATM   21  H   UNK N   1      34.917  17.659  11.289  0.00  0.00     0.220 HD
ENDBRANCH  18  20
BRANCH  18  22
HETATM   22  O   UNK N   1      33.446  14.900  11.119  0.00  0.00    -0.328 OA
HETATM   23  H   UNK N   1      33.511  14.650  12.054  0.00  0.00     0.220 HD
ENDBRANCH  18  22
ENDBRANCH   1  18
BRANCH   1  24
HETATM   24  P   UNK N   1      34.916  13.733   7.448  0.00  0.00     0.257 P 
HETATM   25  O   UNK N   1      36.331  14.131   6.942  0.00  0.00    -0.653 OA
BRANCH  24  26
HETATM   26  O   UNK N   1      34.220  12.971   6.055  0.00  0.00    -0.328 OA
HETATM   27  H   UNK N   1      34.190  13.310   5.147  0.00  0.00     0.220 HD
ENDBRANCH  24  26
BRANCH  24  28
HETATM   28  O   UNK N   1      35.245  12.432   8.545  0.00  0.00    -0.328 OA
HETATM   29  H   UNK N   1      35.366  11.470   8.529  0.00  0.00     0.220 HD
ENDBRANCH  24  28
ENDBRANCH   1  24
TORSDOF 18
ENDMDL
MODEL 7
REMARK VINA RESULT:      -5.0     14.643     17.716
REMARK  18 active torsions:
REMARK  status: ('A' for Active; 'I' for Inactive)
REMARK    1  A    between atoms: C_2  and  C_3 
REMARK    2  A    between atoms: C_3  and  C_4 
REMARK    3  A    between atoms: C_4  and  C_5 
REMARK    4  A    between atoms: C_5  and  C_6 
REMARK    5  A    between atoms: C_7  and  C_8 
REMARK    6  A    between atoms: C_8  and  C_9 
REMARK    7  A    between atoms: C_9  and  C_18 
REMARK    8  A    between atoms: C_9  and  P_10 
REMARK    9  A    between atoms: C_9  and  P_14 
REMARK   10  A    between atoms: P_10  and  O_11 
REMARK   11  A    between atoms: P_10  and  O_12 
REMARK   12  A    between atoms: P_14  and  O_15 
REMARK   13  A    between atoms: P_14  and  O_16 
REMARK   14  A    between atoms: C_18  and  C_19 
REMARK   15  A    between atoms: C_20  and  C_21 
REMARK   16  A    between atoms: C_21  and  C_22 
REMARK   17  A    between atoms: C_22  and  C_23 
REMARK   18  A    between atoms: C_23  and  C_24 
ROOT
HETATM    1  C   UNK N   1      26.340  23.629  -8.505  0.00  0.00     0.160 C 
ENDROOT
BRANCH   1   2
HETATM    2  C   UNK N   1      27.585  23.856  -7.614  0.00  0.00     0.061 C 
BRANCH   2   3
HETATM    3  C   UNK N   1      28.457  22.638  -7.435  0.00  0.00    -0.029 C 
HETATM    4  C   UNK N   1      29.044  22.368  -6.270  0.00  0.00    -0.031 C 
BRANCH   4   5
HETATM    5  C   UNK N   1      29.733  21.070  -6.021  0.00  0.00     0.027 C 
BRANCH   5   6
HETATM    6  C   UNK N   1      31.067  21.269  -5.343  0.00  0.00     0.004 C 
BRANCH   6   7
HETATM    7  C   UNK N   1      30.962  22.475  -4.439  0.00  0.00    -0.000 C 
BRANCH   7   8
HETATM    8  C   UNK N   1      31.017  22.022  -3.000  0.00  0.00    -0.005 C 
HETATM    9  C   UNK N   1      30.091  22.885  -2.171  0.00  0.00     0.005 C 
ENDBRANCH   7   8
ENDBRANCH   6   7
ENDBRANCH   5   6
ENDBRANCH   4   5
ENDBRANCH   2   3
ENDBRANCH   1   2
BRANCH   1  10
HETATM   10  C   UNK N   1      25.541  24.952  -8.487  0.00  0.00     0.061 C 
BRANCH  10  11
HETATM   11  C   UNK N   1      25.977  25.948  -7.445  0.00  0.00    -0.029 C 
HETATM   12  C   UNK N   1      25.204  26.253  -6.406  0.00  0.00    -0.031 C 
BRANCH  12  13
HETATM   13  C   UNK N   1      25.565  27.362  -5.475  0.00  0.00     0.027 C 
BRANCH  13  14
HETATM   14  C   UNK N   1      26.102  26.839  -4.160  0.00  0.00     0.004 C 
BRANCH  14  15
HETATM   15  C   UNK N   1      27.613  26.770  -4.220  0.00  0.00    -0.000 C 
BRANCH  15  16
HETATM   16  C   UNK N   1      28.039  25.319  -4.216  0.00  0.00    -0.005 C 
HETATM   17  C   UNK N   1      26.959  24.483  -3.568  0.00  0.00     0.005 C 
ENDBRANCH  15  16
ENDBRANCH  14  15
ENDBRANCH  13  14
ENDBRANCH  12  13
ENDBRANCH  10  11
ENDBRANCH   1  10
BRANCH   1  18
HETATM   18  P   UNK N   1      26.851  23.241 -10.292  0.00  0.00     0.257 P 
HETATM   19  O   UNK N   1      27.170  21.743 -10.516  0.00  0.00    -0.653 OA
BRANCH  18  20
HETATM   20  O   UNK N   1      25.658  23.590 -11.505  0.00  0.00    -0.328 OA
HETATM   21  H   UNK N   1      25.193  24.403 -11.754  0.00  0.00     0.220 HD
ENDBRANCH  18  20
BRANCH  18  22
HETATM   22  O   UNK N   1      28.298  24.061 -10.792  0.00  0.00    -0.328 OA
HETATM   23  H   UNK N   1      29.185  24.145 -10.411  0.00  0.00     0.220 HD
ENDBRANCH  18  22
ENDBRANCH   1  18
BRANCH   1  24
HETATM   24  P   UNK N   1      25.280  22.244  -7.763  0.00  0.00     0.257 P 
HETATM   25  O   UNK N   1      25.224  22.432  -6.221  0.00  0.00    -0.653 OA
BRANCH  24  26
HETATM   26  O   UNK N   1      25.817  20.604  -7.921  0.00  0.00    -0.328 OA
HETATM   27  H   UNK N   1      26.254  20.056  -7.251  0.00  0.00     0.220 HD
ENDBRANCH  24  26
BRANCH  24  28
HETATM   28  O   UNK N   1      23.607  22.206  -8.214  0.00  0.00    -0.328 OA
HETATM   29  H   UNK N   1      23.059  22.015  -8.991  0.00  0.00     0.220 HD
ENDBRANCH  24  28
ENDBRANCH   1  24
TORSDOF 18
ENDMDL
MODEL 8
REMARK VINA RESULT:      -5.0      4.062      6.533
REMARK  18 active torsions:
REMARK  status: ('A' for Active; 'I' for Inactive)
REMARK    1  A    between atoms: C_2  and  C_3 
REMARK    2  A    between atoms: C_3  and  C_4 
REMARK    3  A    between atoms: C_4  and  C_5 
REMARK    4  A    between atoms: C_5  and  C_6 
REMARK    5  A    between atoms: C_7  and  C_8 
REMARK    6  A    between atoms: C_8  and  C_9 
REMARK    7  A    between atoms: C_9  and  C_18 
REMARK    8  A    between atoms: C_9  and  P_10 
REMARK    9  A    between atoms: C_9  and  P_14 
REMARK   10  A    between atoms: P_10  and  O_11 
REMARK   11  A    between atoms: P_10  and  O_12 
REMARK   12  A    between atoms: P_14  and  O_15 
REMARK   13  A    between atoms: P_14  and  O_16 
REMARK   14  A    between atoms: C_18  and  C_19 
REMARK   15  A    between atoms: C_20  and  C_21 
REMARK   16  A    between atoms: C_21  and  C_22 
REMARK   17  A    between atoms: C_22  and  C_23 
REMARK   18  A    between atoms: C_23  and  C_24 
ROOT
HETATM    1  C   UNK N   1      35.669  14.183   9.728  0.00  0.00     0.160 C 
ENDROOT
BRANCH   1   2
HETATM    2  C   UNK N   1      34.869  12.874   9.523  0.00  0.00     0.061 C 
BRANCH   2   3
HETATM    3  C   UNK N   1      34.846  11.959  10.722  0.00  0.00    -0.029 C 
HETATM    4  C   UNK N   1      35.150  10.666  10.617  0.00  0.00    -0.031 C 
BRANCH   4   5
HETATM    5  C   UNK N   1      35.332   9.803  11.818  0.00  0.00     0.027 C 
BRANCH   5   6
HETATM    6  C   UNK N   1      34.284  10.081  12.868  0.00  0.00     0.004 C 
BRANCH   6   7
HETATM    7  C   UNK N   1      34.792   9.559  14.192  0.00  0.00    -0.000 C 
BRANCH   7   8
HETATM    8  C   UNK N   1      34.304  10.462  15.300  0.00  0.00    -0.005 C 
HETATM    9  C   UNK N   1      34.175  11.874  14.771  0.00  0.00     0.005 C 
ENDBRANCH   7   8
ENDBRANCH   6   7
ENDBRANCH   5   6
ENDBRANCH   4   5
ENDBRANCH   2   3
ENDBRANCH   1   2
BRANCH   1  10
HETATM   10  C   UNK N   1      35.638  14.933   8.377  0.00  0.00     0.061 C 
BRANCH  10  11
HETATM   11  C   UNK N   1      34.422  15.792   8.151  0.00  0.00    -0.029 C 
HETATM   12  C   UNK N   1      34.353  16.646   7.134  0.00  0.00    -0.031 C 
BRANCH  12  13
HETATM   13  C   UNK N   1      33.223  17.615   7.015  0.00  0.00     0.027 C 
BRANCH  13  14
HETATM   14  C   UNK N   1      32.522  17.825   8.339  0.00  0.00     0.004 C 
BRANCH  14  15
HETATM   15  C   UNK N   1      31.052  17.494   8.194  0.00  0.00    -0.000 C 
BRANCH  15  16
HETATM   16  C   UNK N   1      30.258  18.345   9.159  0.00  0.00    -0.005 C 
HETATM   17  C   UNK N   1      28.918  18.680   8.544  0.00  0.00     0.005 C 
ENDBRANCH  15  16
ENDBRANCH  14  15
ENDBRANCH  13  14
ENDBRANCH  12  13
ENDBRANCH  10  11
ENDBRANCH   1  10
BRANCH   1  18
HETATM   18  P   UNK N   1      34.853  15.269  11.055  0.00  0.00     0.257 P 
HETATM   19  O   UNK N   1      35.349  14.949  12.486  0.00  0.00    -0.653 OA
BRANCH  18  20
HETATM   20  O   UNK N   1      35.130  16.976  10.900  0.00  0.00    -0.328 OA
HETATM   21  H   UNK N   1      34.715  17.663  10.356  0.00  0.00     0.220 HD
ENDBRANCH  18  20
BRANCH  18  22
HETATM   22  O   UNK N   1      33.131  15.070  11.151  0.00  0.00    -0.328 OA
HETATM   23  H   UNK N   1      32.541  14.639  11.789  0.00  0.00     0.220 HD
ENDBRANCH  18  22
ENDBRANCH   1  18
BRANCH   1  24
HETATM   24  P   UNK N   1      37.462  13.762  10.173  0.00  0.00     0.257 P 
HETATM   25  O   UNK N   1      37.924  12.566   9.294  0.00  0.00    -0.653 OA
BRANCH  24  26
HETATM   26  O   UNK N   1      37.818  13.209  11.777  0.00  0.00    -0.328 OA
HETATM   27  H   UNK N   1      38.201  12.357  12.039  0.00  0.00     0.220 HD
ENDBRANCH  24  26
BRANCH  24  28
HETATM   28  O   UNK N   1      38.658  14.972   9.848  0.00  0.00    -0.328 OA
HETATM   29  H   UNK N   1      39.501  15.290  10.210  0.00  0.00     0.220 HD
ENDBRANCH  24  28
ENDBRANCH   1  24
TORSDOF 18
ENDMDL
MODEL 9
REMARK VINA RESULT:      -5.0      9.723     12.335
REMARK  18 active torsions:
REMARK  status: ('A' for Active; 'I' for Inactive)
REMARK    1  A    between atoms: C_2  and  C_3 
REMARK    2  A    between atoms: C_3  and  C_4 
REMARK    3  A    between atoms: C_4  and  C_5 
REMARK    4  A    between atoms: C_5  and  C_6 
REMARK    5  A    between atoms: C_7  and  C_8 
REMARK    6  A    between atoms: C_8  and  C_9 
REMARK    7  A    between atoms: C_9  and  C_18 
REMARK    8  A    between atoms: C_9  and  P_10 
REMARK    9  A    between atoms: C_9  and  P_14 
REMARK   10  A    between atoms: P_10  and  O_11 
REMARK   11  A    between atoms: P_10  and  O_12 
REMARK   12  A    between atoms: P_14  and  O_15 
REMARK   13  A    between atoms: P_14  and  O_16 
REMARK   14  A    between atoms: C_18  and  C_19 
REMARK   15  A    between atoms: C_20  and  C_21 
REMARK   16  A    between atoms: C_21  and  C_22 
REMARK   17  A    between atoms: C_22  and  C_23 
REMARK   18  A    between atoms: C_23  and  C_24 
ROOT
HETATM    1  C   UNK N   1      21.195  17.875   3.785  0.00  0.00     0.160 C 
ENDROOT
BRANCH   1   2
HETATM    2  C   UNK N   1      22.703  17.825   3.443  0.00  0.00     0.061 C 
BRANCH   2   3
HETATM    3  C   UNK N   1      23.472  19.067   3.815  0.00  0.00    -0.029 C 
HETATM    4  C   UNK N   1      24.790  19.039   4.006  0.00  0.00    -0.031 C 
BRANCH   4   5
HETATM    5  C   UNK N   1      25.587  20.289   4.168  0.00  0.00     0.027 C 
BRANCH   5   6
HETATM    6  C   UNK N   1      27.065  20.032   4.009  0.00  0.00     0.004 C 
BRANCH   6   7
HETATM    7  C   UNK N   1      27.723  20.202   5.359  0.00  0.00    -0.000 C 
BRANCH   7   8
HETATM    8  C   UNK N   1      27.802  18.859   6.044  0.00  0.00    -0.005 C 
HETATM    9  C   UNK N   1      28.188  19.062   7.494  0.00  0.00     0.005 C 
ENDBRANCH   7   8
ENDBRANCH   6   7
ENDBRANCH   5   6
ENDBRANCH   4   5
ENDBRANCH   2   3
ENDBRANCH   1   2
BRANCH   1  10
HETATM   10  C   UNK N   1      21.098  18.064   5.316  0.00  0.00     0.061 C 
BRANCH  10  11
HETATM   11  C   UNK N   1      21.563  16.888   6.135  0.00  0.00    -0.029 C 
HETATM   12  C   UNK N   1      20.803  16.363   7.091  0.00  0.00    -0.031 C 
BRANCH  12  13
HETATM   13  C   UNK N   1      21.335  15.314   8.011  0.00  0.00     0.027 C 
BRANCH  13  14
HETATM   14  C   UNK N   1      20.440  15.116   9.215  0.00  0.00     0.004 C 
BRANCH  14  15
HETATM   15  C   UNK N   1      20.688  13.748   9.813  0.00  0.00    -0.000 C 
BRANCH  15  16
HETATM   16  C   UNK N   1      22.065  13.275   9.404  0.00  0.00    -0.005 C 
HETATM   17  C   UNK N   1      22.768  12.684  10.606  0.00  0.00     0.005 C 
ENDBRANCH  15  16
ENDBRANCH  14  15
ENDBRANCH  13  14
ENDBRANCH  12  13
ENDBRANCH  10  11
ENDBRANCH   1  10
BRANCH   1  18
HETATM   18  P   UNK N   1      20.358  19.348   2.927  0.00  0.00     0.257 P 
HETATM   19  O   UNK N   1      20.313  20.616   3.813  0.00  0.00    -0.653 OA
BRANCH  18  20
HETATM   20  O   UNK N   1      21.121  19.896   1.467  0.00  0.00    -0.328 OA
HETATM   21  H   UNK N   1      20.870  19.838   0.533  0.00  0.00     0.220 HD
ENDBRANCH  18  20
BRANCH  18  22
HETATM   22  O   UNK N   1      18.695  19.058   2.519  0.00  0.00    -0.328 OA
HETATM   23  H   UNK N   1      18.251  18.435   1.923  0.00  0.00     0.220 HD
ENDBRANCH  18  22
ENDBRANCH   1  18
BRANCH   1  24
HETATM   24  P   UNK N   1      20.385  16.231   3.301  0.00  0.00     0.257 P 
HETATM   25  O   UNK N   1      19.938  16.315   1.815  0.00  0.00    -0.653 OA
BRANCH  24  26
HETATM   26  O   UNK N   1      18.927  15.749   4.105  0.00  0.00    -0.328 OA
HETATM   27  H   UNK N   1      18.751  15.739   5.058  0.00  0.00     0.220 HD
ENDBRANCH  24  26
BRANCH  24  28
HETATM   28  O   UNK N   1      21.391  14.821   3.328  0.00  0.00    -0.328 OA
HETATM   29  H   UNK N   1      22.310  14.576   3.522  0.00  0.00     0.220 HD
ENDBRANCH  24  28
ENDBRANCH   1  24
TORSDOF 18
ENDMDL
