MODEL 1
REMARK VINA RESULT:      -7.5      0.000      0.000
REMARK  2 active torsions:
REMARK  status: ('A' for Active; 'I' for Inactive)
REMARK    1  A    between atoms: N_7  and  C_17 
REMARK       I    between atoms: C_8  and  N_11 
REMARK    2  A    between atoms: C_17  and  C_18 
ROOT
HETATM    1  N   UNK N   1      21.253  12.934  10.394  0.00  0.00    -0.269 N 
HETATM    2  C   UNK N   1      22.603  12.670  10.187  0.00  0.00     0.332 A 
HETATM    3  N   UNK N   1      23.278  13.272   9.137  0.00  0.00    -0.287 N 
HETATM    4  C   UNK N   1      22.585  14.104   8.320  0.00  0.00     0.160 A 
HETATM    5  C   UNK N   1      21.268  14.373   8.493  0.00  0.00     0.165 A 
HETATM    6  C   UNK N   1      20.571  13.798   9.554  0.00  0.00     0.282 A 
HETATM    7  N   UNK N   1      20.866  15.225   7.526  0.00  0.00    -0.170 N 
HETATM    8  C   UNK N   1      21.990  15.458   6.786  0.00  0.00     0.685 A 
HETATM    9  N   UNK N   1      23.068  14.780   7.260  0.00  0.00    -0.174 N 
ATOM     10  HN  UNK N   1      24.022  14.781   6.897  1.00  0.00     0.186 HD
HETATM   11  N   UNK N   1      22.065  16.320   5.651  0.00  0.00    -0.214 N 
HETATM   12  C   UNK N   1      23.350  16.711   5.122  0.00  0.00     0.168 C 
HETATM   13  C   UNK N   1      23.403  18.240   5.092  0.00  0.00     0.252 C 
HETATM   14  N   UNK N   1      22.275  18.761   4.314  0.00  0.00    -0.072 N 
HETATM   15  C   UNK N   1      21.020  18.390   4.973  0.00  0.00     0.252 C 
HETATM   16  C   UNK N   1      20.886  16.871   5.022  0.00  0.00     0.168 C 
HETATM   17  O   UNK N   1      19.392  14.047   9.740  0.00  0.00    -0.265 OA
HETATM   18  C   UNK N   1      20.549  12.298  11.504  0.00  0.00     0.164 C 
HETATM   19  O   UNK N   1      23.198  11.907  10.934  0.00  0.00    -0.246 OA
HETATM   20  C   UNK N   1      24.696  13.021   8.908  0.00  0.00     0.163 C 
HETATM   21  H   UNK N   1      22.352  19.298   3.451  0.00  0.00     0.277 HD
HETATM   22  H   UNK N   1      21.407  19.065   3.873  0.00  0.00     0.277 HD
ENDROOT
BRANCH   7  23
HETATM   23  C   UNK N   1      19.546  15.837   7.349  0.00  0.00     0.186 C 
BRANCH  23  24
HETATM   24  C   UNK N   1      19.179  16.899   8.348  0.00  0.00    -0.039 A 
HETATM   25  C   UNK N   1      20.109  17.913   8.597  0.00  0.00     0.009 A 
HETATM   26  C   UNK N   1      19.839  18.903   9.547  0.00  0.00     0.001 A 
HETATM   27  C   UNK N   1      18.639  18.876  10.261  0.00  0.00     0.000 A 
HETATM   28  C   UNK N   1      17.702  17.868  10.014  0.00  0.00     0.001 A 
HETATM   29  C   UNK N   1      17.967  16.885   9.056  0.00  0.00     0.009 A 
ENDBRANCH  23  24
ENDBRANCH   7  23
TORSDOF 2
ENDMDL
MODEL 2
REMARK VINA RESULT:      -7.3      2.607      5.626
REMARK  2 active torsions:
REMARK  status: ('A' for Active; 'I' for Inactive)
REMARK    1  A    between atoms: N_7  and  C_17 
REMARK       I    between atoms: C_8  and  N_11 
REMARK    2  A    between atoms: C_17  and  C_18 
ROOT
HETATM    1  N   UNK N   1      20.245  16.916   8.187  0.00  0.00    -0.269 N 
HETATM    2  C   UNK N   1      20.942  17.693   7.266  0.00  0.00     0.332 A 
HETATM    3  N   UNK N   1      21.901  17.114   6.451  0.00  0.00    -0.287 N 
HETATM    4  C   UNK N   1      22.146  15.787   6.587  0.00  0.00     0.160 A 
HETATM    5  C   UNK N   1      21.488  15.009   7.481  0.00  0.00     0.165 A 
HETATM    6  C   UNK N   1      20.504  15.560   8.298  0.00  0.00     0.282 A 
HETATM    7  N   UNK N   1      21.953  13.744   7.383  0.00  0.00    -0.170 N 
HETATM    8  C   UNK N   1      22.895  13.801   6.396  0.00  0.00     0.685 A 
HETATM    9  N   UNK N   1      23.029  15.053   5.884  0.00  0.00    -0.174 N 
ATOM     10  HN  UNK N   1      23.655  15.366   5.142  1.00  0.00     0.186 HD
HETATM   11  N   UNK N   1      23.658  12.693   5.920  0.00  0.00    -0.214 N 
HETATM   12  C   UNK N   1      24.412  12.805   4.694  0.00  0.00     0.168 C 
HETATM   13  C   UNK N   1      23.967  11.678   3.760  0.00  0.00     0.252 C 
HETATM   14  N   UNK N   1      24.138  10.383   4.427  0.00  0.00    -0.072 N 
HETATM   15  C   UNK N   1      23.271  10.329   5.607  0.00  0.00     0.252 C 
HETATM   16  C   UNK N   1      23.670  11.417   6.599  0.00  0.00     0.168 C 
HETATM   17  O   UNK N   1      19.884  14.871   9.091  0.00  0.00    -0.265 OA
HETATM   18  C   UNK N   1      19.234  17.533   9.041  0.00  0.00     0.164 C 
HETATM   19  O   UNK N   1      20.706  18.889   7.174  0.00  0.00    -0.246 OA
HETATM   20  C   UNK N   1      22.635  17.905   5.470  0.00  0.00     0.163 C 
HETATM   21  H   UNK N   1      24.762   9.639   4.118  0.00  0.00     0.277 HD
HETATM   22  H   UNK N   1      24.160   9.530   4.984  0.00  0.00     0.277 HD
ENDROOT
BRANCH   7  23
HETATM   23  C   UNK N   1      21.497  12.553   8.105  0.00  0.00     0.186 C 
BRANCH  23  24
HETATM   24  C   UNK N   1      22.035  12.388   9.499  0.00  0.00    -0.039 A 
HETATM   25  C   UNK N   1      23.422  12.301   9.660  0.00  0.00     0.009 A 
HETATM   26  C   UNK N   1      23.976  12.105  10.928  0.00  0.00     0.001 A 
HETATM   27  C   UNK N   1      23.143  11.984  12.043  0.00  0.00     0.000 A 
HETATM   28  C   UNK N   1      21.756  12.075  11.891  0.00  0.00     0.001 A 
HETATM   29  C   UNK N   1      21.202  12.283  10.624  0.00  0.00     0.009 A 
ENDBRANCH  23  24
ENDBRANCH   7  23
TORSDOF 2
ENDMDL
MODEL 3
REMARK VINA RESULT:      -7.3      2.470      4.955
REMARK  2 active torsions:
REMARK  status: ('A' for Active; 'I' for Inactive)
REMARK    1  A    between atoms: N_7  and  C_17 
REMARK       I    between atoms: C_8  and  N_11 
REMARK    2  A    between atoms: C_17  and  C_18 
ROOT
HETATM    1  N   UNK N   1      20.004  16.896   8.344  0.00  0.00    -0.269 N 
HETATM    2  C   UNK N   1      20.071  15.528   8.591  0.00  0.00     0.332 A 
HETATM    3  N   UNK N   1      20.968  14.737   7.891  0.00  0.00    -0.287 N 
HETATM    4  C   UNK N   1      21.757  15.330   6.960  0.00  0.00     0.160 A 
HETATM    5  C   UNK N   1      21.706  16.657   6.693  0.00  0.00     0.165 A 
HETATM    6  C   UNK N   1      20.829  17.479   7.398  0.00  0.00     0.282 A 
HETATM    7  N   UNK N   1      22.601  16.942   5.723  0.00  0.00    -0.170 N 
HETATM    8  C   UNK N   1      23.187  15.743   5.435  0.00  0.00     0.685 A 
HETATM    9  N   UNK N   1      22.686  14.731   6.191  0.00  0.00    -0.174 N 
ATOM     10  HN  UNK N   1      22.951  13.745   6.178  1.00  0.00     0.186 HD
HETATM   11  N   UNK N   1      24.221  15.541   4.472  0.00  0.00    -0.214 N 
HETATM   12  C   UNK N   1      24.959  14.301   4.450  0.00  0.00     0.168 C 
HETATM   13  C   UNK N   1      26.447  14.634   4.570  0.00  0.00     0.252 C 
HETATM   14  N   UNK N   1      26.838  15.558   3.500  0.00  0.00    -0.072 N 
HETATM   15  C   UNK N   1      26.103  16.816   3.655  0.00  0.00     0.252 C 
HETATM   16  C   UNK N   1      24.604  16.565   3.527  0.00  0.00     0.168 C 
HETATM   17  O   UNK N   1      20.786  18.680   7.190  0.00  0.00    -0.265 OA
HETATM   18  C   UNK N   1      19.058  17.723   9.089  0.00  0.00     0.164 C 
HETATM   19  O   UNK N   1      19.340  15.022   9.430  0.00  0.00    -0.246 OA
HETATM   20  C   UNK N   1      21.067  13.305   8.141  0.00  0.00     0.163 C 
HETATM   21  H   UNK N   1      27.514  15.355   2.764  0.00  0.00     0.277 HD
HETATM   22  H   UNK N   1      27.018  16.292   2.816  0.00  0.00     0.277 HD
ENDROOT
BRANCH   7  23
HETATM   23  C   UNK N   1      22.938  18.252   5.157  0.00  0.00     0.186 C 
BRANCH  23  24
HETATM   24  C   UNK N   1      22.076  18.712   4.015  0.00  0.00    -0.039 A 
HETATM   25  C   UNK N   1      22.483  19.844   3.301  0.00  0.00     0.009 A 
HETATM   26  C   UNK N   1      21.700  20.342   2.256  0.00  0.00     0.001 A 
HETATM   27  C   UNK N   1      20.496  19.714   1.927  0.00  0.00     0.000 A 
HETATM   28  C   UNK N   1      20.085  18.579   2.632  0.00  0.00     0.001 A 
HETATM   29  C   UNK N   1      20.875  18.074   3.670  0.00  0.00     0.009 A 
ENDBRANCH  23  24
ENDBRANCH   7  23
TORSDOF 2
ENDMDL
MODEL 4
REMARK VINA RESULT:      -7.2      7.631      9.873
REMARK  2 active torsions:
REMARK  status: ('A' for Active; 'I' for Inactive)
REMARK    1  A    between atoms: N_7  and  C_17 
REMARK       I    between atoms: C_8  and  N_11 
REMARK    2  A    between atoms: C_17  and  C_18 
ROOT
HETATM    1  N   UNK N   1      33.054  17.223   7.055  0.00  0.00    -0.269 N 
HETATM    2  C   UNK N   1      33.716  16.457   6.100  0.00  0.00     0.332 A 
HETATM    3  N   UNK N   1      32.994  15.716   5.178  0.00  0.00    -0.287 N 
HETATM    4  C   UNK N   1      31.639  15.751   5.245  0.00  0.00     0.160 A 
HETATM    5  C   UNK N   1      30.969  16.482   6.169  0.00  0.00     0.165 A 
HETATM    6  C   UNK N   1      31.671  17.252   7.094  0.00  0.00     0.282 A 
HETATM    7  N   UNK N   1      29.643  16.309   5.984  0.00  0.00    -0.170 N 
HETATM    8  C   UNK N   1      29.553  15.463   4.916  0.00  0.00     0.685 A 
HETATM    9  N   UNK N   1      30.775  15.108   4.437  0.00  0.00    -0.174 N 
ATOM     10  HN  UNK N   1      30.988  14.495   3.650  1.00  0.00     0.186 HD
HETATM   11  N   UNK N   1      28.336  14.999   4.331  0.00  0.00    -0.214 N 
HETATM   12  C   UNK N   1      28.354  14.344   3.045  0.00  0.00     0.168 C 
HETATM   13  C   UNK N   1      27.397  15.098   2.119  0.00  0.00     0.252 C 
HETATM   14  N   UNK N   1      26.062  15.152   2.721  0.00  0.00    -0.072 N 
HETATM   15  C   UNK N   1      26.127  15.908   3.974  0.00  0.00     0.252 C 
HETATM   16  C   UNK N   1      27.052  15.203   4.962  0.00  0.00     0.168 C 
HETATM   17  O   UNK N   1      31.086  17.936   7.917  0.00  0.00    -0.265 OA
HETATM   18  C   UNK N   1      33.823  18.003   8.021  0.00  0.00     0.164 C 
HETATM   19  O   UNK N   1      34.938  16.438   6.071  0.00  0.00    -0.246 OA
HETATM   20  C   UNK N   1      33.663  14.916   4.160  0.00  0.00     0.163 C 
HETATM   21  H   UNK N   1      25.221  14.730   2.329  0.00  0.00     0.277 HD
HETATM   22  H   UNK N   1      25.194  15.266   3.244  0.00  0.00     0.277 HD
ENDROOT
BRANCH   7  23
HETATM   23  C   UNK N   1      28.536  16.947   6.705  0.00  0.00     0.186 C 
BRANCH  23  24
HETATM   24  C   UNK N   1      28.189  18.342   6.266  0.00  0.00    -0.039 A 
HETATM   25  C   UNK N   1      27.812  19.263   7.248  0.00  0.00     0.009 A 
HETATM   26  C   UNK N   1      27.438  20.563   6.894  0.00  0.00     0.001 A 
HETATM   27  C   UNK N   1      27.430  20.944   5.550  0.00  0.00     0.000 A 
HETATM   28  C   UNK N   1      27.812  20.031   4.563  0.00  0.00     0.001 A 
HETATM   29  C   UNK N   1      28.197  18.734   4.918  0.00  0.00     0.009 A 
ENDBRANCH  23  24
ENDBRANCH   7  23
TORSDOF 2
ENDMDL
MODEL 5
REMARK VINA RESULT:      -7.0     14.788     17.618
REMARK  2 active torsions:
REMARK  status: ('A' for Active; 'I' for Inactive)
REMARK    1  A    between atoms: N_7  and  C_17 
REMARK       I    between atoms: C_8  and  N_11 
REMARK    2  A    between atoms: C_17  and  C_18 
ROOT
HETATM    1  N   UNK N   1      36.008  14.366  10.619  0.00  0.00    -0.269 N 
HETATM    2  C   UNK N   1      37.003  13.740   9.873  0.00  0.00     0.332 A 
HETATM    3  N   UNK N   1      37.687  12.655  10.397  0.00  0.00    -0.287 N 
HETATM    4  C   UNK N   1      37.370  12.237  11.648  0.00  0.00     0.160 A 
HETATM    5  C   UNK N   1      36.412  12.833  12.399  0.00  0.00     0.165 A 
HETATM    6  C   UNK N   1      35.694  13.913  11.888  0.00  0.00     0.282 A 
HETATM    7  N   UNK N   1      36.333  12.199  13.589  0.00  0.00    -0.170 N 
HETATM    8  C   UNK N   1      37.266  11.205  13.510  0.00  0.00     0.685 A 
HETATM    9  N   UNK N   1      37.917  11.205  12.317  0.00  0.00    -0.174 N 
ATOM     10  HN  UNK N   1      38.652  10.571  12.001  1.00  0.00     0.186 HD
HETATM   11  N   UNK N   1      37.540  10.249  14.533  0.00  0.00    -0.214 N 
HETATM   12  C   UNK N   1      38.335   9.081  14.239  0.00  0.00     0.168 C 
HETATM   13  C   UNK N   1      37.521   7.845  14.628  0.00  0.00     0.252 C 
HETATM   14  N   UNK N   1      37.124   7.934  16.036  0.00  0.00    -0.072 N 
HETATM   15  C   UNK N   1      36.251   9.097  16.220  0.00  0.00     0.252 C 
HETATM   16  C   UNK N   1      37.005  10.376  15.869  0.00  0.00     0.168 C 
HETATM   17  O   UNK N   1      34.811  14.446  12.539  0.00  0.00    -0.265 OA
HETATM   18  C   UNK N   1      35.289  15.507  10.058  0.00  0.00     0.164 C 
HETATM   19  O   UNK N   1      37.273  14.145   8.752  0.00  0.00    -0.246 OA
HETATM   20  C   UNK N   1      38.724  11.974   9.631  0.00  0.00     0.163 C 
HETATM   21  H   UNK N   1      37.410   7.289  16.771  0.00  0.00     0.277 HD
HETATM   22  H   UNK N   1      36.773   8.112  16.977  0.00  0.00     0.277 HD
ENDROOT
BRANCH   7  23
HETATM   23  C   UNK N   1      35.401  12.455  14.691  0.00  0.00     0.186 C 
BRANCH  23  24
HETATM   24  C   UNK N   1      35.856  13.460  15.712  0.00  0.00    -0.039 A 
HETATM   25  C   UNK N   1      35.200  13.484  16.947  0.00  0.00     0.009 A 
HETATM   26  C   UNK N   1      35.553  14.426  17.918  0.00  0.00     0.001 A 
HETATM   27  C   UNK N   1      36.560  15.357  17.653  0.00  0.00     0.000 A 
HETATM   28  C   UNK N   1      37.224  15.336  16.423  0.00  0.00     0.001 A 
HETATM   29  C   UNK N   1      36.879  14.387  15.456  0.00  0.00     0.009 A 
ENDBRANCH  23  24
ENDBRANCH   7  23
TORSDOF 2
ENDMDL
MODEL 6
REMARK VINA RESULT:      -6.8     16.155     18.871
REMARK  2 active torsions:
REMARK  status: ('A' for Active; 'I' for Inactive)
REMARK    1  A    between atoms: N_7  and  C_17 
REMARK       I    between atoms: C_8  and  N_11 
REMARK    2  A    between atoms: C_17  and  C_18 
ROOT
HETATM    1  N   UNK N   1      25.541  23.201  -7.833  0.00  0.00    -0.269 N 
HETATM    2  C   UNK N   1      25.659  23.969  -8.988  0.00  0.00     0.332 A 
HETATM    3  N   UNK N   1      26.070  25.290  -8.907  0.00  0.00    -0.287 N 
HETATM    4  C   UNK N   1      26.337  25.806  -7.681  0.00  0.00     0.160 A 
HETATM    5  C   UNK N   1      26.223  25.084  -6.540  0.00  0.00     0.165 A 
HETATM    6  C   UNK N   1      25.832  23.747  -6.595  0.00  0.00     0.282 A 
HETATM    7  N   UNK N   1      26.550  25.870  -5.492  0.00  0.00    -0.170 N 
HETATM    8  C   UNK N   1      26.870  27.073  -6.052  0.00  0.00     0.685 A 
HETATM    9  N   UNK N   1      26.752  27.058  -7.406  0.00  0.00    -0.174 N 
ATOM     10  HN  UNK N   1      26.933  27.818  -8.062  1.00  0.00     0.186 HD
HETATM   11  N   UNK N   1      27.301  28.228  -5.333  0.00  0.00    -0.214 N 
HETATM   12  C   UNK N   1      27.881  29.346  -6.038  0.00  0.00     0.168 C 
HETATM   13  C   UNK N   1      29.255  29.628  -5.428  0.00  0.00     0.252 C 
HETATM   14  N   UNK N   1      29.121  29.861  -3.987  0.00  0.00    -0.072 N 
HETATM   15  C   UNK N   1      28.610  28.646  -3.346  0.00  0.00     0.252 C 
HETATM   16  C   UNK N   1      27.225  28.312  -3.892  0.00  0.00     0.168 C 
HETATM   17  O   UNK N   1      25.748  23.074  -5.582  0.00  0.00    -0.265 OA
HETATM   18  C   UNK N   1      25.110  21.809  -7.927  0.00  0.00     0.164 C 
HETATM   19  O   UNK N   1      25.402  23.479 -10.077  0.00  0.00    -0.246 OA
HETATM   20  C   UNK N   1      26.214  26.111 -10.102  0.00  0.00     0.163 C 
HETATM   21  H   UNK N   1      29.348  30.731  -3.506  0.00  0.00     0.277 HD
HETATM   22  H   UNK N   1      28.981  29.888  -2.977  0.00  0.00     0.277 HD
ENDROOT
BRANCH   7  23
HETATM   23  C   UNK N   1      26.630  25.502  -4.074  0.00  0.00     0.186 C 
BRANCH  23  24
HETATM   24  C   UNK N   1      27.872  24.763  -3.660  0.00  0.00    -0.039 A 
HETATM   25  C   UNK N   1      27.744  23.752  -2.702  0.00  0.00     0.009 A 
HETATM   26  C   UNK N   1      28.871  23.061  -2.248  0.00  0.00     0.001 A 
HETATM   27  C   UNK N   1      30.136  23.385  -2.745  0.00  0.00     0.000 A 
HETATM   28  C   UNK N   1      30.271  24.391  -3.707  0.00  0.00     0.001 A 
HETATM   29  C   UNK N   1      29.142  25.075  -4.169  0.00  0.00     0.009 A 
ENDBRANCH  23  24
ENDBRANCH   7  23
TORSDOF 2
ENDMDL
MODEL 7
REMARK VINA RESULT:      -6.6      2.799      4.747
REMARK  2 active torsions:
REMARK  status: ('A' for Active; 'I' for Inactive)
REMARK    1  A    between atoms: N_7  and  C_17 
REMARK       I    between atoms: C_8  and  N_11 
REMARK    2  A    between atoms: C_17  and  C_18 
ROOT
HETATM    1  N   UNK N   1      21.996  14.701   7.591  0.00  0.00    -0.269 N 
HETATM    2  C   UNK N   1      23.052  13.796   7.616  0.00  0.00     0.332 A 
HETATM    3  N   UNK N   1      24.223  14.073   6.928  0.00  0.00    -0.287 N 
HETATM    4  C   UNK N   1      24.298  15.233   6.228  0.00  0.00     0.160 A 
HETATM    5  C   UNK N   1      23.282  16.128   6.180  0.00  0.00     0.165 A 
HETATM    6  C   UNK N   1      22.102  15.884   6.880  0.00  0.00     0.282 A 
HETATM    7  N   UNK N   1      23.655  17.170   5.406  0.00  0.00    -0.170 N 
HETATM    8  C   UNK N   1      24.925  16.865   5.010  0.00  0.00     0.685 A 
HETATM    9  N   UNK N   1      25.348  15.674   5.509  0.00  0.00    -0.174 N 
ATOM     10  HN  UNK N   1      26.251  15.219   5.371  1.00  0.00     0.186 HD
HETATM   11  N   UNK N   1      25.749  17.686   4.182  0.00  0.00    -0.214 N 
HETATM   12  C   UNK N   1      27.160  17.406   4.060  0.00  0.00     0.168 C 
HETATM   13  C   UNK N   1      27.928  18.672   4.441  0.00  0.00     0.252 C 
HETATM   14  N   UNK N   1      27.486  19.793   3.605  0.00  0.00    -0.072 N 
HETATM   15  C   UNK N   1      26.068  20.058   3.861  0.00  0.00     0.252 C 
HETATM   16  C   UNK N   1      25.232  18.840   3.483  0.00  0.00     0.168 C 
HETATM   17  O   UNK N   1      21.186  16.689   6.870  0.00  0.00    -0.265 OA
HETATM   18  C   UNK N   1      20.766  14.403   8.321  0.00  0.00     0.164 C 
HETATM   19  O   UNK N   1      22.950  12.755   8.247  0.00  0.00    -0.246 OA
HETATM   20  C   UNK N   1      25.349  13.147   6.949  0.00  0.00     0.163 C 
HETATM   21  H   UNK N   1      28.074  20.305   2.949  0.00  0.00     0.277 HD
HETATM   22  H   UNK N   1      27.052  20.554   3.084  0.00  0.00     0.277 HD
ENDROOT
BRANCH   7  23
HETATM   23  C   UNK N   1      22.906  18.398   5.119  0.00  0.00     0.186 C 
BRANCH  23  24
HETATM   24  C   UNK N   1      21.853  18.286   4.052  0.00  0.00    -0.039 A 
HETATM   25  C   UNK N   1      21.031  19.395   3.824  0.00  0.00     0.009 A 
HETATM   26  C   UNK N   1      20.007  19.334   2.874  0.00  0.00     0.001 A 
HETATM   27  C   UNK N   1      19.794  18.157   2.154  0.00  0.00     0.000 A 
HETATM   28  C   UNK N   1      20.614  17.046   2.372  0.00  0.00     0.001 A 
HETATM   29  C   UNK N   1      21.645  17.111   3.315  0.00  0.00     0.009 A 
ENDBRANCH  23  24
ENDBRANCH   7  23
TORSDOF 2
ENDMDL
MODEL 8
REMARK VINA RESULT:      -6.4      8.703     12.008
REMARK  2 active torsions:
REMARK  status: ('A' for Active; 'I' for Inactive)
REMARK    1  A    between atoms: N_7  and  C_17 
REMARK       I    between atoms: C_8  and  N_11 
REMARK    2  A    between atoms: C_17  and  C_18 
ROOT
HETATM    1  N   UNK N   1      28.277  17.806   6.454  0.00  0.00    -0.269 N 
HETATM    2  C   UNK N   1      28.509  18.525   7.623  0.00  0.00     0.332 A 
HETATM    3  N   UNK N   1      29.564  18.182   8.453  0.00  0.00    -0.287 N 
HETATM    4  C   UNK N   1      30.344  17.130   8.101  0.00  0.00     0.160 A 
HETATM    5  C   UNK N   1      30.136  16.407   6.974  0.00  0.00     0.165 A 
HETATM    6  C   UNK N   1      29.095  16.744   6.110  0.00  0.00     0.282 A 
HETATM    7  N   UNK N   1      31.065  15.431   6.903  0.00  0.00    -0.170 N 
HETATM    8  C   UNK N   1      31.834  15.608   8.018  0.00  0.00     0.685 A 
HETATM    9  N   UNK N   1      31.411  16.656   8.773  0.00  0.00    -0.174 N 
ATOM     10  HN  UNK N   1      31.808  17.003   9.647  1.00  0.00     0.186 HD
HETATM   11  N   UNK N   1      32.967  14.815   8.373  0.00  0.00    -0.214 N 
HETATM   12  C   UNK N   1      33.866  15.261   9.410  0.00  0.00     0.168 C 
HETATM   13  C   UNK N   1      35.278  15.306   8.822  0.00  0.00     0.252 C 
HETATM   14  N   UNK N   1      35.632  13.993   8.276  0.00  0.00    -0.072 N 
HETATM   15  C   UNK N   1      34.721  13.666   7.176  0.00  0.00     0.252 C 
HETATM   16  C   UNK N   1      33.288  13.582   7.692  0.00  0.00     0.168 C 
HETATM   17  O   UNK N   1      28.907  16.122   5.078  0.00  0.00    -0.265 OA
HETATM   18  C   UNK N   1      27.164  18.175   5.583  0.00  0.00     0.164 C 
HETATM   19  O   UNK N   1      27.783  19.462   7.919  0.00  0.00    -0.246 OA
HETATM   20  C   UNK N   1      29.836  18.928   9.676  0.00  0.00     0.163 C 
HETATM   21  H   UNK N   1      36.392  13.400   8.610  0.00  0.00     0.277 HD
HETATM   22  H   UNK N   1      35.770  13.099   7.804  0.00  0.00     0.277 HD
ENDROOT
BRANCH   7  23
HETATM   23  C   UNK N   1      31.269  14.449   5.833  0.00  0.00     0.186 C 
BRANCH  23  24
HETATM   24  C   UNK N   1      32.106  14.911   4.673  0.00  0.00    -0.039 A 
HETATM   25  C   UNK N   1      32.782  13.941   3.925  0.00  0.00     0.009 A 
HETATM   26  C   UNK N   1      33.608  14.316   2.862  0.00  0.00     0.001 A 
HETATM   27  C   UNK N   1      33.770  15.668   2.548  0.00  0.00     0.000 A 
HETATM   28  C   UNK N   1      33.094  16.643   3.287  0.00  0.00     0.001 A 
HETATM   29  C   UNK N   1      32.258  16.267   4.344  0.00  0.00     0.009 A 
ENDBRANCH  23  24
ENDBRANCH   7  23
TORSDOF 2
ENDMDL
MODEL 9
REMARK VINA RESULT:      -6.4      3.677      5.948
REMARK  2 active torsions:
REMARK  status: ('A' for Active; 'I' for Inactive)
REMARK    1  A    between atoms: N_7  and  C_17 
REMARK       I    between atoms: C_8  and  N_11 
REMARK    2  A    between atoms: C_17  and  C_18 
ROOT
HETATM    1  N   UNK N   1      26.765  17.193   6.020  0.00  0.00    -0.269 N 
HETATM    2  C   UNK N   1      27.131  18.485   5.655  0.00  0.00     0.332 A 
HETATM    3  N   UNK N   1      26.270  19.266   4.901  0.00  0.00    -0.287 N 
HETATM    4  C   UNK N   1      25.082  18.733   4.523  0.00  0.00     0.160 A 
HETATM    5  C   UNK N   1      24.703  17.475   4.857  0.00  0.00     0.165 A 
HETATM    6  C   UNK N   1      25.541  16.676   5.633  0.00  0.00     0.282 A 
HETATM    7  N   UNK N   1      23.482  17.234   4.334  0.00  0.00    -0.170 N 
HETATM    8  C   UNK N   1      23.149  18.392   3.693  0.00  0.00     0.685 A 
HETATM    9  N   UNK N   1      24.120  19.337   3.799  0.00  0.00    -0.174 N 
ATOM     10  HN  UNK N   1      24.122  20.283   3.418  1.00  0.00     0.186 HD
HETATM   11  N   UNK N   1      21.925  18.626   2.996  0.00  0.00    -0.214 N 
HETATM   12  C   UNK N   1      21.560  19.965   2.602  0.00  0.00     0.168 C 
HETATM   13  C   UNK N   1      20.179  20.269   3.185  0.00  0.00     0.252 C 
HETATM   14  N   UNK N   1      19.218  19.255   2.740  0.00  0.00    -0.072 N 
HETATM   15  C   UNK N   1      19.623  17.946   3.260  0.00  0.00     0.252 C 
HETATM   16  C   UNK N   1      20.991  17.563   2.703  0.00  0.00     0.168 C 
HETATM   17  O   UNK N   1      25.207  15.551   5.965  0.00  0.00    -0.265 OA
HETATM   18  C   UNK N   1      27.676  16.377   6.818  0.00  0.00     0.164 C 
HETATM   19  O   UNK N   1      28.213  18.935   6.003  0.00  0.00    -0.246 OA
HETATM   20  C   UNK N   1      26.625  20.627   4.518  0.00  0.00     0.163 C 
HETATM   21  H   UNK N   1      18.398  19.433   2.162  0.00  0.00     0.277 HD
HETATM   22  H   UNK N   1      18.630  18.456   2.504  0.00  0.00     0.277 HD
ENDROOT
BRANCH   7  23
HETATM   23  C   UNK N   1      22.652  16.034   4.487  0.00  0.00     0.186 C 
BRANCH  23  24
HETATM   24  C   UNK N   1      21.950  15.889   5.808  0.00  0.00    -0.039 A 
HETATM   25  C   UNK N   1      21.336  17.022   6.352  0.00  0.00     0.009 A 
HETATM   26  C   UNK N   1      20.705  16.956   7.598  0.00  0.00     0.001 A 
HETATM   27  C   UNK N   1      20.694  15.755   8.311  0.00  0.00     0.000 A 
HETATM   28  C   UNK N   1      21.300  14.617   7.772  0.00  0.00     0.001 A 
HETATM   29  C   UNK N   1      21.922  14.681   6.521  0.00  0.00     0.009 A 
ENDBRANCH  23  24
ENDBRANCH   7  23
TORSDOF 2
ENDMDL
