REMARK  2 active torsions:
REMARK  status: ('A' for Active; 'I' for Inactive)
REMARK    1  A    between atoms: N_7  and  C_17 
REMARK       I    between atoms: C_8  and  N_11 
REMARK    2  A    between atoms: C_17  and  C_18 
ROOT
HETATM    1  N   UNK N   1       3.160  -0.907  -0.574  0.00  0.00    -0.269 N 
HETATM    2  C   UNK N   1       3.059  -2.159   0.026  0.00  0.00     0.332 A 
HETATM    3  N   UNK N   1       1.827  -2.631   0.449  0.00  0.00    -0.287 N 
HETATM    4  C   UNK N   1       0.740  -1.838   0.275  0.00  0.00     0.160 A 
HETATM    5  C   UNK N   1       0.811  -0.612  -0.298  0.00  0.00     0.165 A 
HETATM    6  C   UNK N   1       2.034  -0.122  -0.752  0.00  0.00     0.282 A 
HETATM    7  N   UNK N   1      -0.426  -0.071  -0.325  0.00  0.00    -0.170 N 
HETATM    8  C   UNK N   1      -1.228  -1.021   0.239  0.00  0.00     0.685 A 
HETATM    9  N   UNK N   1      -0.531  -2.126   0.614  0.00  0.00    -0.174 N 
ATOM     10  HN  UNK N   1      -0.887  -2.976   1.052  1.00  0.00     0.186 HD
HETATM   11  N   UNK N   1      -2.640  -0.909   0.415  0.00  0.00    -0.214 N 
HETATM   12  C   UNK N   1      -3.422  -2.073   0.757  0.00  0.00     0.168 C 
HETATM   13  C   UNK N   1      -4.525  -2.226  -0.292  0.00  0.00     0.252 C 
HETATM   14  N   UNK N   1      -5.320  -0.996  -0.361  0.00  0.00    -0.072 N 
HETATM   15  C   UNK N   1      -4.463   0.109  -0.799  0.00  0.00     0.252 C 
HETATM   16  C   UNK N   1      -3.345   0.336   0.214  0.00  0.00     0.168 C 
HETATM   17  O   UNK N   1       2.114   0.968  -1.293  0.00  0.00    -0.265 OA
HETATM   18  C   UNK N   1       4.462  -0.418  -1.020  0.00  0.00     0.164 C 
HETATM   19  O   UNK N   1       4.058  -2.846   0.178  0.00  0.00    -0.246 OA
HETATM   20  C   UNK N   1       1.693  -3.944   1.068  0.00  0.00     0.163 C 
HETATM   21  H   UNK N   1      -6.312  -0.922  -0.139  0.00  0.00     0.277 HD
HETATM   22  H   UNK N   1      -5.752  -0.077  -0.452  0.00  0.00     0.277 HD
ENDROOT
BRANCH   7  23
HETATM   23  C   UNK N   1      -0.842   1.210  -0.905  0.00  0.00     0.186 C 
BRANCH  23  24
HETATM   24  C   UNK N   1      -0.263   2.438  -0.260  0.00  0.00    -0.039 A 
HETATM   25  C   UNK N   1      -0.631   3.685  -0.776  0.00  0.00     0.009 A 
HETATM   26  C   UNK N   1      -0.091   4.859  -0.243  0.00  0.00     0.001 A 
HETATM   27  C   UNK N   1       0.830   4.790   0.805  0.00  0.00     0.000 A 
HETATM   28  C   UNK N   1       1.199   3.548   1.330  0.00  0.00     0.001 A 
HETATM   29  C   UNK N   1       0.650   2.374   0.804  0.00  0.00     0.009 A 
ENDBRANCH  23  24
ENDBRANCH   7  23
TORSDOF 2
