REMARK  4 active torsions:
REMARK  status: ('A' for Active; 'I' for Inactive)
REMARK    1  A    between atoms: C_9  and  C_13 
REMARK    2  A    between atoms: N_12  and  C_11 
REMARK    3  A    between atoms: N_12  and  C_14 
REMARK    4  A    between atoms: C_15  and  C_14 
ROOT
HETATM    1  C   UNK N   1      -3.748   2.585  -0.160  0.00  0.00     0.069 A 
HETATM    2  C   UNK N   1      -2.501   2.011  -0.058  0.00  0.00     0.131 A 
HETATM    3  N   UNK N   1      -2.618   0.682  -0.054  0.00  0.00    -0.224 N 
HETATM    4  N   UNK N   1      -3.886   0.340  -0.146  0.00  0.00    -0.302 N 
ATOM      5  HN  UNK N   1      -4.255  -0.610  -0.164  1.00  0.00     0.186 HD
HETATM    6  C   UNK N   1      -4.614   1.484  -0.214  0.00  0.00     0.111 A 
HETATM    7  N   UNK N   1      -1.287   2.625   0.020  0.00  0.00    -0.340 N 
ATOM      8  HN  UNK N   1      -1.219   3.643   0.003  1.00  0.00     0.167 HD
HETATM    9  C   UNK N   1      -0.155   1.850   0.122  0.00  0.00     0.049 A 
HETATM   10  C   UNK N   1      -0.289   0.460   0.159  0.00  0.00     0.080 A 
HETATM   11  C   UNK N   1      -1.534  -0.125   0.058  0.00  0.00     0.127 A 
ENDROOT
BRANCH  11  12
HETATM   12  N   UNK N   1      -1.610  -1.526   0.067  0.00  0.00    -0.370 N 
HETATM   13  H   UNK N   1      -1.095  -2.014   0.749  0.00  0.00     0.161 HD
BRANCH  12  14
HETATM   14  C   UNK N   1      -2.395  -2.288  -0.859  0.00  0.00     0.160 C 
BRANCH  14  15
HETATM   15  C   UNK N   1      -2.116  -3.721  -0.578  0.00  0.00    -0.038 A 
HETATM   16  C   UNK N   1      -0.795  -4.181  -0.487  0.00  0.00     0.025 A 
HETATM   17  C   UNK N   1      -0.557  -5.506  -0.124  0.00  0.00     0.088 A 
HETATM   18  N   UNK N   1      -1.602  -6.339   0.130  0.00  0.00    -0.375 N 
HETATM   19  C   UNK N   1      -2.891  -5.912   0.034  0.00  0.00     0.088 A 
ATOM     20  HN  UNK N   1      -1.415  -7.305   0.400  1.00  0.00     0.164 HD
HETATM   21  C   UNK N   1      -3.170  -4.590  -0.314  0.00  0.00     0.025 A 
ENDBRANCH  14  15
ENDBRANCH  12  14
ENDBRANCH  11  12
BRANCH   9  22
HETATM   22  C   UNK N   1       1.206   2.467   0.117  0.00  0.00     0.014 A 
HETATM   23  C   UNK N   1       1.284   3.865   0.033  0.00  0.00     0.015 A 
HETATM   24  C   UNK N   1       2.515   4.516  -0.020  0.00  0.00     0.003 A 
HETATM   25  C   UNK N   1       3.697   3.782   0.002  0.00  0.00     0.026 A 
HETATM   26  C   UNK N   1       3.661   2.392   0.086  0.00  0.00     0.056 A 
HETATM   27  C   UNK N   1       2.430   1.714   0.148  0.00  0.00     0.068 A 
HETATM   28 Cl   UNK N   1       5.188   1.515   0.097  0.00  0.00    -0.083 Cl
HETATM   29 Cl   UNK N   1       2.494  -0.057   0.248  0.00  0.00    -0.082 Cl
ENDBRANCH   9  22
TORSDOF 4
