MODEL 1
REMARK VINA RESULT:      -7.2      0.000      0.000
REMARK  4 active torsions:
REMARK  status: ('A' for Active; 'I' for Inactive)
REMARK    1  A    between atoms: C_9  and  C_13 
REMARK    2  A    between atoms: N_12  and  C_11 
REMARK    3  A    between atoms: N_12  and  C_14 
REMARK    4  A    between atoms: C_15  and  C_14 
ROOT
HETATM    1  C   UNK N   1      38.568  13.113  10.585  0.00  0.00     0.069 A 
HETATM    2  C   UNK N   1      37.469  13.193  11.410  0.00  0.00     0.131 A 
HETATM    3  N   UNK N   1      36.601  14.078  10.916  0.00  0.00    -0.224 N 
HETATM    4  N   UNK N   1      37.070  14.596   9.801  0.00  0.00    -0.302 N 
ATOM      5  HN  UNK N   1      36.609  15.296   9.220  1.00  0.00     0.186 HD
HETATM    6  C   UNK N   1      38.279  14.027   9.562  0.00  0.00     0.111 A 
HETATM    7  N   UNK N   1      37.218  12.506  12.560  0.00  0.00    -0.340 N 
ATOM      8  HN  UNK N   1      37.890  11.824  12.913  1.00  0.00     0.167 HD
HETATM    9  C   UNK N   1      36.045  12.747  13.236  0.00  0.00     0.049 A 
HETATM   10  C   UNK N   1      35.157  13.700  12.731  0.00  0.00     0.080 A 
HETATM   11  C   UNK N   1      35.437  14.360  11.553  0.00  0.00     0.127 A 
ENDROOT
BRANCH  11  12
HETATM   12  N   UNK N   1      34.496  15.283  11.071  0.00  0.00    -0.370 N 
HETATM   13  H   UNK N   1      34.524  16.201  11.425  0.00  0.00     0.161 HD
BRANCH  12  14
HETATM   14  C   UNK N   1      33.497  14.967  10.093  0.00  0.00     0.160 C 
BRANCH  14  15
HETATM   15  C   UNK N   1      33.481  16.091   9.120  0.00  0.00    -0.038 A 
HETATM   16  C   UNK N   1      34.458  17.094   9.180  0.00  0.00     0.025 A 
HETATM   17  C   UNK N   1      34.483  18.083   8.197  0.00  0.00     0.088 A 
HETATM   18  N   UNK N   1      33.560  18.071   7.198  0.00  0.00    -0.375 N 
HETATM   19  C   UNK N   1      32.597  17.111   7.131  0.00  0.00     0.088 A 
ATOM     20  HN  UNK N   1      33.592  18.796   6.481  1.00  0.00     0.164 HD
HETATM   21  C   UNK N   1      32.547  16.097   8.089  0.00  0.00     0.025 A 
ENDBRANCH  14  15
ENDBRANCH  12  14
ENDBRANCH  11  12
BRANCH   9  22
HETATM   22  C   UNK N   1      35.677  11.957  14.450  0.00  0.00     0.014 A 
HETATM   23  C   UNK N   1      35.201  10.653  14.255  0.00  0.00     0.015 A 
HETATM   24  C   UNK N   1      34.796   9.865  15.332  0.00  0.00     0.003 A 
HETATM   25  C   UNK N   1      34.853  10.368  16.628  0.00  0.00     0.026 A 
HETATM   26  C   UNK N   1      35.321  11.659  16.862  0.00  0.00     0.056 A 
HETATM   27  C   UNK N   1      35.741  12.469  15.792  0.00  0.00     0.068 A 
HETATM   28 Cl   UNK N   1      35.357  12.247  18.522  0.00  0.00    -0.083 Cl
HETATM   29 Cl   UNK N   1      36.316  14.099  16.198  0.00  0.00    -0.082 Cl
ENDBRANCH   9  22
TORSDOF 4
ENDMDL
MODEL 2
REMARK VINA RESULT:      -7.1      7.987     12.382
REMARK  4 active torsions:
REMARK  status: ('A' for Active; 'I' for Inactive)
REMARK    1  A    between atoms: C_9  and  C_13 
REMARK    2  A    between atoms: N_12  and  C_11 
REMARK    3  A    between atoms: N_12  and  C_14 
REMARK    4  A    between atoms: C_15  and  C_14 
ROOT
HETATM    1  C   UNK N   1      28.338  18.317   8.875  0.00  0.00     0.069 A 
HETATM    2  C   UNK N   1      28.273  18.331   7.500  0.00  0.00     0.131 A 
HETATM    3  N   UNK N   1      29.316  17.671   6.994  0.00  0.00    -0.224 N 
HETATM    4  N   UNK N   1      30.079  17.218   7.968  0.00  0.00    -0.302 N 
ATOM      5  HN  UNK N   1      30.939  16.682   7.861  1.00  0.00     0.186 HD
HETATM    6  C   UNK N   1      29.510  17.595   9.141  0.00  0.00     0.111 A 
HETATM    7  N   UNK N   1      27.324  18.895   6.700  0.00  0.00    -0.340 N 
ATOM      8  HN  UNK N   1      26.527  19.385   7.108  1.00  0.00     0.167 HD
HETATM    9  C   UNK N   1      27.459  18.792   5.335  0.00  0.00     0.049 A 
HETATM   10  C   UNK N   1      28.572  18.129   4.814  0.00  0.00     0.080 A 
HETATM   11  C   UNK N   1      29.501  17.554   5.656  0.00  0.00     0.127 A 
ENDROOT
BRANCH  11  12
HETATM   12  N   UNK N   1      30.583  16.870   5.081  0.00  0.00    -0.370 N 
HETATM   13  H   UNK N   1      30.536  15.889   5.029  0.00  0.00     0.161 HD
BRANCH  12  14
HETATM   14  C   UNK N   1      31.752  17.519   4.564  0.00  0.00     0.160 C 
BRANCH  14  15
HETATM   15  C   UNK N   1      32.909  16.988   5.331  0.00  0.00    -0.038 A 
HETATM   16  C   UNK N   1      33.270  17.563   6.558  0.00  0.00     0.025 A 
HETATM   17  C   UNK N   1      34.295  16.986   7.307  0.00  0.00     0.088 A 
HETATM   18  N   UNK N   1      34.938  15.882   6.841  0.00  0.00    -0.375 N 
HETATM   19  C   UNK N   1      34.609  15.318   5.647  0.00  0.00     0.088 A 
ATOM     20  HN  UNK N   1      35.683  15.466   7.401  1.00  0.00     0.164 HD
HETATM   21  C   UNK N   1      33.580  15.858   4.874  0.00  0.00     0.025 A 
ENDBRANCH  14  15
ENDBRANCH  12  14
ENDBRANCH  11  12
BRANCH   9  22
HETATM   22  C   UNK N   1      26.402  19.310   4.414  0.00  0.00     0.014 A 
HETATM   23  C   UNK N   1      26.743  20.377   3.570  0.00  0.00     0.015 A 
HETATM   24  C   UNK N   1      25.804  20.946   2.712  0.00  0.00     0.003 A 
HETATM   25  C   UNK N   1      24.498  20.465   2.685  0.00  0.00     0.026 A 
HETATM   26  C   UNK N   1      24.121  19.406   3.507  0.00  0.00     0.056 A 
HETATM   27  C   UNK N   1      25.054  18.812   4.376  0.00  0.00     0.068 A 
HETATM   28 Cl   UNK N   1      22.452  18.848   3.439  0.00  0.00    -0.083 Cl
HETATM   29 Cl   UNK N   1      24.471  17.473   5.385  0.00  0.00    -0.082 Cl
ENDBRANCH   9  22
TORSDOF 4
ENDMDL
MODEL 3
REMARK VINA RESULT:      -6.9      2.139      3.431
REMARK  4 active torsions:
REMARK  status: ('A' for Active; 'I' for Inactive)
REMARK    1  A    between atoms: C_9  and  C_13 
REMARK    2  A    between atoms: N_12  and  C_11 
REMARK    3  A    between atoms: N_12  and  C_14 
REMARK    4  A    between atoms: C_15  and  C_14 
ROOT
HETATM    1  C   UNK N   1      33.816  10.040  12.291  0.00  0.00     0.069 A 
HETATM    2  C   UNK N   1      34.402  10.996  13.090  0.00  0.00     0.131 A 
HETATM    3  N   UNK N   1      34.916  11.963  12.327  0.00  0.00    -0.224 N 
HETATM    4  N   UNK N   1      34.702  11.698  11.056  0.00  0.00    -0.302 N 
ATOM      5  HN  UNK N   1      34.989  12.270  10.263  1.00  0.00     0.186 HD
HETATM    6  C   UNK N   1      34.026  10.522  10.992  0.00  0.00     0.111 A 
HETATM    7  N   UNK N   1      34.483  11.035  14.449  0.00  0.00    -0.340 N 
ATOM      8  HN  UNK N   1      34.073  10.290  15.014  1.00  0.00     0.167 HD
HETATM    9  C   UNK N   1      35.126  12.093  15.048  0.00  0.00     0.049 A 
HETATM   10  C   UNK N   1      35.690  13.085  14.241  0.00  0.00     0.080 A 
HETATM   11  C   UNK N   1      35.570  13.020  12.869  0.00  0.00     0.127 A 
ENDROOT
BRANCH  11  12
HETATM   12  N   UNK N   1      36.126  14.059  12.106  0.00  0.00    -0.370 N 
HETATM   13  H   UNK N   1      36.845  13.836  11.473  0.00  0.00     0.161 HD
BRANCH  12  14
HETATM   14  C   UNK N   1      35.705  15.427  12.196  0.00  0.00     0.160 C 
BRANCH  14  15
HETATM   15  C   UNK N   1      34.966  15.729  10.942  0.00  0.00    -0.038 A 
HETATM   16  C   UNK N   1      33.865  14.949  10.563  0.00  0.00     0.025 A 
HETATM   17  C   UNK N   1      33.126  15.311   9.438  0.00  0.00     0.088 A 
HETATM   18  N   UNK N   1      33.481  16.408   8.716  0.00  0.00    -0.375 N 
HETATM   19  C   UNK N   1      34.555  17.170   9.063  0.00  0.00     0.088 A 
ATOM     20  HN  UNK N   1      32.930  16.667   7.898  1.00  0.00     0.164 HD
HETATM   21  C   UNK N   1      35.312  16.847  10.189  0.00  0.00     0.025 A 
ENDBRANCH  14  15
ENDBRANCH  12  14
ENDBRANCH  11  12
BRANCH   9  22
HETATM   22  C   UNK N   1      35.163  12.233  16.535  0.00  0.00     0.014 A 
HETATM   23  C   UNK N   1      35.089  13.529  17.067  0.00  0.00     0.015 A 
HETATM   24  C   UNK N   1      35.159  13.750  18.441  0.00  0.00     0.003 A 
HETATM   25  C   UNK N   1      35.313  12.678  19.315  0.00  0.00     0.026 A 
HETATM   26  C   UNK N   1      35.389  11.376  18.826  0.00  0.00     0.056 A 
HETATM   27  C   UNK N   1      35.313  11.129  17.443  0.00  0.00     0.068 A 
HETATM   28 Cl   UNK N   1      35.596  10.061  19.978  0.00  0.00    -0.083 Cl
HETATM   29 Cl   UNK N   1      35.425   9.436  16.923  0.00  0.00    -0.082 Cl
ENDBRANCH   9  22
TORSDOF 4
ENDMDL
MODEL 4
REMARK VINA RESULT:      -6.9      1.908      2.580
REMARK  4 active torsions:
REMARK  status: ('A' for Active; 'I' for Inactive)
REMARK    1  A    between atoms: C_9  and  C_13 
REMARK    2  A    between atoms: N_12  and  C_11 
REMARK    3  A    between atoms: N_12  and  C_14 
REMARK    4  A    between atoms: C_15  and  C_14 
ROOT
HETATM    1  C   UNK N   1      37.155  13.073   8.580  0.00  0.00     0.069 A 
HETATM    2  C   UNK N   1      36.422  13.525   9.654  0.00  0.00     0.131 A 
HETATM    3  N   UNK N   1      35.530  14.427   9.241  0.00  0.00    -0.224 N 
HETATM    4  N   UNK N   1      35.634  14.602   7.940  0.00  0.00    -0.302 N 
ATOM      5  HN  UNK N   1      35.074  15.234   7.369  1.00  0.00     0.186 HD
HETATM    6  C   UNK N   1      36.623  13.785   7.495  0.00  0.00     0.111 A 
HETATM    7  N   UNK N   1      36.517  13.157  10.962  0.00  0.00    -0.340 N 
ATOM      8  HN  UNK N   1      37.198  12.456  11.255  1.00  0.00     0.167 HD
HETATM    9  C   UNK N   1      35.680  13.746  11.882  0.00  0.00     0.049 A 
HETATM   10  C   UNK N   1      34.772  14.714  11.446  0.00  0.00     0.080 A 
HETATM   11  C   UNK N   1      34.693  15.046  10.109  0.00  0.00     0.127 A 
ENDROOT
BRANCH  11  12
HETATM   12  N   UNK N   1      33.741  16.000   9.719  0.00  0.00    -0.370 N 
HETATM   13  H   UNK N   1      32.792  15.809   9.898  0.00  0.00     0.161 HD
BRANCH  12  14
HETATM   14  C   UNK N   1      34.069  17.238   9.077  0.00  0.00     0.160 C 
BRANCH  14  15
HETATM   15  C   UNK N   1      33.252  17.306   7.837  0.00  0.00    -0.038 A 
HETATM   16  C   UNK N   1      33.866  17.515   6.594  0.00  0.00     0.025 A 
HETATM   17  C   UNK N   1      33.092  17.475   5.435  0.00  0.00     0.088 A 
HETATM   18  N   UNK N   1      31.754  17.244   5.519  0.00  0.00    -0.375 N 
HETATM   19  C   UNK N   1      31.140  17.052   6.719  0.00  0.00     0.088 A 
ATOM     20  HN  UNK N   1      31.199  17.212   4.663  1.00  0.00     0.164 HD
HETATM   21  C   UNK N   1      31.882  17.071   7.900  0.00  0.00     0.025 A 
ENDBRANCH  14  15
ENDBRANCH  12  14
ENDBRANCH  11  12
BRANCH   9  22
HETATM   22  C   UNK N   1      35.678  13.314  13.312  0.00  0.00     0.014 A 
HETATM   23  C   UNK N   1      36.366  14.117  14.234  0.00  0.00     0.015 A 
HETATM   24  C   UNK N   1      36.448  13.762  15.579  0.00  0.00     0.003 A 
HETATM   25  C   UNK N   1      35.849  12.590  16.031  0.00  0.00     0.026 A 
HETATM   26  C   UNK N   1      35.156  11.766  15.147  0.00  0.00     0.056 A 
HETATM   27  C   UNK N   1      35.055  12.109  13.786  0.00  0.00     0.068 A 
HETATM   28 Cl   UNK N   1      34.431  10.289  15.774  0.00  0.00    -0.083 Cl
HETATM   29 Cl   UNK N   1      34.155  10.989  12.743  0.00  0.00    -0.082 Cl
ENDBRANCH   9  22
TORSDOF 4
ENDMDL
MODEL 5
REMARK VINA RESULT:      -6.8     14.036     16.933
REMARK  4 active torsions:
REMARK  status: ('A' for Active; 'I' for Inactive)
REMARK    1  A    between atoms: C_9  and  C_13 
REMARK    2  A    between atoms: N_12  and  C_11 
REMARK    3  A    between atoms: N_12  and  C_14 
REMARK    4  A    between atoms: C_15  and  C_14 
ROOT
HETATM    1  C   UNK N   1      20.937  16.709   7.363  0.00  0.00     0.069 A 
HETATM    2  C   UNK N   1      21.391  17.103   6.124  0.00  0.00     0.131 A 
HETATM    3  N   UNK N   1      20.492  16.779   5.193  0.00  0.00    -0.224 N 
HETATM    4  N   UNK N   1      19.458  16.185   5.750  0.00  0.00    -0.302 N 
ATOM      5  HN  UNK N   1      18.631  15.835   5.268  1.00  0.00     0.186 HD
HETATM    6  C   UNK N   1      19.693  16.123   7.086  0.00  0.00     0.111 A 
HETATM    7  N   UNK N   1      22.555  17.737   5.809  0.00  0.00    -0.340 N 
ATOM      8  HN  UNK N   1      23.224  17.987   6.539  1.00  0.00     0.167 HD
HETATM    9  C   UNK N   1      22.814  18.036   4.491  0.00  0.00     0.049 A 
HETATM   10  C   UNK N   1      21.883  17.664   3.519  0.00  0.00     0.080 A 
HETATM   11  C   UNK N   1      20.707  17.040   3.880  0.00  0.00     0.127 A 
ENDROOT
BRANCH  11  12
HETATM   12  N   UNK N   1      19.791  16.717   2.867  0.00  0.00    -0.370 N 
HETATM   13  H   UNK N   1      18.875  16.471   3.131  0.00  0.00     0.161 HD
BRANCH  12  14
HETATM   14  C   UNK N   1      20.110  16.726   1.470  0.00  0.00     0.160 C 
BRANCH  14  15
HETATM   15  C   UNK N   1      20.317  15.309   1.070  0.00  0.00    -0.038 A 
HETATM   16  C   UNK N   1      21.607  14.761   1.043  0.00  0.00     0.025 A 
HETATM   17  C   UNK N   1      21.766  13.405   0.762  0.00  0.00     0.088 A 
HETATM   18  N   UNK N   1      20.677  12.630   0.510  0.00  0.00    -0.375 N 
HETATM   19  C   UNK N   1      19.418  13.149   0.520  0.00  0.00     0.088 A 
ATOM     20  HN  UNK N   1      20.806  11.638   0.311  1.00  0.00     0.164 HD
HETATM   21  C   UNK N   1      19.216  14.499   0.809  0.00  0.00     0.025 A 
ENDBRANCH  14  15
ENDBRANCH  12  14
ENDBRANCH  11  12
BRANCH   9  22
HETATM   22  C   UNK N   1      24.029  18.812   4.100  0.00  0.00     0.014 A 
HETATM   23  C   UNK N   1      23.839  19.977   3.343  0.00  0.00     0.015 A 
HETATM   24  C   UNK N   1      24.922  20.735   2.902  0.00  0.00     0.003 A 
HETATM   25  C   UNK N   1      26.222  20.340   3.202  0.00  0.00     0.026 A 
HETATM   26  C   UNK N   1      26.452  19.189   3.953  0.00  0.00     0.056 A 
HETATM   27  C   UNK N   1      25.374  18.413   4.415  0.00  0.00     0.068 A 
HETATM   28 Cl   UNK N   1      28.118  18.731   4.291  0.00  0.00    -0.083 Cl
HETATM   29 Cl   UNK N   1      25.775  16.964   5.358  0.00  0.00    -0.082 Cl
ENDBRANCH   9  22
TORSDOF 4
ENDMDL
MODEL 6
REMARK VINA RESULT:      -6.8     18.855     22.132
REMARK  4 active torsions:
REMARK  status: ('A' for Active; 'I' for Inactive)
REMARK    1  A    between atoms: C_9  and  C_13 
REMARK    2  A    between atoms: N_12  and  C_11 
REMARK    3  A    between atoms: N_12  and  C_14 
REMARK    4  A    between atoms: C_15  and  C_14 
ROOT
HETATM    1  C   UNK N   1      26.610  22.365  -8.736  0.00  0.00     0.069 A 
HETATM    2  C   UNK N   1      26.991  22.841  -7.502  0.00  0.00     0.131 A 
HETATM    3  N   UNK N   1      26.109  23.749  -7.079  0.00  0.00    -0.224 N 
HETATM    4  N   UNK N   1      25.157  23.905  -7.975  0.00  0.00    -0.302 N 
ATOM      5  HN  UNK N   1      24.360  24.537  -7.905  1.00  0.00     0.186 HD
HETATM    6  C   UNK N   1      25.429  23.070  -9.010  0.00  0.00     0.111 A 
HETATM    7  N   UNK N   1      28.073  22.489  -6.752  0.00  0.00    -0.340 N 
ATOM      8  HN  UNK N   1      28.729  21.783  -7.089  1.00  0.00     0.167 HD
HETATM    9  C   UNK N   1      28.268  23.101  -5.536  0.00  0.00     0.049 A 
HETATM   10  C   UNK N   1      27.358  24.075  -5.116  0.00  0.00     0.080 A 
HETATM   11  C   UNK N   1      26.264  24.390  -5.894  0.00  0.00     0.127 A 
ENDROOT
BRANCH  11  12
HETATM   12  N   UNK N   1      25.363  25.351  -5.411  0.00  0.00    -0.370 N 
HETATM   13  H   UNK N   1      24.884  25.159  -4.573  0.00  0.00     0.161 HD
BRANCH  12  14
HETATM   14  C   UNK N   1      25.100  26.598  -6.067  0.00  0.00     0.160 C 
BRANCH  14  15
HETATM   15  C   UNK N   1      25.923  27.626  -5.378  0.00  0.00    -0.038 A 
HETATM   16  C   UNK N   1      26.995  28.238  -6.042  0.00  0.00     0.025 A 
HETATM   17  C   UNK N   1      27.690  29.269  -5.412  0.00  0.00     0.088 A 
HETATM   18  N   UNK N   1      27.329  29.667  -4.162  0.00  0.00    -0.375 N 
HETATM   19  C   UNK N   1      26.299  29.075  -3.498  0.00  0.00     0.088 A 
ATOM     20  HN  UNK N   1      27.842  30.426  -3.713  1.00  0.00     0.164 HD
HETATM   21  C   UNK N   1      25.571  28.049  -4.100  0.00  0.00     0.025 A 
ENDBRANCH  14  15
ENDBRANCH  12  14
ENDBRANCH  11  12
BRANCH   9  22
HETATM   22  C   UNK N   1      29.384  22.687  -4.633  0.00  0.00     0.014 A 
HETATM   23  C   UNK N   1      29.598  23.449  -3.475  0.00  0.00     0.015 A 
HETATM   24  C   UNK N   1      30.645  23.156  -2.603  0.00  0.00     0.003 A 
HETATM   25  C   UNK N   1      31.507  22.098  -2.874  0.00  0.00     0.026 A 
HETATM   26  C   UNK N   1      31.327  21.317  -4.014  0.00  0.00     0.056 A 
HETATM   27  C   UNK N   1      30.273  21.590  -4.905  0.00  0.00     0.068 A 
HETATM   28 Cl   UNK N   1      32.456  20.000  -4.313  0.00  0.00    -0.083 Cl
HETATM   29 Cl   UNK N   1      30.134  20.540  -6.329  0.00  0.00    -0.082 Cl
ENDBRANCH   9  22
TORSDOF 4
ENDMDL
MODEL 7
REMARK VINA RESULT:      -6.6      4.461      8.518
REMARK  4 active torsions:
REMARK  status: ('A' for Active; 'I' for Inactive)
REMARK    1  A    between atoms: C_9  and  C_13 
REMARK    2  A    between atoms: N_12  and  C_11 
REMARK    3  A    between atoms: N_12  and  C_14 
REMARK    4  A    between atoms: C_15  and  C_14 
ROOT
HETATM    1  C   UNK N   1      34.851  15.373   5.820  0.00  0.00     0.069 A 
HETATM    2  C   UNK N   1      33.909  15.524   6.812  0.00  0.00     0.131 A 
HETATM    3  N   UNK N   1      34.320  14.905   7.920  0.00  0.00    -0.224 N 
HETATM    4  N   UNK N   1      35.493  14.344   7.714  0.00  0.00    -0.302 N 
ATOM      5  HN  UNK N   1      36.033  13.808   8.392  1.00  0.00     0.186 HD
HETATM    6  C   UNK N   1      35.854  14.610   6.432  0.00  0.00     0.111 A 
HETATM    7  N   UNK N   1      32.722  16.193   6.762  0.00  0.00    -0.340 N 
ATOM      8  HN  UNK N   1      32.432  16.670   5.908  1.00  0.00     0.167 HD
HETATM    9  C   UNK N   1      31.923  16.214   7.882  0.00  0.00     0.049 A 
HETATM   10  C   UNK N   1      32.346  15.535   9.027  0.00  0.00     0.080 A 
HETATM   11  C   UNK N   1      33.563  14.885   9.044  0.00  0.00     0.127 A 
ENDROOT
BRANCH  11  12
HETATM   12  N   UNK N   1      33.956  14.247  10.230  0.00  0.00    -0.370 N 
HETATM   13  H   UNK N   1      33.863  13.269  10.283  0.00  0.00     0.161 HD
BRANCH  12  14
HETATM   14  C   UNK N   1      34.485  14.937  11.370  0.00  0.00     0.160 C 
BRANCH  14  15
HETATM   15  C   UNK N   1      35.599  14.105  11.894  0.00  0.00    -0.038 A 
HETATM   16  C   UNK N   1      35.627  13.726  13.244  0.00  0.00     0.025 A 
HETATM   17  C   UNK N   1      36.627  12.863  13.691  0.00  0.00     0.088 A 
HETATM   18  N   UNK N   1      37.567  12.404  12.821  0.00  0.00    -0.375 N 
HETATM   19  C   UNK N   1      37.562  12.772  11.510  0.00  0.00     0.088 A 
ATOM     20  HN  UNK N   1      38.290  11.769  13.159  1.00  0.00     0.164 HD
HETATM   21  C   UNK N   1      36.570  13.624  11.022  0.00  0.00     0.025 A 
ENDBRANCH  14  15
ENDBRANCH  12  14
ENDBRANCH  11  12
BRANCH   9  22
HETATM   22  C   UNK N   1      30.658  17.008   7.912  0.00  0.00     0.014 A 
HETATM   23  C   UNK N   1      30.496  17.930   8.956  0.00  0.00     0.015 A 
HETATM   24  C   UNK N   1      29.328  18.680   9.081  0.00  0.00     0.003 A 
HETATM   25  C   UNK N   1      28.291  18.518   8.168  0.00  0.00     0.026 A 
HETATM   26  C   UNK N   1      28.414  17.613   7.116  0.00  0.00     0.056 A 
HETATM   27  C   UNK N   1      29.587  16.851   6.966  0.00  0.00     0.068 A 
HETATM   28 Cl   UNK N   1      27.064  17.441   5.998  0.00  0.00    -0.083 Cl
HETATM   29 Cl   UNK N   1      29.641  15.723   5.596  0.00  0.00    -0.082 Cl
ENDBRANCH   9  22
TORSDOF 4
ENDMDL
MODEL 8
REMARK VINA RESULT:      -6.6     18.510     22.592
REMARK  4 active torsions:
REMARK  status: ('A' for Active; 'I' for Inactive)
REMARK    1  A    between atoms: C_9  and  C_13 
REMARK    2  A    between atoms: N_12  and  C_11 
REMARK    3  A    between atoms: N_12  and  C_14 
REMARK    4  A    between atoms: C_15  and  C_14 
ROOT
HETATM    1  C   UNK N   1      24.735  21.536  -7.599  0.00  0.00     0.069 A 
HETATM    2  C   UNK N   1      25.643  22.465  -7.143  0.00  0.00     0.131 A 
HETATM    3  N   UNK N   1      26.879  22.084  -7.473  0.00  0.00    -0.224 N 
HETATM    4  N   UNK N   1      26.839  20.942  -8.126  0.00  0.00    -0.302 N 
ATOM      5  HN  UNK N   1      27.640  20.428  -8.493  1.00  0.00     0.186 HD
HETATM    6  C   UNK N   1      25.537  20.572  -8.225  0.00  0.00     0.111 A 
HETATM    7  N   UNK N   1      25.407  23.623  -6.465  0.00  0.00    -0.340 N 
ATOM      8  HN  UNK N   1      24.453  23.902  -6.233  1.00  0.00     0.167 HD
HETATM    9  C   UNK N   1      26.474  24.409  -6.098  0.00  0.00     0.049 A 
HETATM   10  C   UNK N   1      27.766  23.986  -6.418  0.00  0.00     0.080 A 
HETATM   11  C   UNK N   1      27.964  22.817  -7.123  0.00  0.00     0.127 A 
ENDROOT
BRANCH  11  12
HETATM   12  N   UNK N   1      29.280  22.455  -7.448  0.00  0.00    -0.370 N 
HETATM   13  H   UNK N   1      29.415  21.786  -8.158  0.00  0.00     0.161 HD
BRANCH  12  14
HETATM   14  C   UNK N   1      30.440  23.003  -6.808  0.00  0.00     0.160 C 
BRANCH  14  15
HETATM   15  C   UNK N   1      30.869  22.016  -5.783  0.00  0.00    -0.038 A 
HETATM   16  C   UNK N   1      30.416  22.124  -4.461  0.00  0.00     0.025 A 
HETATM   17  C   UNK N   1      30.751  21.131  -3.541  0.00  0.00     0.088 A 
HETATM   18  N   UNK N   1      31.516  20.075  -3.929  0.00  0.00    -0.375 N 
HETATM   19  C   UNK N   1      31.974  19.961  -5.206  0.00  0.00     0.088 A 
ATOM     20  HN  UNK N   1      31.749  19.352  -3.249  1.00  0.00     0.164 HD
HETATM   21  C   UNK N   1      31.650  20.927  -6.159  0.00  0.00     0.025 A 
ENDBRANCH  14  15
ENDBRANCH  12  14
ENDBRANCH  11  12
BRANCH   9  22
HETATM   22  C   UNK N   1      26.267  25.733  -5.436  0.00  0.00     0.014 A 
HETATM   23  C   UNK N   1      25.069  26.412  -5.704  0.00  0.00     0.015 A 
HETATM   24  C   UNK N   1      24.816  27.669  -5.160  0.00  0.00     0.003 A 
HETATM   25  C   UNK N   1      25.760  28.281  -4.341  0.00  0.00     0.026 A 
HETATM   26  C   UNK N   1      26.961  27.638  -4.050  0.00  0.00     0.056 A 
HETATM   27  C   UNK N   1      27.235  26.365  -4.582  0.00  0.00     0.068 A 
HETATM   28 Cl   UNK N   1      28.124  28.466  -3.018  0.00  0.00    -0.083 Cl
HETATM   29 Cl   UNK N   1      28.796  25.635  -4.154  0.00  0.00    -0.082 Cl
ENDBRANCH   9  22
TORSDOF 4
ENDMDL
MODEL 9
REMARK VINA RESULT:      -6.6      2.701      4.024
REMARK  4 active torsions:
REMARK  status: ('A' for Active; 'I' for Inactive)
REMARK    1  A    between atoms: C_9  and  C_13 
REMARK    2  A    between atoms: N_12  and  C_11 
REMARK    3  A    between atoms: N_12  and  C_14 
REMARK    4  A    between atoms: C_15  and  C_14 
ROOT
HETATM    1  C   UNK N   1      33.844  10.156  12.381  0.00  0.00     0.069 A 
HETATM    2  C   UNK N   1      34.562  10.989  13.209  0.00  0.00     0.131 A 
HETATM    3  N   UNK N   1      35.339  11.788  12.475  0.00  0.00    -0.224 N 
HETATM    4  N   UNK N   1      35.176  11.527  11.196  0.00  0.00    -0.302 N 
ATOM      5  HN  UNK N   1      35.648  11.990  10.420  1.00  0.00     0.186 HD
HETATM    6  C   UNK N   1      34.262  10.528  11.096  0.00  0.00     0.111 A 
HETATM    7  N   UNK N   1      34.538  11.062  14.569  0.00  0.00    -0.340 N 
ATOM      8  HN  UNK N   1      33.927  10.449  15.110  1.00  0.00     0.167 HD
HETATM    9  C   UNK N   1      35.350  11.975  15.201  0.00  0.00     0.049 A 
HETATM   10  C   UNK N   1      36.185  12.785  14.427  0.00  0.00     0.080 A 
HETATM   11  C   UNK N   1      36.167  12.695  13.051  0.00  0.00     0.127 A 
ENDROOT
BRANCH  11  12
HETATM   12  N   UNK N   1      37.001  13.555  12.320  0.00  0.00    -0.370 N 
HETATM   13  H   UNK N   1      37.969  13.380  12.329  0.00  0.00     0.161 HD
BRANCH  12  14
HETATM   14  C   UNK N   1      36.524  14.673  11.560  0.00  0.00     0.160 C 
BRANCH  14  15
HETATM   15  C   UNK N   1      36.886  14.411  10.142  0.00  0.00    -0.038 A 
HETATM   16  C   UNK N   1      38.197  14.050   9.801  0.00  0.00     0.025 A 
HETATM   17  C   UNK N   1      38.490  13.712   8.480  0.00  0.00     0.088 A 
HETATM   18  N   UNK N   1      37.510  13.744   7.537  0.00  0.00    -0.375 N 
HETATM   19  C   UNK N   1      36.235  14.104   7.849  0.00  0.00     0.088 A 
ATOM     20  HN  UNK N   1      37.736  13.489   6.575  1.00  0.00     0.164 HD
HETATM   21  C   UNK N   1      35.899  14.437   9.162  0.00  0.00     0.025 A 
ENDBRANCH  14  15
ENDBRANCH  12  14
ENDBRANCH  11  12
BRANCH   9  22
HETATM   22  C   UNK N   1      35.296  12.162  16.682  0.00  0.00     0.014 A 
HETATM   23  C   UNK N   1      35.143  13.470  17.166  0.00  0.00     0.015 A 
HETATM   24  C   UNK N   1      35.125  13.734  18.534  0.00  0.00     0.003 A 
HETATM   25  C   UNK N   1      35.269  12.697  19.450  0.00  0.00     0.026 A 
HETATM   26  C   UNK N   1      35.422  11.384  19.009  0.00  0.00     0.056 A 
HETATM   27  C   UNK N   1      35.435  11.093  17.633  0.00  0.00     0.068 A 
HETATM   28 Cl   UNK N   1      35.612  10.114  20.213  0.00  0.00    -0.083 Cl
HETATM   29 Cl   UNK N   1      35.641   9.390  17.176  0.00  0.00    -0.082 Cl
ENDBRANCH   9  22
TORSDOF 4
ENDMDL
