MODEL 1
REMARK VINA RESULT:      -7.4      0.000      0.000
REMARK  4 active torsions:
REMARK  status: ('A' for Active; 'I' for Inactive)
REMARK    1  A    between atoms: C_8  and  C_21 
REMARK    2  A    between atoms: C_11  and  N_12 
REMARK    3  A    between atoms: N_12  and  C_13 
REMARK    4  A    between atoms: C_14  and  C_13 
ROOT
HETATM    1  C   UNK N   1      37.373  10.922  11.812  0.00  0.00     0.115 A 
HETATM    2  N   UNK N   1      37.082  12.058  12.462  0.00  0.00    -0.312 N 
HETATM    3  C   UNK N   1      37.022  13.029  11.544  0.00  0.00     0.156 A 
HETATM    4  N   UNK N   1      37.262  12.570  10.306  0.00  0.00    -0.347 N 
ATOM      5  HN  UNK N   1      37.273  13.104   9.436  1.00  0.00     0.167 HD
HETATM    6  C   UNK N   1      37.486  11.241  10.462  0.00  0.00     0.107 A 
HETATM    7  C   UNK N   1      36.861  12.269  13.782  0.00  0.00     0.128 A 
HETATM    8  C   UNK N   1      36.570  13.585  14.197  0.00  0.00     0.063 A 
HETATM    9  N   UNK N   1      36.514  14.578  13.256  0.00  0.00    -0.338 N 
ATOM     10  HN  UNK N   1      36.308  15.530  13.558  1.00  0.00     0.167 HD
HETATM   11  C   UNK N   1      36.722  14.343  11.933  0.00  0.00     0.147 A 
ENDROOT
BRANCH  11  12
HETATM   12  N   UNK N   1      36.590  15.417  11.015  0.00  0.00    -0.369 N 
HETATM   13  H   UNK N   1      37.373  15.667  10.474  0.00  0.00     0.161 HD
BRANCH  12  14
HETATM   14  C   UNK N   1      35.370  16.160  10.836  0.00  0.00     0.161 C 
BRANCH  14  15
HETATM   15  C   UNK N   1      34.997  16.277   9.394  0.00  0.00    -0.025 A 
HETATM   16  C   UNK N   1      34.547  17.505   8.911  0.00  0.00     0.011 A 
HETATM   17  C   UNK N   1      34.181  17.635   7.573  0.00  0.00     0.018 A 
HETATM   18  C   UNK N   1      34.280  16.529   6.726  0.00  0.00     0.087 A 
HETATM   19  N   UNK N   1      34.729  15.338   7.206  0.00  0.00    -0.375 N 
HETATM   20  C   UNK N   1      35.084  15.190   8.512  0.00  0.00     0.096 A 
ATOM     21  HN  UNK N   1      34.802  14.540   6.575  1.00  0.00     0.164 HD
ENDBRANCH  14  15
ENDBRANCH  12  14
ENDBRANCH  11  12
BRANCH   8  22
HETATM   22  C   UNK N   1      36.264  13.898  15.616  0.00  0.00     0.031 A 
HETATM   23  C   UNK N   1      35.352  13.102  16.329  0.00  0.00     0.017 A 
HETATM   24  C   UNK N   1      35.024  13.409  17.652  0.00  0.00     0.001 A 
HETATM   25  C   UNK N   1      35.606  14.510  18.281  0.00  0.00     0.003 A 
HETATM   26  C   UNK N   1      36.522  15.304  17.590  0.00  0.00     0.043 A 
HETATM   27  C   UNK N   1      36.854  15.009  16.266  0.00  0.00     0.129 A 
HETATM   28  F   UNK N   1      37.750  15.804  15.630  0.00  0.00    -0.205 F 
ENDBRANCH   8  22
TORSDOF 4
ENDMDL
MODEL 2
REMARK VINA RESULT:      -7.1      2.487      7.285
REMARK  4 active torsions:
REMARK  status: ('A' for Active; 'I' for Inactive)
REMARK    1  A    between atoms: C_8  and  C_21 
REMARK    2  A    between atoms: C_11  and  N_12 
REMARK    3  A    between atoms: N_12  and  C_13 
REMARK    4  A    between atoms: C_14  and  C_13 
ROOT
HETATM    1  C   UNK N   1      38.096  13.725   9.492  0.00  0.00     0.115 A 
HETATM    2  N   UNK N   1      36.895  14.151   9.909  0.00  0.00    -0.312 N 
HETATM    3  C   UNK N   1      36.763  13.761  11.181  0.00  0.00     0.156 A 
HETATM    4  N   UNK N   1      37.840  13.091  11.620  0.00  0.00    -0.347 N 
ATOM      5  HN  UNK N   1      37.988  12.692  12.547  1.00  0.00     0.167 HD
HETATM    6  C   UNK N   1      38.688  13.060  10.562  0.00  0.00     0.107 A 
HETATM    7  C   UNK N   1      35.948  14.857   9.246  0.00  0.00     0.128 A 
HETATM    8  C   UNK N   1      34.761  15.175   9.939  0.00  0.00     0.063 A 
HETATM    9  N   UNK N   1      34.626  14.770  11.239  0.00  0.00    -0.338 N 
ATOM     10  HN  UNK N   1      33.765  14.998  11.737  1.00  0.00     0.167 HD
HETATM   11  C   UNK N   1      35.595  14.078  11.893  0.00  0.00     0.147 A 
ENDROOT
BRANCH  11  12
HETATM   12  N   UNK N   1      35.401  13.744  13.259  0.00  0.00    -0.369 N 
HETATM   13  H   UNK N   1      35.595  14.429  13.939  0.00  0.00     0.161 HD
BRANCH  12  14
HETATM   14  C   UNK N   1      34.937  12.455  13.700  0.00  0.00     0.161 C 
BRANCH  14  15
HETATM   15  C   UNK N   1      35.063  12.296  15.180  0.00  0.00    -0.025 A 
HETATM   16  C   UNK N   1      35.103  13.437  15.980  0.00  0.00     0.011 A 
HETATM   17  C   UNK N   1      35.233  13.314  17.362  0.00  0.00     0.018 A 
HETATM   18  C   UNK N   1      35.312  12.041  17.932  0.00  0.00     0.087 A 
HETATM   19  N   UNK N   1      35.262  10.935  17.141  0.00  0.00    -0.375 N 
HETATM   20  C   UNK N   1      35.143  11.035  15.789  0.00  0.00     0.096 A 
ATOM     21  HN  UNK N   1      35.315  10.011  17.571  1.00  0.00     0.164 HD
ENDBRANCH  14  15
ENDBRANCH  12  14
ENDBRANCH  11  12
BRANCH   8  22
HETATM   22  C   UNK N   1      33.692  15.989   9.306  0.00  0.00     0.031 A 
HETATM   23  C   UNK N   1      32.422  15.429   9.086  0.00  0.00     0.017 A 
HETATM   24  C   UNK N   1      31.419  16.169   8.454  0.00  0.00     0.001 A 
HETATM   25  C   UNK N   1      31.669  17.478   8.041  0.00  0.00     0.003 A 
HETATM   26  C   UNK N   1      32.921  18.053   8.263  0.00  0.00     0.043 A 
HETATM   27  C   UNK N   1      33.932  17.320   8.889  0.00  0.00     0.129 A 
HETATM   28  F   UNK N   1      35.135  17.915   9.088  0.00  0.00    -0.205 F 
ENDBRANCH   8  22
TORSDOF 4
ENDMDL
MODEL 3
REMARK VINA RESULT:      -7.0      2.303      7.255
REMARK  4 active torsions:
REMARK  status: ('A' for Active; 'I' for Inactive)
REMARK    1  A    between atoms: C_8  and  C_21 
REMARK    2  A    between atoms: C_11  and  N_12 
REMARK    3  A    between atoms: N_12  and  C_13 
REMARK    4  A    between atoms: C_14  and  C_13 
ROOT
HETATM    1  C   UNK N   1      38.072  13.123   9.018  0.00  0.00     0.115 A 
HETATM    2  N   UNK N   1      37.077  13.852   9.545  0.00  0.00    -0.312 N 
HETATM    3  C   UNK N   1      37.218  13.803  10.873  0.00  0.00     0.156 A 
HETATM    4  N   UNK N   1      38.277  13.065  11.243  0.00  0.00    -0.347 N 
ATOM      5  HN  UNK N   1      38.600  12.873  12.191  1.00  0.00     0.167 HD
HETATM    6  C   UNK N   1      38.823  12.629  10.080  0.00  0.00     0.107 A 
HETATM    7  C   UNK N   1      36.093  14.548   8.927  0.00  0.00     0.128 A 
HETATM    8  C   UNK N   1      35.167  15.236   9.739  0.00  0.00     0.063 A 
HETATM    9  N   UNK N   1      35.310  15.179  11.099  0.00  0.00    -0.338 N 
ATOM     10  HN  UNK N   1      34.637  15.675  11.684  1.00  0.00     0.167 HD
HETATM   11  C   UNK N   1      36.316  14.490  11.700  0.00  0.00     0.147 A 
ENDROOT
BRANCH  11  12
HETATM   12  N   UNK N   1      36.428  14.528  13.114  0.00  0.00    -0.369 N 
HETATM   13  H   UNK N   1      36.635  15.390  13.543  0.00  0.00     0.161 HD
BRANCH  12  14
HETATM   14  C   UNK N   1      36.257  13.371  13.953  0.00  0.00     0.161 C 
BRANCH  14  15
HETATM   15  C   UNK N   1      36.074  13.746  15.387  0.00  0.00    -0.025 A 
HETATM   16  C   UNK N   1      35.156  13.035  16.158  0.00  0.00     0.011 A 
HETATM   17  C   UNK N   1      34.959  13.375  17.495  0.00  0.00     0.018 A 
HETATM   18  C   UNK N   1      35.696  14.423  18.051  0.00  0.00     0.087 A 
HETATM   19  N   UNK N   1      36.596  15.103  17.290  0.00  0.00    -0.375 N 
HETATM   20  C   UNK N   1      36.798  14.791  15.981  0.00  0.00     0.096 A 
ATOM     21  HN  UNK N   1      37.133  15.862  17.711  1.00  0.00     0.164 HD
ENDBRANCH  14  15
ENDBRANCH  12  14
ENDBRANCH  11  12
BRANCH   8  22
HETATM   22  C   UNK N   1      34.086  16.065   9.147  0.00  0.00     0.031 A 
HETATM   23  C   UNK N   1      34.364  17.371   8.709  0.00  0.00     0.017 A 
HETATM   24  C   UNK N   1      33.348  18.177   8.187  0.00  0.00     0.001 A 
HETATM   25  C   UNK N   1      32.045  17.686   8.091  0.00  0.00     0.003 A 
HETATM   26  C   UNK N   1      31.755  16.388   8.511  0.00  0.00     0.043 A 
HETATM   27  C   UNK N   1      32.762  15.576   9.038  0.00  0.00     0.129 A 
HETATM   28  F   UNK N   1      32.441  14.318   9.432  0.00  0.00    -0.205 F 
ENDBRANCH   8  22
TORSDOF 4
ENDMDL
MODEL 4
REMARK VINA RESULT:      -7.0      1.643      2.267
REMARK  4 active torsions:
REMARK  status: ('A' for Active; 'I' for Inactive)
REMARK    1  A    between atoms: C_8  and  C_21 
REMARK    2  A    between atoms: C_11  and  N_12 
REMARK    3  A    between atoms: N_12  and  C_13 
REMARK    4  A    between atoms: C_14  and  C_13 
ROOT
HETATM    1  C   UNK N   1      37.984   9.632  13.387  0.00  0.00     0.115 A 
HETATM    2  N   UNK N   1      37.584  10.905  13.522  0.00  0.00    -0.312 N 
HETATM    3  C   UNK N   1      37.400  11.389  12.289  0.00  0.00     0.156 A 
HETATM    4  N   UNK N   1      37.665  10.476  11.341  0.00  0.00    -0.347 N 
ATOM      5  HN  UNK N   1      37.601  10.593  10.330  1.00  0.00     0.167 HD
HETATM    6  C   UNK N   1      38.036   9.362  12.022  0.00  0.00     0.107 A 
HETATM    7  C   UNK N   1      37.366  11.630  14.645  0.00  0.00     0.128 A 
HETATM    8  C   UNK N   1      36.941  12.966  14.492  0.00  0.00     0.063 A 
HETATM    9  N   UNK N   1      36.759  13.461  13.229  0.00  0.00    -0.338 N 
ATOM     10  HN  UNK N   1      36.456  14.429  13.120  1.00  0.00     0.167 HD
HETATM   11  C   UNK N   1      36.966  12.712  12.114  0.00  0.00     0.147 A 
ENDROOT
BRANCH  11  12
HETATM   12  N   UNK N   1      36.700  13.283  10.842  0.00  0.00    -0.369 N 
HETATM   13  H   UNK N   1      36.352  12.697  10.131  0.00  0.00     0.161 HD
BRANCH  12  14
HETATM   14  C   UNK N   1      36.914  14.674  10.538  0.00  0.00     0.161 C 
BRANCH  14  15
HETATM   15  C   UNK N   1      35.689  15.315   9.973  0.00  0.00    -0.025 A 
HETATM   16  C   UNK N   1      34.902  14.592   9.077  0.00  0.00     0.011 A 
HETATM   17  C   UNK N   1      33.762  15.173   8.527  0.00  0.00     0.018 A 
HETATM   18  C   UNK N   1      33.414  16.476   8.889  0.00  0.00     0.087 A 
HETATM   19  N   UNK N   1      34.185  17.168   9.772  0.00  0.00    -0.375 N 
HETATM   20  C   UNK N   1      35.306  16.620  10.315  0.00  0.00     0.096 A 
ATOM     21  HN  UNK N   1      33.916  18.117  10.033  1.00  0.00     0.164 HD
ENDBRANCH  14  15
ENDBRANCH  12  14
ENDBRANCH  11  12
BRANCH   8  22
HETATM   22  C   UNK N   1      36.630  13.817  15.668  0.00  0.00     0.031 A 
HETATM   23  C   UNK N   1      37.332  15.018  15.869  0.00  0.00     0.017 A 
HETATM   24  C   UNK N   1      37.080  15.809  16.993  0.00  0.00     0.001 A 
HETATM   25  C   UNK N   1      36.120  15.414  17.926  0.00  0.00     0.003 A 
HETATM   26  C   UNK N   1      35.406  14.231  17.735  0.00  0.00     0.043 A 
HETATM   27  C   UNK N   1      35.654  13.430  16.617  0.00  0.00     0.129 A 
HETATM   28  F   UNK N   1      34.939  12.288  16.466  0.00  0.00    -0.205 F 
ENDBRANCH   8  22
TORSDOF 4
ENDMDL
MODEL 5
REMARK VINA RESULT:      -7.0      1.884      2.444
REMARK  4 active torsions:
REMARK  status: ('A' for Active; 'I' for Inactive)
REMARK    1  A    between atoms: C_8  and  C_21 
REMARK    2  A    between atoms: C_11  and  N_12 
REMARK    3  A    between atoms: N_12  and  C_13 
REMARK    4  A    between atoms: C_14  and  C_13 
ROOT
HETATM    1  C   UNK N   1      38.436  12.999  10.615  0.00  0.00     0.115 A 
HETATM    2  N   UNK N   1      37.418  13.083  11.483  0.00  0.00    -0.312 N 
HETATM    3  C   UNK N   1      36.579  14.012  11.013  0.00  0.00     0.156 A 
HETATM    4  N   UNK N   1      37.010  14.545   9.858  0.00  0.00    -0.347 N 
ATOM      5  HN  UNK N   1      36.555  15.267   9.299  1.00  0.00     0.167 HD
HETATM    6  C   UNK N   1      38.182  13.915   9.597  0.00  0.00     0.107 A 
HETATM    7  C   UNK N   1      37.194  12.391  12.626  0.00  0.00     0.128 A 
HETATM    8  C   UNK N   1      36.023  12.686  13.354  0.00  0.00     0.063 A 
HETATM    9  N   UNK N   1      35.169  13.641  12.873  0.00  0.00    -0.338 N 
ATOM     10  HN  UNK N   1      34.324  13.857  13.404  1.00  0.00     0.167 HD
HETATM   11  C   UNK N   1      35.402  14.313  11.715  0.00  0.00     0.147 A 
ENDROOT
BRANCH  11  12
HETATM   12  N   UNK N   1      34.438  15.248  11.256  0.00  0.00    -0.369 N 
HETATM   13  H   UNK N   1      34.404  16.133  11.686  0.00  0.00     0.161 HD
BRANCH  12  14
HETATM   14  C   UNK N   1      33.506  14.968  10.194  0.00  0.00     0.161 C 
BRANCH  14  15
HETATM   15  C   UNK N   1      33.526  16.029   9.142  0.00  0.00    -0.025 A 
HETATM   16  C   UNK N   1      32.502  16.060   8.198  0.00  0.00     0.011 A 
HETATM   17  C   UNK N   1      32.506  17.032   7.199  0.00  0.00     0.018 A 
HETATM   18  C   UNK N   1      33.537  17.973   7.164  0.00  0.00     0.087 A 
HETATM   19  N   UNK N   1      34.526  17.937   8.097  0.00  0.00    -0.375 N 
HETATM   20  C   UNK N   1      34.544  16.992   9.076  0.00  0.00     0.096 A 
ATOM     21  HN  UNK N   1      35.271  18.635   8.064  1.00  0.00     0.164 HD
ENDBRANCH  14  15
ENDBRANCH  12  14
ENDBRANCH  11  12
BRANCH   8  22
HETATM   22  C   UNK N   1      35.673  11.941  14.590  0.00  0.00     0.031 A 
HETATM   23  C   UNK N   1      35.088  10.667  14.499  0.00  0.00     0.017 A 
HETATM   24  C   UNK N   1      34.716   9.971  15.653  0.00  0.00     0.001 A 
HETATM   25  C   UNK N   1      34.929  10.537  16.910  0.00  0.00     0.003 A 
HETATM   26  C   UNK N   1      35.518  11.797  17.019  0.00  0.00     0.043 A 
HETATM   27  C   UNK N   1      35.890  12.502  15.872  0.00  0.00     0.129 A 
HETATM   28  F   UNK N   1      36.462  13.723  16.019  0.00  0.00    -0.205 F 
ENDBRANCH   8  22
TORSDOF 4
ENDMDL
MODEL 6
REMARK VINA RESULT:      -6.9     19.397     22.624
REMARK  4 active torsions:
REMARK  status: ('A' for Active; 'I' for Inactive)
REMARK    1  A    between atoms: C_8  and  C_21 
REMARK    2  A    between atoms: C_11  and  N_12 
REMARK    3  A    between atoms: N_12  and  C_13 
REMARK    4  A    between atoms: C_14  and  C_13 
ROOT
HETATM    1  C   UNK N   1      26.434  21.695  -8.398  0.00  0.00     0.115 A 
HETATM    2  N   UNK N   1      26.891  22.421  -7.368  0.00  0.00    -0.312 N 
HETATM    3  C   UNK N   1      25.996  23.389  -7.144  0.00  0.00     0.156 A 
HETATM    4  N   UNK N   1      24.958  23.325  -7.994  0.00  0.00    -0.347 N 
ATOM      5  HN  UNK N   1      24.147  23.943  -8.032  1.00  0.00     0.167 HD
HETATM    6  C   UNK N   1      25.224  22.260  -8.791  0.00  0.00     0.107 A 
HETATM    7  C   UNK N   1      28.017  22.266  -6.631  0.00  0.00     0.128 A 
HETATM    8  C   UNK N   1      28.253  23.188  -5.590  0.00  0.00     0.063 A 
HETATM    9  N   UNK N   1      27.338  24.181  -5.367  0.00  0.00    -0.338 N 
ATOM     10  HN  UNK N   1      27.513  24.850  -4.617  1.00  0.00     0.167 HD
HETATM   11  C   UNK N   1      26.205  24.310  -6.106  0.00  0.00     0.147 A 
ENDROOT
BRANCH  11  12
HETATM   12  N   UNK N   1      25.279  25.333  -5.774  0.00  0.00    -0.369 N 
HETATM   13  H   UNK N   1      24.561  25.123  -5.134  0.00  0.00     0.161 HD
BRANCH  12  14
HETATM   14  C   UNK N   1      25.334  26.661  -6.328  0.00  0.00     0.161 C 
BRANCH  14  15
HETATM   15  C   UNK N   1      25.933  27.638  -5.370  0.00  0.00    -0.025 A 
HETATM   16  C   UNK N   1      26.934  28.497  -5.821  0.00  0.00     0.011 A 
HETATM   17  C   UNK N   1      27.516  29.409  -4.943  0.00  0.00     0.018 A 
HETATM   18  C   UNK N   1      27.080  29.456  -3.617  0.00  0.00     0.087 A 
HETATM   19  N   UNK N   1      26.096  28.619  -3.191  0.00  0.00    -0.375 N 
HETATM   20  C   UNK N   1      25.519  27.717  -4.032  0.00  0.00     0.096 A 
ATOM     21  HN  UNK N   1      25.782  28.669  -2.222  1.00  0.00     0.164 HD
ENDBRANCH  14  15
ENDBRANCH  12  14
ENDBRANCH  11  12
BRANCH   8  22
HETATM   22  C   UNK N   1      29.436  23.063  -4.701  0.00  0.00     0.031 A 
HETATM   23  C   UNK N   1      30.708  22.838  -5.254  0.00  0.00     0.017 A 
HETATM   24  C   UNK N   1      31.824  22.678  -4.427  0.00  0.00     0.001 A 
HETATM   25  C   UNK N   1      31.683  22.746  -3.040  0.00  0.00     0.003 A 
HETATM   26  C   UNK N   1      30.429  22.980  -2.476  0.00  0.00     0.043 A 
HETATM   27  C   UNK N   1      29.306  23.137  -3.293  0.00  0.00     0.129 A 
HETATM   28  F   UNK N   1      28.105  23.365  -2.707  0.00  0.00    -0.205 F 
ENDBRANCH   8  22
TORSDOF 4
ENDMDL
MODEL 7
REMARK VINA RESULT:      -6.9     18.470     23.021
REMARK  4 active torsions:
REMARK  status: ('A' for Active; 'I' for Inactive)
REMARK    1  A    between atoms: C_8  and  C_21 
REMARK    2  A    between atoms: C_11  and  N_12 
REMARK    3  A    between atoms: N_12  and  C_13 
REMARK    4  A    between atoms: C_14  and  C_13 
ROOT
HETATM    1  C   UNK N   1      25.781  24.527  -8.065  0.00  0.00     0.115 A 
HETATM    2  N   UNK N   1      26.257  25.176  -6.993  0.00  0.00    -0.312 N 
HETATM    3  C   UNK N   1      26.741  24.249  -6.159  0.00  0.00     0.156 A 
HETATM    4  N   UNK N   1      26.601  23.006  -6.646  0.00  0.00    -0.347 N 
ATOM      5  HN  UNK N   1      26.888  22.131  -6.209  1.00  0.00     0.167 HD
HETATM    6  C   UNK N   1      25.995  23.168  -7.849  0.00  0.00     0.107 A 
HETATM    7  C   UNK N   1      26.297  26.504  -6.731  0.00  0.00     0.128 A 
HETATM    8  C   UNK N   1      26.864  26.916  -5.507  0.00  0.00     0.063 A 
HETATM    9  N   UNK N   1      27.353  25.965  -4.653  0.00  0.00    -0.338 N 
ATOM     10  HN  UNK N   1      27.760  26.264  -3.767  1.00  0.00     0.167 HD
HETATM   11  C   UNK N   1      27.321  24.637  -4.941  0.00  0.00     0.147 A 
ENDROOT
BRANCH  11  12
HETATM   12  N   UNK N   1      27.901  23.720  -4.027  0.00  0.00    -0.369 N 
HETATM   13  H   UNK N   1      27.368  22.941  -3.745  0.00  0.00     0.161 HD
BRANCH  12  14
HETATM   14  C   UNK N   1      29.228  23.870  -3.490  0.00  0.00     0.161 C 
BRANCH  14  15
HETATM   15  C   UNK N   1      30.074  22.667  -3.754  0.00  0.00    -0.025 A 
HETATM   16  C   UNK N   1      29.887  21.959  -4.940  0.00  0.00     0.011 A 
HETATM   17  C   UNK N   1      30.656  20.827  -5.203  0.00  0.00     0.018 A 
HETATM   18  C   UNK N   1      31.616  20.420  -4.274  0.00  0.00     0.087 A 
HETATM   19  N   UNK N   1      31.796  21.126  -3.125  0.00  0.00    -0.375 N 
HETATM   20  C   UNK N   1      31.050  22.230  -2.847  0.00  0.00     0.096 A 
ATOM     21  HN  UNK N   1      32.505  20.821  -2.457  1.00  0.00     0.164 HD
ENDBRANCH  14  15
ENDBRANCH  12  14
ENDBRANCH  11  12
BRANCH   8  22
HETATM   22  C   UNK N   1      26.995  28.354  -5.161  0.00  0.00     0.031 A 
HETATM   23  C   UNK N   1      27.907  29.163  -5.860  0.00  0.00     0.017 A 
HETATM   24  C   UNK N   1      28.070  30.509  -5.518  0.00  0.00     0.001 A 
HETATM   25  C   UNK N   1      27.321  31.062  -4.479  0.00  0.00     0.003 A 
HETATM   26  C   UNK N   1      26.403  30.275  -3.782  0.00  0.00     0.043 A 
HETATM   27  C   UNK N   1      26.236  28.928  -4.113  0.00  0.00     0.129 A 
HETATM   28  F   UNK N   1      25.333  28.197  -3.414  0.00  0.00    -0.205 F 
ENDBRANCH   8  22
TORSDOF 4
ENDMDL
MODEL 8
REMARK VINA RESULT:      -6.8      2.374      3.579
REMARK  4 active torsions:
REMARK  status: ('A' for Active; 'I' for Inactive)
REMARK    1  A    between atoms: C_8  and  C_21 
REMARK    2  A    between atoms: C_11  and  N_12 
REMARK    3  A    between atoms: N_12  and  C_13 
REMARK    4  A    between atoms: C_14  and  C_13 
ROOT
HETATM    1  C   UNK N   1      35.530  12.243   8.389  0.00  0.00     0.115 A 
HETATM    2  N   UNK N   1      35.260  12.990   9.469  0.00  0.00    -0.312 N 
HETATM    3  C   UNK N   1      34.489  14.003   9.059  0.00  0.00     0.156 A 
HETATM    4  N   UNK N   1      34.240  13.950   7.741  0.00  0.00    -0.347 N 
ATOM      5  HN  UNK N   1      33.681  14.599   7.187  1.00  0.00     0.167 HD
HETATM    6  C   UNK N   1      34.893  12.843   7.306  0.00  0.00     0.107 A 
HETATM    7  C   UNK N   1      35.636  12.817  10.758  0.00  0.00     0.128 A 
HETATM    8  C   UNK N   1      35.200  13.770  11.703  0.00  0.00     0.063 A 
HETATM    9  N   UNK N   1      34.417  14.809  11.280  0.00  0.00    -0.338 N 
ATOM     10  HN  UNK N   1      34.106  15.499  11.964  1.00  0.00     0.167 HD
HETATM   11  C   UNK N   1      34.034  14.956   9.984  0.00  0.00     0.147 A 
ENDROOT
BRANCH  11  12
HETATM   12  N   UNK N   1      33.174  16.030   9.637  0.00  0.00    -0.369 N 
HETATM   13  H   UNK N   1      32.233  15.985   9.925  0.00  0.00     0.161 HD
BRANCH  12  14
HETATM   14  C   UNK N   1      33.606  17.179   8.885  0.00  0.00     0.161 C 
BRANCH  14  15
HETATM   15  C   UNK N   1      32.974  17.227   7.532  0.00  0.00    -0.025 A 
HETATM   16  C   UNK N   1      33.783  17.440   6.418  0.00  0.00     0.011 A 
HETATM   17  C   UNK N   1      33.215  17.502   5.147  0.00  0.00     0.018 A 
HETATM   18  C   UNK N   1      31.835  17.339   5.005  0.00  0.00     0.087 A 
HETATM   19  N   UNK N   1      31.057  17.123   6.100  0.00  0.00    -0.375 N 
HETATM   20  C   UNK N   1      31.592  17.067   7.350  0.00  0.00     0.096 A 
ATOM     21  HN  UNK N   1      30.051  17.000   5.981  1.00  0.00     0.164 HD
ENDBRANCH  14  15
ENDBRANCH  12  14
ENDBRANCH  11  12
BRANCH   8  22
HETATM   22  C   UNK N   1      35.523  13.631  13.146  0.00  0.00     0.031 A 
HETATM   23  C   UNK N   1      36.418  14.529  13.753  0.00  0.00     0.017 A 
HETATM   24  C   UNK N   1      36.763  14.386  15.100  0.00  0.00     0.001 A 
HETATM   25  C   UNK N   1      36.215  13.349  15.857  0.00  0.00     0.003 A 
HETATM   26  C   UNK N   1      35.317  12.456  15.271  0.00  0.00     0.043 A 
HETATM   27  C   UNK N   1      34.969  12.587  13.925  0.00  0.00     0.129 A 
HETATM   28  F   UNK N   1      34.092  11.700  13.393  0.00  0.00    -0.205 F 
ENDBRANCH   8  22
TORSDOF 4
ENDMDL
MODEL 9
REMARK VINA RESULT:      -6.7     13.463     16.356
REMARK  4 active torsions:
REMARK  status: ('A' for Active; 'I' for Inactive)
REMARK    1  A    between atoms: C_8  and  C_21 
REMARK    2  A    between atoms: C_11  and  N_12 
REMARK    3  A    between atoms: N_12  and  C_13 
REMARK    4  A    between atoms: C_14  and  C_13 
ROOT
HETATM    1  C   UNK N   1      20.965  19.354   2.625  0.00  0.00     0.115 A 
HETATM    2  N   UNK N   1      21.950  18.976   3.453  0.00  0.00    -0.312 N 
HETATM    3  C   UNK N   1      21.448  18.026   4.249  0.00  0.00     0.156 A 
HETATM    4  N   UNK N   1      20.161  17.762   3.973  0.00  0.00    -0.347 N 
ATOM      5  HN  UNK N   1      19.554  17.083   4.432  1.00  0.00     0.167 HD
HETATM    6  C   UNK N   1      19.844  18.595   2.950  0.00  0.00     0.107 A 
HETATM    7  C   UNK N   1      23.232  19.406   3.526  0.00  0.00     0.128 A 
HETATM    8  C   UNK N   1      24.064  18.827   4.507  0.00  0.00     0.063 A 
HETATM    9  N   UNK N   1      23.546  17.859   5.324  0.00  0.00    -0.338 N 
ATOM     10  HN  UNK N   1      24.148  17.443   6.036  1.00  0.00     0.167 HD
HETATM   11  C   UNK N   1      22.261  17.427   5.223  0.00  0.00     0.147 A 
ENDROOT
BRANCH  11  12
HETATM   12  N   UNK N   1      21.818  16.379   6.071  0.00  0.00    -0.369 N 
HETATM   13  H   UNK N   1      20.853  16.298   6.247  0.00  0.00     0.161 HD
BRANCH  12  14
HETATM   14  C   UNK N   1      22.708  15.430   6.688  0.00  0.00     0.161 C 
BRANCH  14  15
HETATM   15  C   UNK N   1      22.058  14.720   7.830  0.00  0.00    -0.025 A 
HETATM   16  C   UNK N   1      20.890  15.249   8.376  0.00  0.00     0.011 A 
HETATM   17  C   UNK N   1      20.273  14.611   9.451  0.00  0.00     0.018 A 
HETATM   18  C   UNK N   1      20.831  13.438   9.963  0.00  0.00     0.087 A 
HETATM   19  N   UNK N   1      21.966  12.926   9.415  0.00  0.00    -0.375 N 
HETATM   20  C   UNK N   1      22.587  13.538   8.370  0.00  0.00     0.096 A 
ATOM     21  HN  UNK N   1      22.360  12.065   9.794  1.00  0.00     0.164 HD
ENDBRANCH  14  15
ENDBRANCH  12  14
ENDBRANCH  11  12
BRANCH   8  22
HETATM   22  C   UNK N   1      25.496  19.201   4.625  0.00  0.00     0.031 A 
HETATM   23  C   UNK N   1      25.862  20.356   5.338  0.00  0.00     0.017 A 
HETATM   24  C   UNK N   1      27.202  20.744   5.423  0.00  0.00     0.001 A 
HETATM   25  C   UNK N   1      28.192  19.981   4.803  0.00  0.00     0.003 A 
HETATM   26  C   UNK N   1      27.846  18.826   4.101  0.00  0.00     0.043 A 
HETATM   27  C   UNK N   1      26.510  18.432   4.006  0.00  0.00     0.129 A 
HETATM   28  F   UNK N   1      26.214  17.302   3.316  0.00  0.00    -0.205 F 
ENDBRANCH   8  22
TORSDOF 4
ENDMDL
