MODEL 1
REMARK VINA RESULT:      -5.9      0.000      0.000
REMARK  3 active torsions:
REMARK  status: ('A' for Active; 'I' for Inactive)
REMARK    1  A    between atoms: N_12  and  C_11 
REMARK    2  A    between atoms: N_12  and  C_13 
REMARK    3  A    between atoms: C_14  and  C_13 
ROOT
HETATM    1  C   UNK N   1      36.336  15.093  10.139  0.00  0.00     0.029 A 
HETATM    2  N   UNK N   1      35.330  14.968   9.263  0.00  0.00    -0.307 N 
HETATM    3  C   UNK N   1      34.457  15.927   9.567  0.00  0.00     0.156 A 
HETATM    4  N   UNK N   1      34.856  16.678  10.615  0.00  0.00    -0.347 N 
ATOM      5  HN  UNK N   1      34.366  17.467  11.037  1.00  0.00     0.167 HD
HETATM    6  C   UNK N   1      36.050  16.154  10.986  0.00  0.00     0.115 A 
HETATM    7  C   UNK N   1      35.131  14.095   8.242  0.00  0.00     0.116 A 
HETATM    8  C   UNK N   1      33.948  14.230   7.491  0.00  0.00     0.107 A 
HETATM    9  N   UNK N   1      33.048  15.218   7.805  0.00  0.00    -0.348 N 
ATOM     10  HN  UNK N   1      32.192  15.312   7.258  1.00  0.00     0.167 HD
HETATM   11  C   UNK N   1      33.286  16.079   8.842  0.00  0.00     0.146 A 
HETATM   12  C   UNK N   1      37.550  14.234  10.191  0.00  0.00     0.070 C 
ENDROOT
BRANCH  11  13
HETATM   13  N   UNK N   1      32.383  17.103   9.190  0.00  0.00    -0.369 N 
HETATM   14  H   UNK N   1      32.140  17.192  10.139  0.00  0.00     0.161 HD
BRANCH  13  15
HETATM   15  C   UNK N   1      31.788  18.030   8.261  0.00  0.00     0.160 C 
BRANCH  15  16
HETATM   16  C   UNK N   1      30.302  17.802   8.216  0.00  0.00    -0.038 A 
HETATM   17  C   UNK N   1      29.725  17.190   7.102  0.00  0.00     0.025 A 
HETATM   18  C   UNK N   1      28.342  16.983   7.070  0.00  0.00     0.088 A 
HETATM   19  N   UNK N   1      27.565  17.375   8.117  0.00  0.00    -0.375 N 
HETATM   20  C   UNK N   1      28.102  17.973   9.212  0.00  0.00     0.088 A 
ATOM     21  HN  UNK N   1      26.558  17.217   8.078  1.00  0.00     0.164 HD
HETATM   22  C   UNK N   1      29.475  18.197   9.281  0.00  0.00     0.025 A 
ENDBRANCH  15  16
ENDBRANCH  13  15
ENDBRANCH  11  13
TORSDOF 3
ENDMDL
MODEL 2
REMARK VINA RESULT:      -5.8     15.029     16.629
REMARK  3 active torsions:
REMARK  status: ('A' for Active; 'I' for Inactive)
REMARK    1  A    between atoms: N_12  and  C_11 
REMARK    2  A    between atoms: N_12  and  C_13 
REMARK    3  A    between atoms: C_14  and  C_13 
ROOT
HETATM    1  C   UNK N   1      41.404  21.965   2.258  0.00  0.00     0.029 A 
HETATM    2  N   UNK N   1      42.642  21.965   2.771  0.00  0.00    -0.307 N 
HETATM    3  C   UNK N   1      43.153  23.165   2.498  0.00  0.00     0.156 A 
HETATM    4  N   UNK N   1      42.291  23.954   1.822  0.00  0.00    -0.347 N 
ATOM      5  HN  UNK N   1      42.444  24.909   1.499  1.00  0.00     0.167 HD
HETATM    6  C   UNK N   1      41.175  23.198   1.665  0.00  0.00     0.115 A 
HETATM    7  C   UNK N   1      43.336  21.012   3.445  0.00  0.00     0.116 A 
HETATM    8  C   UNK N   1      44.643  21.328   3.859  0.00  0.00     0.107 A 
HETATM    9  N   UNK N   1      45.169  22.565   3.578  0.00  0.00    -0.348 N 
ATOM     10  HN  UNK N   1      46.117  22.789   3.880  1.00  0.00     0.167 HD
HETATM   11  C   UNK N   1      44.437  23.499   2.896  0.00  0.00     0.146 A 
HETATM   12  C   UNK N   1      40.443  20.831   2.317  0.00  0.00     0.070 C 
ENDROOT
BRANCH  11  13
HETATM   13  N   UNK N   1      44.948  24.777   2.592  0.00  0.00    -0.369 N 
HETATM   14  H   UNK N   1      44.328  25.539   2.648  0.00  0.00     0.161 HD
BRANCH  13  15
HETATM   15  C   UNK N   1      46.307  25.052   2.204  0.00  0.00     0.160 C 
BRANCH  15  16
HETATM   16  C   UNK N   1      46.309  25.809   0.904  0.00  0.00    -0.038 A 
HETATM   17  C   UNK N   1      45.200  26.578   0.546  0.00  0.00     0.025 A 
HETATM   18  C   UNK N   1      45.212  27.279  -0.665  0.00  0.00     0.088 A 
HETATM   19  N   UNK N   1      46.295  27.211  -1.487  0.00  0.00    -0.375 N 
HETATM   20  C   UNK N   1      47.386  26.470  -1.160  0.00  0.00     0.088 A 
ATOM     21  HN  UNK N   1      46.288  27.728  -2.366  1.00  0.00     0.164 HD
HETATM   22  C   UNK N   1      47.412  25.759   0.037  0.00  0.00     0.025 A 
ENDBRANCH  15  16
ENDBRANCH  13  15
ENDBRANCH  11  13
TORSDOF 3
ENDMDL
MODEL 3
REMARK VINA RESULT:      -5.7      4.369      9.892
REMARK  3 active torsions:
REMARK  status: ('A' for Active; 'I' for Inactive)
REMARK    1  A    between atoms: N_12  and  C_11 
REMARK    2  A    between atoms: N_12  and  C_13 
REMARK    3  A    between atoms: C_14  and  C_13 
ROOT
HETATM    1  C   UNK N   1      22.834  18.903   4.008  0.00  0.00     0.029 A 
HETATM    2  N   UNK N   1      24.095  19.336   3.884  0.00  0.00    -0.307 N 
HETATM    3  C   UNK N   1      24.796  18.703   4.824  0.00  0.00     0.156 A 
HETATM    4  N   UNK N   1      24.034  17.867   5.562  0.00  0.00    -0.347 N 
ATOM      5  HN  UNK N   1      24.334  17.274   6.337  1.00  0.00     0.167 HD
HETATM    6  C   UNK N   1      22.784  17.989   5.050  0.00  0.00     0.115 A 
HETATM    7  C   UNK N   1      24.660  20.225   3.026  0.00  0.00     0.116 A 
HETATM    8  C   UNK N   1      26.041  20.468   3.157  0.00  0.00     0.107 A 
HETATM    9  N   UNK N   1      26.761  19.815   4.126  0.00  0.00    -0.348 N 
ATOM     10  HN  UNK N   1      27.762  19.995   4.216  1.00  0.00     0.167 HD
HETATM   11  C   UNK N   1      26.155  18.927   4.971  0.00  0.00     0.146 A 
HETATM   12  C   UNK N   1      21.684  19.334   3.168  0.00  0.00     0.070 C 
ENDROOT
BRANCH  11  13
HETATM   13  N   UNK N   1      26.866  18.240   5.976  0.00  0.00    -0.369 N 
HETATM   14  H   UNK N   1      26.424  18.127   6.848  0.00  0.00     0.161 HD
BRANCH  13  15
HETATM   15  C   UNK N   1      28.189  17.693   5.823  0.00  0.00     0.160 C 
BRANCH  15  16
HETATM   16  C   UNK N   1      28.919  17.787   7.136  0.00  0.00    -0.038 A 
HETATM   17  C   UNK N   1      28.311  18.411   8.227  0.00  0.00     0.025 A 
HETATM   18  C   UNK N   1      28.999  18.493   9.442  0.00  0.00     0.088 A 
HETATM   19  N   UNK N   1      30.250  17.969   9.561  0.00  0.00    -0.375 N 
HETATM   20  C   UNK N   1      30.862  17.357   8.514  0.00  0.00     0.088 A 
ATOM     21  HN  UNK N   1      30.737  18.037  10.454  1.00  0.00     0.164 HD
HETATM   22  C   UNK N   1      30.210  17.256   7.287  0.00  0.00     0.025 A 
ENDBRANCH  15  16
ENDBRANCH  13  15
ENDBRANCH  11  13
TORSDOF 3
ENDMDL
MODEL 4
REMARK VINA RESULT:      -5.7      3.961      5.961
REMARK  3 active torsions:
REMARK  status: ('A' for Active; 'I' for Inactive)
REMARK    1  A    between atoms: N_12  and  C_11 
REMARK    2  A    between atoms: N_12  and  C_13 
REMARK    3  A    between atoms: C_14  and  C_13 
ROOT
HETATM    1  C   UNK N   1      34.711  11.312  14.507  0.00  0.00     0.029 A 
HETATM    2  N   UNK N   1      35.449  12.429  14.550  0.00  0.00    -0.307 N 
HETATM    3  C   UNK N   1      35.427  12.931  13.315  0.00  0.00     0.156 A 
HETATM    4  N   UNK N   1      34.698  12.180  12.464  0.00  0.00    -0.347 N 
ATOM      5  HN  UNK N   1      34.529  12.351  11.472  1.00  0.00     0.167 HD
HETATM    6  C   UNK N   1      34.238  11.148  13.214  0.00  0.00     0.115 A 
HETATM    7  C   UNK N   1      36.123  13.023  15.568  0.00  0.00     0.116 A 
HETATM    8  C   UNK N   1      36.817  14.215  15.282  0.00  0.00     0.107 A 
HETATM    9  N   UNK N   1      36.794  14.731  14.011  0.00  0.00    -0.348 N 
ATOM     10  HN  UNK N   1      37.298  15.594  13.809  1.00  0.00     0.167 HD
HETATM   11  C   UNK N   1      36.102  14.102  13.011  0.00  0.00     0.146 A 
HETATM   12  C   UNK N   1      34.446  10.406  15.657  0.00  0.00     0.070 C 
ENDROOT
BRANCH  11  13
HETATM   13  N   UNK N   1      36.059  14.606  11.696  0.00  0.00    -0.369 N 
HETATM   14  H   UNK N   1      36.253  13.979  10.962  0.00  0.00     0.161 HD
BRANCH  13  15
HETATM   15  C   UNK N   1      35.751  15.968  11.343  0.00  0.00     0.160 C 
BRANCH  15  16
HETATM   16  C   UNK N   1      34.656  15.979  10.312  0.00  0.00    -0.038 A 
HETATM   17  C   UNK N   1      34.574  17.029   9.396  0.00  0.00     0.025 A 
HETATM   18  C   UNK N   1      33.551  17.029   8.441  0.00  0.00     0.088 A 
HETATM   19  N   UNK N   1      32.644  16.015   8.406  0.00  0.00    -0.375 N 
HETATM   20  C   UNK N   1      32.703  14.982   9.287  0.00  0.00     0.088 A 
ATOM     21  HN  UNK N   1      31.905  16.030   7.704  1.00  0.00     0.164 HD
HETATM   22  C   UNK N   1      33.707  14.946  10.252  0.00  0.00     0.025 A 
ENDBRANCH  15  16
ENDBRANCH  13  15
ENDBRANCH  11  13
TORSDOF 3
ENDMDL
MODEL 5
REMARK VINA RESULT:      -5.6      0.874      2.476
REMARK  3 active torsions:
REMARK  status: ('A' for Active; 'I' for Inactive)
REMARK    1  A    between atoms: N_12  and  C_11 
REMARK    2  A    between atoms: N_12  and  C_13 
REMARK    3  A    between atoms: C_14  and  C_13 
ROOT
HETATM    1  C   UNK N   1      36.112  13.903   8.121  0.00  0.00     0.029 A 
HETATM    2  N   UNK N   1      35.736  14.807   9.036  0.00  0.00    -0.307 N 
HETATM    3  C   UNK N   1      34.496  15.169   8.707  0.00  0.00     0.156 A 
HETATM    4  N   UNK N   1      34.046  14.532   7.605  0.00  0.00    -0.347 N 
ATOM      5  HN  UNK N   1      33.136  14.636   7.156  1.00  0.00     0.167 HD
HETATM    6  C   UNK N   1      35.068  13.725   7.226  0.00  0.00     0.115 A 
HETATM    7  C   UNK N   1      36.387  15.322  10.110  0.00  0.00     0.116 A 
HETATM    8  C   UNK N   1      35.704  16.274  10.891  0.00  0.00     0.107 A 
HETATM    9  N   UNK N   1      34.427  16.647  10.551  0.00  0.00    -0.348 N 
ATOM     10  HN  UNK N   1      33.936  17.337  11.120  1.00  0.00     0.167 HD
HETATM   11  C   UNK N   1      33.805  16.104   9.460  0.00  0.00     0.146 A 
HETATM   12  C   UNK N   1      37.429  13.212   8.078  0.00  0.00     0.070 C 
ENDROOT
BRANCH  11  13
HETATM   13  N   UNK N   1      32.495  16.465   9.085  0.00  0.00    -0.369 N 
HETATM   14  H   UNK N   1      31.773  15.829   9.289  0.00  0.00     0.161 HD
BRANCH  13  15
HETATM   15  C   UNK N   1      32.134  17.693   8.426  0.00  0.00     0.160 C 
BRANCH  15  16
HETATM   16  C   UNK N   1      30.636  17.774   8.314  0.00  0.00    -0.038 A 
HETATM   17  C   UNK N   1      29.898  18.421   9.307  0.00  0.00     0.025 A 
HETATM   18  C   UNK N   1      28.505  18.491   9.193  0.00  0.00     0.088 A 
HETATM   19  N   UNK N   1      27.875  17.933   8.123  0.00  0.00    -0.375 N 
HETATM   20  C   UNK N   1      28.571  17.298   7.144  0.00  0.00     0.088 A 
ATOM     21  HN  UNK N   1      26.859  17.992   8.055  1.00  0.00     0.164 HD
HETATM   22  C   UNK N   1      29.959  17.208   7.222  0.00  0.00     0.025 A 
ENDBRANCH  15  16
ENDBRANCH  13  15
ENDBRANCH  11  13
TORSDOF 3
ENDMDL
MODEL 6
REMARK VINA RESULT:      -5.5      2.229      3.344
REMARK  3 active torsions:
REMARK  status: ('A' for Active; 'I' for Inactive)
REMARK    1  A    between atoms: N_12  and  C_11 
REMARK    2  A    between atoms: N_12  and  C_13 
REMARK    3  A    between atoms: C_14  and  C_13 
ROOT
HETATM    1  C   UNK N   1      36.401  13.852   8.473  0.00  0.00     0.029 A 
HETATM    2  N   UNK N   1      35.963  14.871   9.224  0.00  0.00    -0.307 N 
HETATM    3  C   UNK N   1      35.091  15.536   8.467  0.00  0.00     0.156 A 
HETATM    4  N   UNK N   1      34.942  14.986   7.243  0.00  0.00    -0.347 N 
ATOM      5  HN  UNK N   1      34.337  15.308   6.487  1.00  0.00     0.167 HD
HETATM    6  C   UNK N   1      35.772  13.914   7.238  0.00  0.00     0.115 A 
HETATM    7  C   UNK N   1      36.267  15.248  10.492  0.00  0.00     0.116 A 
HETATM    8  C   UNK N   1      35.621  16.390  11.004  0.00  0.00     0.107 A 
HETATM    9  N   UNK N   1      34.723  17.074  10.224  0.00  0.00    -0.348 N 
ATOM     10  HN  UNK N   1      34.258  17.901  10.600  1.00  0.00     0.167 HD
HETATM   11  C   UNK N   1      34.444  16.661   8.950  0.00  0.00     0.146 A 
HETATM   12  C   UNK N   1      37.395  12.828   8.897  0.00  0.00     0.070 C 
ENDROOT
BRANCH  11  13
HETATM   13  N   UNK N   1      33.527  17.342   8.124  0.00  0.00    -0.369 N 
HETATM   14  H   UNK N   1      33.845  18.151   7.662  0.00  0.00     0.161 HD
BRANCH  13  15
HETATM   15  C   UNK N   1      32.160  16.945   7.905  0.00  0.00     0.160 C 
BRANCH  15  16
HETATM   16  C   UNK N   1      31.802  17.173   6.461  0.00  0.00    -0.038 A 
HETATM   17  C   UNK N   1      32.812  17.359   5.516  0.00  0.00     0.025 A 
HETATM   18  C   UNK N   1      32.468  17.570   4.176  0.00  0.00     0.088 A 
HETATM   19  N   UNK N   1      31.161  17.594   3.798  0.00  0.00    -0.375 N 
HETATM   20  C   UNK N   1      30.160  17.415   4.699  0.00  0.00     0.088 A 
ATOM     21  HN  UNK N   1      30.928  17.749   2.817  1.00  0.00     0.164 HD
HETATM   22  C   UNK N   1      30.462  17.202   6.043  0.00  0.00     0.025 A 
ENDBRANCH  15  16
ENDBRANCH  13  15
ENDBRANCH  11  13
TORSDOF 3
ENDMDL
MODEL 7
REMARK VINA RESULT:      -5.4      1.564      2.298
REMARK  3 active torsions:
REMARK  status: ('A' for Active; 'I' for Inactive)
REMARK    1  A    between atoms: N_12  and  C_11 
REMARK    2  A    between atoms: N_12  and  C_13 
REMARK    3  A    between atoms: C_14  and  C_13 
ROOT
HETATM    1  C   UNK N   1      34.865  15.634  10.364  0.00  0.00     0.029 A 
HETATM    2  N   UNK N   1      34.355  16.466   9.446  0.00  0.00    -0.307 N 
HETATM    3  C   UNK N   1      33.196  15.930   9.068  0.00  0.00     0.156 A 
HETATM    4  N   UNK N   1      32.927  14.772   9.707  0.00  0.00    -0.347 N 
ATOM      5  HN  UNK N   1      32.108  14.175   9.594  1.00  0.00     0.167 HD
HETATM    6  C   UNK N   1      33.985  14.576  10.534  0.00  0.00     0.115 A 
HETATM    7  C   UNK N   1      34.824  17.632   8.931  0.00  0.00     0.116 A 
HETATM    8  C   UNK N   1      34.034  18.280   7.962  0.00  0.00     0.107 A 
HETATM    9  N   UNK N   1      32.840  17.727   7.573  0.00  0.00    -0.348 N 
ATOM     10  HN  UNK N   1      32.271  18.200   6.870  1.00  0.00     0.167 HD
HETATM   11  C   UNK N   1      32.402  16.550   8.116  0.00  0.00     0.146 A 
HETATM   12  C   UNK N   1      36.159  15.818  11.076  0.00  0.00     0.070 C 
ENDROOT
BRANCH  11  13
HETATM   13  N   UNK N   1      31.181  15.956   7.738  0.00  0.00    -0.369 N 
HETATM   14  H   UNK N   1      30.827  15.241   8.313  0.00  0.00     0.161 HD
BRANCH  13  15
HETATM   15  C   UNK N   1      30.413  16.317   6.575  0.00  0.00     0.160 C 
BRANCH  15  16
HETATM   16  C   UNK N   1      29.401  17.365   6.954  0.00  0.00    -0.038 A 
HETATM   17  C   UNK N   1      28.732  18.077   5.957  0.00  0.00     0.025 A 
HETATM   18  C   UNK N   1      27.793  19.049   6.320  0.00  0.00     0.088 A 
HETATM   19  N   UNK N   1      27.535  19.298   7.634  0.00  0.00    -0.375 N 
HETATM   20  C   UNK N   1      28.174  18.618   8.621  0.00  0.00     0.088 A 
ATOM     21  HN  UNK N   1      26.848  20.010   7.881  1.00  0.00     0.164 HD
HETATM   22  C   UNK N   1      29.115  17.643   8.300  0.00  0.00     0.025 A 
ENDBRANCH  15  16
ENDBRANCH  13  15
ENDBRANCH  11  13
TORSDOF 3
ENDMDL
MODEL 8
REMARK VINA RESULT:      -5.4      2.291      2.828
REMARK  3 active torsions:
REMARK  status: ('A' for Active; 'I' for Inactive)
REMARK    1  A    between atoms: N_12  and  C_11 
REMARK    2  A    between atoms: N_12  and  C_13 
REMARK    3  A    between atoms: C_14  and  C_13 
ROOT
HETATM    1  C   UNK N   1      35.696  14.711  11.269  0.00  0.00     0.029 A 
HETATM    2  N   UNK N   1      34.740  14.437  10.371  0.00  0.00    -0.307 N 
HETATM    3  C   UNK N   1      34.210  15.611  10.030  0.00  0.00     0.156 A 
HETATM    4  N   UNK N   1      34.788  16.647  10.674  0.00  0.00    -0.347 N 
ATOM      5  HN  UNK N   1      34.561  17.638  10.586  1.00  0.00     0.167 HD
HETATM    6  C   UNK N   1      35.735  16.084  11.465  0.00  0.00     0.115 A 
HETATM    7  C   UNK N   1      34.312  13.262   9.845  0.00  0.00     0.116 A 
HETATM    8  C   UNK N   1      33.266  13.312   8.904  0.00  0.00     0.107 A 
HETATM    9  N   UNK N   1      32.720  14.522   8.553  0.00  0.00    -0.348 N 
ATOM     10  HN  UNK N   1      31.963  14.553   7.870  1.00  0.00     0.167 HD
HETATM   11  C   UNK N   1      33.181  15.685   9.106  0.00  0.00     0.146 A 
HETATM   12  C   UNK N   1      36.567  13.707  11.939  0.00  0.00     0.070 C 
ENDROOT
BRANCH  11  13
HETATM   13  N   UNK N   1      32.642  16.943   8.767  0.00  0.00    -0.369 N 
HETATM   14  H   UNK N   1      31.848  17.246   9.263  0.00  0.00     0.161 HD
BRANCH  13  15
HETATM   15  C   UNK N   1      33.165  17.818   7.749  0.00  0.00     0.160 C 
BRANCH  15  16
HETATM   16  C   UNK N   1      32.553  17.459   6.423  0.00  0.00    -0.038 A 
HETATM   17  C   UNK N   1      33.326  17.513   5.262  0.00  0.00     0.025 A 
HETATM   18  C   UNK N   1      32.747  17.177   4.034  0.00  0.00     0.088 A 
HETATM   19  N   UNK N   1      31.440  16.801   3.971  0.00  0.00    -0.375 N 
HETATM   20  C   UNK N   1      30.667  16.740   5.087  0.00  0.00     0.088 A 
ATOM     21  HN  UNK N   1      31.033  16.559   3.068  1.00  0.00     0.164 HD
HETATM   22  C   UNK N   1      31.207  17.067   6.328  0.00  0.00     0.025 A 
ENDBRANCH  15  16
ENDBRANCH  13  15
ENDBRANCH  11  13
TORSDOF 3
ENDMDL
MODEL 9
REMARK VINA RESULT:      -5.3      4.517      8.075
REMARK  3 active torsions:
REMARK  status: ('A' for Active; 'I' for Inactive)
REMARK    1  A    between atoms: N_12  and  C_11 
REMARK    2  A    between atoms: N_12  and  C_13 
REMARK    3  A    between atoms: C_14  and  C_13 
ROOT
HETATM    1  C   UNK N   1      34.809  15.725   9.819  0.00  0.00     0.029 A 
HETATM    2  N   UNK N   1      34.963  14.489  10.313  0.00  0.00    -0.307 N 
HETATM    3  C   UNK N   1      35.762  14.613  11.372  0.00  0.00     0.156 A 
HETATM    4  N   UNK N   1      36.139  15.891  11.590  0.00  0.00    -0.347 N 
ATOM      5  HN  UNK N   1      36.744  16.242  12.332  1.00  0.00     0.167 HD
HETATM    6  C   UNK N   1      35.537  16.605  10.607  0.00  0.00     0.115 A 
HETATM    7  C   UNK N   1      34.464  13.292   9.910  0.00  0.00     0.116 A 
HETATM    8  C   UNK N   1      34.821  12.153  10.657  0.00  0.00     0.107 A 
HETATM    9  N   UNK N   1      35.644  12.281  11.748  0.00  0.00    -0.348 N 
ATOM     10  HN  UNK N   1      35.900  11.453  12.286  1.00  0.00     0.167 HD
HETATM   11  C   UNK N   1      36.126  13.507  12.121  0.00  0.00     0.146 A 
HETATM   12  C   UNK N   1      33.994  16.086   8.628  0.00  0.00     0.070 C 
ENDROOT
BRANCH  11  13
HETATM   13  N   UNK N   1      36.973  13.672  13.235  0.00  0.00    -0.369 N 
HETATM   14  H   UNK N   1      37.933  13.495  13.107  0.00  0.00     0.161 HD
BRANCH  13  15
HETATM   15  C   UNK N   1      36.542  14.079  14.548  0.00  0.00     0.160 C 
BRANCH  15  16
HETATM   16  C   UNK N   1      36.346  12.860  15.407  0.00  0.00    -0.038 A 
HETATM   17  C   UNK N   1      35.499  12.919  16.515  0.00  0.00     0.025 A 
HETATM   18  C   UNK N   1      35.323  11.779  17.307  0.00  0.00     0.088 A 
HETATM   19  N   UNK N   1      35.973  10.623  17.000  0.00  0.00    -0.375 N 
HETATM   20  C   UNK N   1      36.803  10.540  15.927  0.00  0.00     0.088 A 
ATOM     21  HN  UNK N   1      35.834   9.801  17.588  1.00  0.00     0.164 HD
HETATM   22  C   UNK N   1      37.004  11.654  15.114  0.00  0.00     0.025 A 
ENDBRANCH  15  16
ENDBRANCH  13  15
ENDBRANCH  11  13
TORSDOF 3
ENDMDL
