MODEL 1
REMARK VINA RESULT:      -7.2      0.000      0.000
REMARK  4 active torsions:
REMARK  status: ('A' for Active; 'I' for Inactive)
REMARK    1  A    between atoms: C_9  and  C_13 
REMARK    2  A    between atoms: N_12  and  C_11 
REMARK    3  A    between atoms: N_12  and  C_14 
REMARK    4  A    between atoms: C_15  and  C_14 
ROOT
HETATM    1  C   UNK N   1      24.740  21.509  -7.559  0.00  0.00     0.069 A 
HETATM    2  C   UNK N   1      25.619  22.429  -7.035  0.00  0.00     0.131 A 
HETATM    3  N   UNK N   1      26.871  22.073  -7.319  0.00  0.00    -0.224 N 
HETATM    4  N   UNK N   1      26.866  20.952  -8.012  0.00  0.00    -0.302 N 
ATOM      5  HN  UNK N   1      27.688  20.458  -8.360  1.00  0.00     0.186 HD
HETATM    6  C   UNK N   1      25.575  20.574  -8.180  0.00  0.00     0.111 A 
HETATM    7  N   UNK N   1      25.334  23.550  -6.325  0.00  0.00    -0.340 N 
ATOM      8  HN  UNK N   1      24.368  23.801  -6.118  1.00  0.00     0.167 HD
HETATM    9  C   UNK N   1      26.367  24.340  -5.890  0.00  0.00     0.050 A 
HETATM   10  C   UNK N   1      27.694  23.973  -6.186  0.00  0.00     0.080 A 
HETATM   11  C   UNK N   1      27.939  22.814  -6.913  0.00  0.00     0.127 A 
ENDROOT
BRANCH  11  12
HETATM   12  N   UNK N   1      29.276  22.454  -7.194  0.00  0.00    -0.370 N 
HETATM   13  H   UNK N   1      29.438  21.726  -7.836  0.00  0.00     0.161 HD
BRANCH  12  14
HETATM   14  C   UNK N   1      30.412  23.096  -6.592  0.00  0.00     0.160 C 
BRANCH  14  15
HETATM   15  C   UNK N   1      30.884  22.341  -5.397  0.00  0.00    -0.038 A 
HETATM   16  C   UNK N   1      31.413  22.992  -4.272  0.00  0.00     0.025 A 
HETATM   17  C   UNK N   1      31.850  22.235  -3.186  0.00  0.00     0.088 A 
HETATM   18  N   UNK N   1      31.765  20.879  -3.223  0.00  0.00    -0.375 N 
HETATM   19  C   UNK N   1      31.254  20.228  -4.304  0.00  0.00     0.088 A 
ATOM     20  HN  UNK N   1      32.089  20.336  -2.423  1.00  0.00     0.164 HD
HETATM   21  C   UNK N   1      30.805  20.951  -5.409  0.00  0.00     0.025 A 
ENDBRANCH  14  15
ENDBRANCH  12  14
ENDBRANCH  11  12
BRANCH   9  22
HETATM   22  C   UNK N   1      26.120  25.575  -5.105  0.00  0.00     0.029 A 
HETATM   23  C   UNK N   1      26.528  25.705  -3.761  0.00  0.00     0.128 A 
HETATM   24  F   UNK N   1      27.169  24.697  -3.119  0.00  0.00    -0.205 F 
HETATM   25  C   UNK N   1      26.271  26.892  -3.066  0.00  0.00     0.043 A 
HETATM   26  C   UNK N   1      25.615  27.953  -3.694  0.00  0.00     0.003 A 
HETATM   27  C   UNK N   1      25.208  27.832  -5.022  0.00  0.00     0.001 A 
HETATM   28  C   UNK N   1      25.460  26.653  -5.721  0.00  0.00     0.017 A 
ENDBRANCH   9  22
TORSDOF 4
ENDMDL
MODEL 2
REMARK VINA RESULT:      -7.1     17.327     21.062
REMARK  4 active torsions:
REMARK  status: ('A' for Active; 'I' for Inactive)
REMARK    1  A    between atoms: C_9  and  C_13 
REMARK    2  A    between atoms: N_12  and  C_11 
REMARK    3  A    between atoms: N_12  and  C_14 
REMARK    4  A    between atoms: C_15  and  C_14 
ROOT
HETATM    1  C   UNK N   1      37.998  13.465   8.743  0.00  0.00     0.069 A 
HETATM    2  C   UNK N   1      37.008  14.151   9.408  0.00  0.00     0.131 A 
HETATM    3  N   UNK N   1      37.240  14.124  10.720  0.00  0.00    -0.224 N 
HETATM    4  N   UNK N   1      38.347  13.449  10.959  0.00  0.00    -0.302 N 
ATOM      5  HN  UNK N   1      38.757  13.275  11.877  1.00  0.00     0.186 HD
HETATM    6  C   UNK N   1      38.842  13.029   9.770  0.00  0.00     0.111 A 
HETATM    7  N   UNK N   1      35.927  14.782   8.883  0.00  0.00    -0.340 N 
ATOM      8  HN  UNK N   1      35.769  14.787   7.875  1.00  0.00     0.167 HD
HETATM    9  C   UNK N   1      35.051  15.413   9.728  0.00  0.00     0.050 A 
HETATM   10  C   UNK N   1      35.288  15.391  11.116  0.00  0.00     0.080 A 
HETATM   11  C   UNK N   1      36.407  14.729  11.611  0.00  0.00     0.127 A 
ENDROOT
BRANCH  11  12
HETATM   12  N   UNK N   1      36.626  14.709  13.006  0.00  0.00    -0.370 N 
HETATM   13  H   UNK N   1      36.985  15.519  13.434  0.00  0.00     0.161 HD
BRANCH  12  14
HETATM   14  C   UNK N   1      36.351  13.567  13.834  0.00  0.00     0.160 C 
BRANCH  14  15
HETATM   15  C   UNK N   1      36.253  13.956  15.270  0.00  0.00    -0.038 A 
HETATM   16  C   UNK N   1      37.034  14.986  15.813  0.00  0.00     0.025 A 
HETATM   17  C   UNK N   1      36.909  15.301  17.165  0.00  0.00     0.088 A 
HETATM   18  N   UNK N   1      36.036  14.610  17.946  0.00  0.00    -0.375 N 
HETATM   19  C   UNK N   1      35.268  13.608  17.439  0.00  0.00     0.088 A 
ATOM     20  HN  UNK N   1      35.955  14.849  18.934  1.00  0.00     0.164 HD
HETATM   21  C   UNK N   1      35.364  13.265  16.090  0.00  0.00     0.025 A 
ENDBRANCH  14  15
ENDBRANCH  12  14
ENDBRANCH  11  12
BRANCH   9  22
HETATM   22  C   UNK N   1      33.849  16.114   9.215  0.00  0.00     0.029 A 
HETATM   23  C   UNK N   1      33.899  17.441   8.737  0.00  0.00     0.128 A 
HETATM   24  F   UNK N   1      35.060  18.141   8.726  0.00  0.00    -0.205 F 
HETATM   25  C   UNK N   1      32.735  18.056   8.262  0.00  0.00     0.043 A 
HETATM   26  C   UNK N   1      31.521  17.366   8.257  0.00  0.00     0.003 A 
HETATM   27  C   UNK N   1      31.462  16.055   8.727  0.00  0.00     0.001 A 
HETATM   28  C   UNK N   1      32.617  15.435   9.202  0.00  0.00     0.017 A 
ENDBRANCH   9  22
TORSDOF 4
ENDMDL
MODEL 3
REMARK VINA RESULT:      -7.0     11.227     13.621
REMARK  4 active torsions:
REMARK  status: ('A' for Active; 'I' for Inactive)
REMARK    1  A    between atoms: C_9  and  C_13 
REMARK    2  A    between atoms: N_12  and  C_11 
REMARK    3  A    between atoms: N_12  and  C_14 
REMARK    4  A    between atoms: C_15  and  C_14 
ROOT
HETATM    1  C   UNK N   1      28.387  18.127   9.271  0.00  0.00     0.069 A 
HETATM    2  C   UNK N   1      28.397  18.119   7.895  0.00  0.00     0.131 A 
HETATM    3  N   UNK N   1      29.482  17.484   7.453  0.00  0.00    -0.224 N 
HETATM    4  N   UNK N   1      30.198  17.066   8.478  0.00  0.00    -0.302 N 
ATOM      5  HN  UNK N   1      31.078  16.551   8.425  1.00  0.00     0.186 HD
HETATM    6  C   UNK N   1      29.558  17.441   9.612  0.00  0.00     0.111 A 
HETATM    7  N   UNK N   1      27.483  18.654   7.047  0.00  0.00    -0.340 N 
ATOM      8  HN  UNK N   1      26.661  19.137   7.409  1.00  0.00     0.167 HD
HETATM    9  C   UNK N   1      27.681  18.535   5.696  0.00  0.00     0.050 A 
HETATM   10  C   UNK N   1      28.824  17.865   5.219  0.00  0.00     0.080 A 
HETATM   11  C   UNK N   1      29.737  17.335   6.124  0.00  0.00     0.127 A 
ENDROOT
BRANCH  11  12
HETATM   12  N   UNK N   1      30.883  16.674   5.630  0.00  0.00    -0.370 N 
HETATM   13  H   UNK N   1      30.813  15.715   5.417  0.00  0.00     0.161 HD
BRANCH  12  14
HETATM   14  C   UNK N   1      32.145  17.328   5.420  0.00  0.00     0.160 C 
BRANCH  14  15
HETATM   15  C   UNK N   1      33.097  17.027   6.527  0.00  0.00    -0.038 A 
HETATM   16  C   UNK N   1      33.527  18.017   7.422  0.00  0.00     0.025 A 
HETATM   17  C   UNK N   1      34.427  17.683   8.433  0.00  0.00     0.088 A 
HETATM   18  N   UNK N   1      34.881  16.406   8.545  0.00  0.00    -0.375 N 
HETATM   19  C   UNK N   1      34.474  15.429   7.688  0.00  0.00     0.088 A 
ATOM     20  HN  UNK N   1      35.539  16.174   9.288  1.00  0.00     0.164 HD
HETATM   21  C   UNK N   1      33.574  15.726   6.664  0.00  0.00     0.025 A 
ENDBRANCH  14  15
ENDBRANCH  12  14
ENDBRANCH  11  12
BRANCH   9  22
HETATM   22  C   UNK N   1      26.721  19.104   4.719  0.00  0.00     0.029 A 
HETATM   23  C   UNK N   1      25.408  18.606   4.577  0.00  0.00     0.128 A 
HETATM   24  F   UNK N   1      24.962  17.574   5.334  0.00  0.00    -0.205 F 
HETATM   25  C   UNK N   1      24.542  19.180   3.640  0.00  0.00     0.043 A 
HETATM   26  C   UNK N   1      24.965  20.245   2.843  0.00  0.00     0.003 A 
HETATM   27  C   UNK N   1      26.261  20.744   2.976  0.00  0.00     0.001 A 
HETATM   28  C   UNK N   1      27.130  20.177   3.907  0.00  0.00     0.017 A 
ENDBRANCH   9  22
TORSDOF 4
ENDMDL
MODEL 4
REMARK VINA RESULT:      -7.0     18.409     22.431
REMARK  4 active torsions:
REMARK  status: ('A' for Active; 'I' for Inactive)
REMARK    1  A    between atoms: C_9  and  C_13 
REMARK    2  A    between atoms: N_12  and  C_11 
REMARK    3  A    between atoms: N_12  and  C_14 
REMARK    4  A    between atoms: C_15  and  C_14 
ROOT
HETATM    1  C   UNK N   1      37.663  10.920  11.911  0.00  0.00     0.069 A 
HETATM    2  C   UNK N   1      37.216  12.082  12.495  0.00  0.00     0.131 A 
HETATM    3  N   UNK N   1      37.084  13.033  11.571  0.00  0.00    -0.224 N 
HETATM    4  N   UNK N   1      37.424  12.552  10.391  0.00  0.00    -0.302 N 
ATOM      5  HN  UNK N   1      37.416  13.065   9.509  1.00  0.00     0.186 HD
HETATM    6  C   UNK N   1      37.785  11.257  10.559  0.00  0.00     0.111 A 
HETATM    7  N   UNK N   1      36.933  12.308  13.803  0.00  0.00    -0.340 N 
ATOM      8  HN  UNK N   1      37.044  11.566  14.493  1.00  0.00     0.167 HD
HETATM    9  C   UNK N   1      36.494  13.551  14.182  0.00  0.00     0.050 A 
HETATM   10  C   UNK N   1      36.350  14.562  13.212  0.00  0.00     0.080 A 
HETATM   11  C   UNK N   1      36.656  14.287  11.884  0.00  0.00     0.127 A 
ENDROOT
BRANCH  11  12
HETATM   12  N   UNK N   1      36.515  15.313  10.924  0.00  0.00    -0.370 N 
HETATM   13  H   UNK N   1      37.265  15.485  10.311  0.00  0.00     0.161 HD
BRANCH  12  14
HETATM   14  C   UNK N   1      35.332  16.119  10.795  0.00  0.00     0.160 C 
BRANCH  14  15
HETATM   15  C   UNK N   1      34.970  16.316   9.362  0.00  0.00    -0.038 A 
HETATM   16  C   UNK N   1      34.486  17.542   8.882  0.00  0.00     0.025 A 
HETATM   17  C   UNK N   1      34.152  17.666   7.534  0.00  0.00     0.088 A 
HETATM   18  N   UNK N   1      34.295  16.604   6.697  0.00  0.00    -0.375 N 
HETATM   19  C   UNK N   1      34.764  15.405   7.143  0.00  0.00     0.088 A 
ATOM     20  HN  UNK N   1      34.046  16.706   5.714  1.00  0.00     0.164 HD
HETATM   21  C   UNK N   1      35.109  15.243   8.484  0.00  0.00     0.025 A 
ENDBRANCH  14  15
ENDBRANCH  12  14
ENDBRANCH  11  12
BRANCH   9  22
HETATM   22  C   UNK N   1      36.174  13.861  15.597  0.00  0.00     0.029 A 
HETATM   23  C   UNK N   1      36.792  14.921  16.293  0.00  0.00     0.128 A 
HETATM   24  F   UNK N   1      37.717  15.711  15.694  0.00  0.00    -0.205 F 
HETATM   25  C   UNK N   1      36.452  15.171  17.627  0.00  0.00     0.043 A 
HETATM   26  C   UNK N   1      35.503  14.380  18.277  0.00  0.00     0.003 A 
HETATM   27  C   UNK N   1      34.887  13.330  17.596  0.00  0.00     0.001 A 
HETATM   28  C   UNK N   1      35.220  13.074  16.268  0.00  0.00     0.017 A 
ENDBRANCH   9  22
TORSDOF 4
ENDMDL
MODEL 5
REMARK VINA RESULT:      -7.0     17.371     21.525
REMARK  4 active torsions:
REMARK  status: ('A' for Active; 'I' for Inactive)
REMARK    1  A    between atoms: C_9  and  C_13 
REMARK    2  A    between atoms: N_12  and  C_11 
REMARK    3  A    between atoms: N_12  and  C_14 
REMARK    4  A    between atoms: C_15  and  C_14 
ROOT
HETATM    1  C   UNK N   1      38.623  12.545  10.312  0.00  0.00     0.069 A 
HETATM    2  C   UNK N   1      37.715  13.210  11.104  0.00  0.00     0.131 A 
HETATM    3  N   UNK N   1      37.225  14.261  10.448  0.00  0.00    -0.224 N 
HETATM    4  N   UNK N   1      37.767  14.325   9.248  0.00  0.00    -0.302 N 
ATOM      5  HN  UNK N   1      37.571  15.031   8.537  1.00  0.00     0.186 HD
HETATM    6  C   UNK N   1      38.631  13.288   9.127  0.00  0.00     0.111 A 
HETATM    7  N   UNK N   1      37.327  12.909  12.369  0.00  0.00    -0.340 N 
ATOM      8  HN  UNK N   1      37.719  12.100  12.852  1.00  0.00     0.167 HD
HETATM    9  C   UNK N   1      36.401  13.708  12.987  0.00  0.00     0.050 A 
HETATM   10  C   UNK N   1      35.875  14.820  12.301  0.00  0.00     0.080 A 
HETATM   11  C   UNK N   1      36.305  15.093  11.007  0.00  0.00     0.127 A 
ENDROOT
BRANCH  11  12
HETATM   12  N   UNK N   1      35.775  16.218  10.336  0.00  0.00    -0.370 N 
HETATM   13  H   UNK N   1      36.378  16.971  10.140  0.00  0.00     0.161 HD
BRANCH  12  14
HETATM   14  C   UNK N   1      34.403  16.319   9.922  0.00  0.00     0.160 C 
BRANCH  14  15
HETATM   15  C   UNK N   1      34.295  16.424   8.439  0.00  0.00    -0.038 A 
HETATM   16  C   UNK N   1      34.832  15.448   7.587  0.00  0.00     0.025 A 
HETATM   17  C   UNK N   1      34.712  15.602   6.207  0.00  0.00     0.088 A 
HETATM   18  N   UNK N   1      34.082  16.694   5.696  0.00  0.00    -0.375 N 
HETATM   19  C   UNK N   1      33.553  17.652   6.506  0.00  0.00     0.088 A 
ATOM     20  HN  UNK N   1      34.002  16.796   4.685  1.00  0.00     0.164 HD
HETATM   21  C   UNK N   1      33.652  17.532   7.892  0.00  0.00     0.025 A 
ENDBRANCH  14  15
ENDBRANCH  12  14
ENDBRANCH  11  12
BRANCH   9  22
HETATM   22  C   UNK N   1      35.940  13.433  14.370  0.00  0.00     0.029 A 
HETATM   23  C   UNK N   1      36.500  14.081  15.491  0.00  0.00     0.128 A 
HETATM   24  F   UNK N   1      37.495  14.993  15.354  0.00  0.00    -0.205 F 
HETATM   25  C   UNK N   1      36.028  13.786  16.775  0.00  0.00     0.043 A 
HETATM   26  C   UNK N   1      35.004  12.854  16.957  0.00  0.00     0.003 A 
HETATM   27  C   UNK N   1      34.446  12.208  15.854  0.00  0.00     0.001 A 
HETATM   28  C   UNK N   1      34.910  12.497  14.573  0.00  0.00     0.017 A 
ENDBRANCH   9  22
TORSDOF 4
ENDMDL
MODEL 6
REMARK VINA RESULT:      -6.9     19.800     23.564
REMARK  4 active torsions:
REMARK  status: ('A' for Active; 'I' for Inactive)
REMARK    1  A    between atoms: C_9  and  C_13 
REMARK    2  A    between atoms: N_12  and  C_11 
REMARK    3  A    between atoms: N_12  and  C_14 
REMARK    4  A    between atoms: C_15  and  C_14 
ROOT
HETATM    1  C   UNK N   1      33.792   9.974  12.449  0.00  0.00     0.069 A 
HETATM    2  C   UNK N   1      34.380  10.933  13.241  0.00  0.00     0.131 A 
HETATM    3  N   UNK N   1      34.954  11.863  12.478  0.00  0.00    -0.224 N 
HETATM    4  N   UNK N   1      34.772  11.565  11.207  0.00  0.00    -0.302 N 
ATOM      5  HN  UNK N   1      35.106  12.107  10.409  1.00  0.00     0.186 HD
HETATM    6  C   UNK N   1      34.062  10.412  11.148  0.00  0.00     0.111 A 
HETATM    7  N   UNK N   1      34.418  10.993  14.596  0.00  0.00    -0.340 N 
ATOM      8  HN  UNK N   1      33.974  10.268  15.159  1.00  0.00     0.167 HD
HETATM    9  C   UNK N   1      35.062  12.044  15.196  0.00  0.00     0.050 A 
HETATM   10  C   UNK N   1      35.670  13.032  14.399  0.00  0.00     0.080 A 
HETATM   11  C   UNK N   1      35.610  12.929  13.013  0.00  0.00     0.127 A 
ENDROOT
BRANCH  11  12
HETATM   12  N   UNK N   1      36.233  13.923  12.227  0.00  0.00    -0.370 N 
HETATM   13  H   UNK N   1      36.963  13.653  11.625  0.00  0.00     0.161 HD
BRANCH  12  14
HETATM   14  C   UNK N   1      35.854  15.309  12.258  0.00  0.00     0.160 C 
BRANCH  14  15
HETATM   15  C   UNK N   1      35.047  15.673  11.058  0.00  0.00    -0.038 A 
HETATM   16  C   UNK N   1      33.981  14.876  10.614  0.00  0.00     0.025 A 
HETATM   17  C   UNK N   1      33.267  15.257   9.480  0.00  0.00     0.088 A 
HETATM   18  N   UNK N   1      33.606  16.393   8.813  0.00  0.00    -0.375 N 
HETATM   19  C   UNK N   1      34.636  17.181   9.228  0.00  0.00     0.088 A 
ATOM     20  HN  UNK N   1      33.077  16.660   7.983  1.00  0.00     0.164 HD
HETATM   21  C   UNK N   1      35.373  16.832  10.359  0.00  0.00     0.025 A 
ENDBRANCH  14  15
ENDBRANCH  12  14
ENDBRANCH  11  12
BRANCH   9  22
HETATM   22  C   UNK N   1      35.142  12.163  16.673  0.00  0.00     0.029 A 
HETATM   23  C   UNK N   1      35.251  11.035  17.513  0.00  0.00     0.128 A 
HETATM   24  F   UNK N   1      35.287   9.778  17.004  0.00  0.00    -0.205 F 
HETATM   25  C   UNK N   1      35.325  11.203  18.900  0.00  0.00     0.043 A 
HETATM   26  C   UNK N   1      35.292  12.480  19.462  0.00  0.00     0.003 A 
HETATM   27  C   UNK N   1      35.184  13.601  18.639  0.00  0.00     0.001 A 
HETATM   28  C   UNK N   1      35.110  13.442  17.257  0.00  0.00     0.017 A 
ENDBRANCH   9  22
TORSDOF 4
ENDMDL
MODEL 7
REMARK VINA RESULT:      -6.8     19.481     23.429
REMARK  4 active torsions:
REMARK  status: ('A' for Active; 'I' for Inactive)
REMARK    1  A    between atoms: C_9  and  C_13 
REMARK    2  A    between atoms: N_12  and  C_11 
REMARK    3  A    between atoms: N_12  and  C_14 
REMARK    4  A    between atoms: C_15  and  C_14 
ROOT
HETATM    1  C   UNK N   1      37.939   9.466  13.583  0.00  0.00     0.069 A 
HETATM    2  C   UNK N   1      37.277  10.669  13.674  0.00  0.00     0.131 A 
HETATM    3  N   UNK N   1      36.649  10.929  12.528  0.00  0.00    -0.224 N 
HETATM    4  N   UNK N   1      36.863   9.948  11.674  0.00  0.00    -0.302 N 
ATOM      5  HN  UNK N   1      36.500   9.891  10.722  1.00  0.00     0.186 HD
HETATM    6  C   UNK N   1      37.650   9.030  12.285  0.00  0.00     0.111 A 
HETATM    7  N   UNK N   1      37.225  11.519  14.730  0.00  0.00    -0.340 N 
ATOM      8  HN  UNK N   1      37.716  11.299  15.597  1.00  0.00     0.167 HD
HETATM    9  C   UNK N   1      36.502  12.678  14.614  0.00  0.00     0.050 A 
HETATM   10  C   UNK N   1      35.834  12.962  13.408  0.00  0.00     0.080 A 
HETATM   11  C   UNK N   1      35.918  12.063  12.350  0.00  0.00     0.127 A 
ENDROOT
BRANCH  11  12
HETATM   12  N   UNK N   1      35.250  12.366  11.143  0.00  0.00    -0.370 N 
HETATM   13  H   UNK N   1      34.320  12.061  11.034  0.00  0.00     0.161 HD
BRANCH  12  14
HETATM   14  C   UNK N   1      35.856  13.097  10.064  0.00  0.00     0.160 C 
BRANCH  14  15
HETATM   15  C   UNK N   1      35.337  14.494  10.003  0.00  0.00    -0.038 A 
HETATM   16  C   UNK N   1      34.228  14.837   9.216  0.00  0.00     0.025 A 
HETATM   17  C   UNK N   1      33.792  16.161   9.188  0.00  0.00     0.088 A 
HETATM   18  N   UNK N   1      34.441  17.107   9.918  0.00  0.00    -0.375 N 
HETATM   19  C   UNK N   1      35.518  16.794  10.689  0.00  0.00     0.088 A 
ATOM     20  HN  UNK N   1      34.113  18.072   9.888  1.00  0.00     0.164 HD
HETATM   21  C   UNK N   1      35.983  15.480  10.744  0.00  0.00     0.025 A 
ENDBRANCH  14  15
ENDBRANCH  12  14
ENDBRANCH  11  12
BRANCH   9  22
HETATM   22  C   UNK N   1      36.412  13.650  15.732  0.00  0.00     0.029 A 
HETATM   23  C   UNK N   1      35.553  13.452  16.833  0.00  0.00     0.128 A 
HETATM   24  F   UNK N   1      34.762  12.354  16.920  0.00  0.00    -0.205 F 
HETATM   25  C   UNK N   1      35.507  14.400  17.861  0.00  0.00     0.043 A 
HETATM   26  C   UNK N   1      36.307  15.543  17.807  0.00  0.00     0.003 A 
HETATM   27  C   UNK N   1      37.159  15.747  16.722  0.00  0.00     0.001 A 
HETATM   28  C   UNK N   1      37.210  14.807  15.695  0.00  0.00     0.017 A 
ENDBRANCH   9  22
TORSDOF 4
ENDMDL
MODEL 8
REMARK VINA RESULT:      -6.8     11.826     15.609
REMARK  4 active torsions:
REMARK  status: ('A' for Active; 'I' for Inactive)
REMARK    1  A    between atoms: C_9  and  C_13 
REMARK    2  A    between atoms: N_12  and  C_11 
REMARK    3  A    between atoms: N_12  and  C_14 
REMARK    4  A    between atoms: C_15  and  C_14 
ROOT
HETATM    1  C   UNK N   1      33.098  16.925   3.931  0.00  0.00     0.069 A 
HETATM    2  C   UNK N   1      32.688  16.829   5.241  0.00  0.00     0.131 A 
HETATM    3  N   UNK N   1      31.374  17.032   5.321  0.00  0.00    -0.224 N 
HETATM    4  N   UNK N   1      30.887  17.259   4.117  0.00  0.00    -0.302 N 
ATOM      5  HN  UNK N   1      29.910  17.446   3.890  1.00  0.00     0.186 HD
HETATM    6  C   UNK N   1      31.915  17.202   3.236  0.00  0.00     0.111 A 
HETATM    7  N   UNK N   1      33.443  16.573   6.339  0.00  0.00    -0.340 N 
ATOM      8  HN  UNK N   1      34.448  16.422   6.252  1.00  0.00     0.167 HD
HETATM    9  C   UNK N   1      32.834  16.518   7.565  0.00  0.00     0.050 A 
HETATM   10  C   UNK N   1      31.445  16.731   7.661  0.00  0.00     0.080 A 
HETATM   11  C   UNK N   1      30.711  16.994   6.510  0.00  0.00     0.127 A 
ENDROOT
BRANCH  11  12
HETATM   12  N   UNK N   1      29.320  17.214   6.622  0.00  0.00    -0.370 N 
HETATM   13  H   UNK N   1      28.709  16.540   6.247  0.00  0.00     0.161 HD
BRANCH  12  14
HETATM   14  C   UNK N   1      28.750  18.370   7.259  0.00  0.00     0.160 C 
BRANCH  14  15
HETATM   15  C   UNK N   1      27.993  19.202   6.281  0.00  0.00    -0.038 A 
HETATM   16  C   UNK N   1      27.960  18.892   4.913  0.00  0.00     0.025 A 
HETATM   17  C   UNK N   1      27.246  19.712   4.042  0.00  0.00     0.088 A 
HETATM   18  N   UNK N   1      26.590  20.803   4.518  0.00  0.00    -0.375 N 
HETATM   19  C   UNK N   1      26.608  21.122   5.842  0.00  0.00     0.088 A 
ATOM     20  HN  UNK N   1      26.072  21.396   3.871  1.00  0.00     0.164 HD
HETATM   21  C   UNK N   1      27.311  20.324   6.745  0.00  0.00     0.025 A 
ENDBRANCH  14  15
ENDBRANCH  12  14
ENDBRANCH  11  12
BRANCH   9  22
HETATM   22  C   UNK N   1      33.606  16.248   8.803  0.00  0.00     0.029 A 
HETATM   23  C   UNK N   1      34.616  17.118   9.264  0.00  0.00     0.128 A 
HETATM   24  F   UNK N   1      34.931  18.252   8.590  0.00  0.00    -0.205 F 
HETATM   25  C   UNK N   1      35.314  16.816  10.439  0.00  0.00     0.043 A 
HETATM   26  C   UNK N   1      35.018  15.658  11.161  0.00  0.00     0.003 A 
HETATM   27  C   UNK N   1      34.022  14.792  10.712  0.00  0.00     0.001 A 
HETATM   28  C   UNK N   1      33.322  15.086   9.543  0.00  0.00     0.017 A 
ENDBRANCH   9  22
TORSDOF 4
ENDMDL
MODEL 9
REMARK VINA RESULT:      -6.7      1.829      2.554
REMARK  4 active torsions:
REMARK  status: ('A' for Active; 'I' for Inactive)
REMARK    1  A    between atoms: C_9  and  C_13 
REMARK    2  A    between atoms: N_12  and  C_11 
REMARK    3  A    between atoms: N_12  and  C_14 
REMARK    4  A    between atoms: C_15  and  C_14 
ROOT
HETATM    1  C   UNK N   1      24.700  21.697  -7.825  0.00  0.00     0.069 A 
HETATM    2  C   UNK N   1      25.592  22.527  -7.184  0.00  0.00     0.131 A 
HETATM    3  N   UNK N   1      26.834  22.080  -7.359  0.00  0.00    -0.224 N 
HETATM    4  N   UNK N   1      26.811  20.984  -8.093  0.00  0.00    -0.302 N 
ATOM      5  HN  UNK N   1      27.622  20.436  -8.378  1.00  0.00     0.186 HD
HETATM    6  C   UNK N   1      25.518  20.717  -8.398  0.00  0.00     0.111 A 
HETATM    7  N   UNK N   1      25.326  23.645  -6.462  0.00  0.00    -0.340 N 
ATOM      8  HN  UNK N   1      24.366  23.967  -6.341  1.00  0.00     0.167 HD
HETATM    9  C   UNK N   1      26.369  24.336  -5.901  0.00  0.00     0.050 A 
HETATM   10  C   UNK N   1      27.686  23.872  -6.081  0.00  0.00     0.080 A 
HETATM   11  C   UNK N   1      27.911  22.719  -6.825  0.00  0.00     0.127 A 
ENDROOT
BRANCH  11  12
HETATM   12  N   UNK N   1      29.237  22.261  -6.990  0.00  0.00    -0.370 N 
HETATM   13  H   UNK N   1      29.819  22.735  -7.626  0.00  0.00     0.161 HD
BRANCH  12  14
HETATM   14  C   UNK N   1      29.782  21.139  -6.275  0.00  0.00     0.160 C 
BRANCH  14  15
HETATM   15  C   UNK N   1      30.360  20.135  -7.214  0.00  0.00    -0.038 A 
HETATM   16  C   UNK N   1      29.573  19.137  -7.808  0.00  0.00     0.025 A 
HETATM   17  C   UNK N   1      30.169  18.217  -8.669  0.00  0.00     0.088 A 
HETATM   18  N   UNK N   1      31.502  18.290  -8.925  0.00  0.00    -0.375 N 
HETATM   19  C   UNK N   1      32.284  19.250  -8.360  0.00  0.00     0.088 A 
ATOM     20  HN  UNK N   1      31.926  17.610  -9.556  1.00  0.00     0.164 HD
HETATM   21  C   UNK N   1      31.723  20.189  -7.494  0.00  0.00     0.025 A 
ENDBRANCH  14  15
ENDBRANCH  12  14
ENDBRANCH  11  12
BRANCH   9  22
HETATM   22  C   UNK N   1      26.142  25.562  -5.097  0.00  0.00     0.029 A 
HETATM   23  C   UNK N   1      26.508  25.647  -3.737  0.00  0.00     0.128 A 
HETATM   24  F   UNK N   1      27.087  24.602  -3.096  0.00  0.00    -0.205 F 
HETATM   25  C   UNK N   1      26.273  26.829  -3.025  0.00  0.00     0.043 A 
HETATM   26  C   UNK N   1      25.679  27.927  -3.650  0.00  0.00     0.003 A 
HETATM   27  C   UNK N   1      25.314  27.851  -4.994  0.00  0.00     0.001 A 
HETATM   28  C   UNK N   1      25.545  26.678  -5.710  0.00  0.00     0.017 A 
ENDBRANCH   9  22
TORSDOF 4
ENDMDL
