REMARK  4 active torsions:
REMARK  status: ('A' for Active; 'I' for Inactive)
REMARK    1  A    between atoms: C_9  and  C_13 
REMARK    2  A    between atoms: N_12  and  C_11 
REMARK    3  A    between atoms: N_12  and  C_14 
REMARK    4  A    between atoms: C_15  and  C_14 
ROOT
HETATM    1  C   UNK N   1      -2.997   2.486  -0.007  0.00  0.00     0.069 A 
HETATM    2  C   UNK N   1      -1.735   1.938  -0.008  0.00  0.00     0.131 A 
HETATM    3  N   UNK N   1      -1.818   0.608  -0.004  0.00  0.00    -0.224 N 
HETATM    4  N   UNK N   1      -3.085   0.244  -0.002  0.00  0.00    -0.302 N 
ATOM      5  HN  UNK N   1      -3.434  -0.715   0.001  1.00  0.00     0.186 HD
HETATM    6  C   UNK N   1      -3.840   1.369  -0.004  0.00  0.00     0.111 A 
HETATM    7  N   UNK N   1      -0.541   2.583  -0.009  0.00  0.00    -0.340 N 
ATOM      8  HN  UNK N   1      -0.503   3.602  -0.010  1.00  0.00     0.167 HD
HETATM    9  C   UNK N   1       0.613   1.843  -0.010  0.00  0.00     0.050 A 
HETATM   10  C   UNK N   1       0.536   0.437  -0.007  0.00  0.00     0.080 A 
HETATM   11  C   UNK N   1      -0.709  -0.182  -0.002  0.00  0.00     0.127 A 
ENDROOT
BRANCH  11  12
HETATM   12  N   UNK N   1      -0.770  -1.593   0.010  0.00  0.00    -0.370 N 
HETATM   13  H   UNK N   1       0.075  -2.097  -0.012  0.00  0.00     0.161 HD
BRANCH  12  14
HETATM   14  C   UNK N   1      -2.002  -2.332   0.054  0.00  0.00     0.160 C 
BRANCH  14  15
HETATM   15  C   UNK N   1      -1.748  -3.801   0.031  0.00  0.00    -0.038 A 
HETATM   16  C   UNK N   1      -0.448  -4.327   0.005  0.00  0.00     0.025 A 
HETATM   17  C   UNK N   1      -0.269  -5.709  -0.027  0.00  0.00     0.088 A 
HETATM   18  N   UNK N   1      -1.349  -6.535  -0.035  0.00  0.00    -0.375 N 
HETATM   19  C   UNK N   1      -2.619  -6.045  -0.009  0.00  0.00     0.088 A 
ATOM     20  HN  UNK N   1      -1.205  -7.544  -0.060  1.00  0.00     0.164 HD
HETATM   21  C   UNK N   1      -2.838  -4.668   0.025  0.00  0.00     0.025 A 
ENDBRANCH  14  15
ENDBRANCH  12  14
ENDBRANCH  11  12
BRANCH   9  22
HETATM   22  C   UNK N   1       1.948   2.490  -0.006  0.00  0.00     0.029 A 
HETATM   23  C   UNK N   1       2.104   3.892  -0.000  0.00  0.00     0.128 A 
HETATM   24  F   UNK N   1       1.030   4.720   0.001  0.00  0.00    -0.205 F 
HETATM   25  C   UNK N   1       3.387   4.451   0.005  0.00  0.00     0.043 A 
HETATM   26  C   UNK N   1       4.517   3.631   0.005  0.00  0.00     0.003 A 
HETATM   27  C   UNK N   1       4.372   2.244  -0.001  0.00  0.00     0.001 A 
HETATM   28  C   UNK N   1       3.098   1.680  -0.006  0.00  0.00     0.017 A 
ENDBRANCH   9  22
TORSDOF 4
