REMARK  4 active torsions:
REMARK  status: ('A' for Active; 'I' for Inactive)
REMARK    1  A    between atoms: C_9  and  C_13 
REMARK    2  A    between atoms: N_12  and  C_11 
REMARK    3  A    between atoms: N_12  and  C_14 
REMARK    4  A    between atoms: C_15  and  C_14 
ROOT
HETATM    1  C   UNK N   1      -3.456   1.963   0.049  0.00  0.00     0.073 A 
HETATM    2  C   UNK N   1      -2.168   1.488   0.076  0.00  0.00     0.148 A 
HETATM    3  N   UNK N   1      -2.188   0.203   0.445  0.00  0.00    -0.223 N 
HETATM    4  N   UNK N   1      -3.432  -0.179   0.673  0.00  0.00    -0.301 N 
ATOM      5  HN  UNK N   1      -3.729  -1.107   0.974  1.00  0.00     0.186 HD
HETATM    6  C   UNK N   1      -4.246   0.882   0.436  0.00  0.00     0.131 A 
HETATM    7  N   UNK N   1      -1.005   2.143  -0.191  0.00  0.00    -0.339 N 
ATOM      8  HN  UNK N   1      -1.009   3.131  -0.444  1.00  0.00     0.167 HD
HETATM    9  C   UNK N   1       0.174   1.443  -0.112  0.00  0.00     0.047 A 
HETATM   10  C   UNK N   1       0.157   0.087   0.252  0.00  0.00     0.080 A 
HETATM   11  C   UNK N   1      -1.046  -0.531   0.551  0.00  0.00     0.127 A 
HETATM   12 Br   UNK N   1      -4.067   3.709  -0.415  0.00  0.00    -0.045 Br
ENDROOT
BRANCH  11  13
HETATM   13  N   UNK N   1      -1.019  -1.876   0.981  0.00  0.00    -0.370 N 
HETATM   14  H   UNK N   1      -0.140  -2.316   1.040  0.00  0.00     0.161 HD
BRANCH  13  15
HETATM   15  C   UNK N   1      -2.172  -2.653   1.338  0.00  0.00     0.161 C 
BRANCH  15  16
HETATM   16  C   UNK N   1      -2.272  -3.824   0.424  0.00  0.00    -0.025 A 
HETATM   17  C   UNK N   1      -1.123  -4.500  -0.010  0.00  0.00     0.096 A 
HETATM   18  N   UNK N   1      -1.231  -5.558  -0.855  0.00  0.00    -0.375 N 
HETATM   19  C   UNK N   1      -2.444  -5.994  -1.289  0.00  0.00     0.087 A 
ATOM     20  HN  UNK N   1      -0.386  -6.035  -1.171  1.00  0.00     0.164 HD
HETATM   21  C   UNK N   1      -3.613  -5.352  -0.871  0.00  0.00     0.018 A 
HETATM   22  C   UNK N   1      -3.522  -4.256  -0.013  0.00  0.00     0.011 A 
ENDBRANCH  15  16
ENDBRANCH  13  15
ENDBRANCH  11  13
BRANCH   9  23
HETATM   23  C   UNK N   1       1.487   2.097  -0.272  0.00  0.00    -0.009 A 
HETATM   24  C   UNK N   1       1.612   3.489  -0.188  0.00  0.00     0.013 A 
HETATM   25  C   UNK N   1       2.881   4.079  -0.206  0.00  0.00     0.001 A 
HETATM   26  C   UNK N   1       4.027   3.285  -0.326  0.00  0.00     0.000 A 
HETATM   27  C   UNK N   1       3.908   1.899  -0.434  0.00  0.00     0.001 A 
HETATM   28  C   UNK N   1       2.646   1.308  -0.391  0.00  0.00     0.013 A 
ENDBRANCH   9  23
TORSDOF 4
