MODEL 1
REMARK VINA RESULT:      -7.2      0.000      0.000
REMARK  4 active torsions:
REMARK  status: ('A' for Active; 'I' for Inactive)
REMARK    1  A    between atoms: C_9  and  C_13 
REMARK    2  A    between atoms: N_12  and  C_11 
REMARK    3  A    between atoms: N_12  and  C_14 
REMARK    4  A    between atoms: C_15  and  C_14 
ROOT
HETATM    1  C   UNK N   1      36.207   9.433  12.498  0.00  0.00     0.073 A 
HETATM    2  C   UNK N   1      36.093  10.551  13.286  0.00  0.00     0.148 A 
HETATM    3  N   UNK N   1      36.369  11.631  12.548  0.00  0.00    -0.223 N 
HETATM    4  N   UNK N   1      36.671  11.267  11.315  0.00  0.00    -0.301 N 
ATOM      5  HN  UNK N   1      36.928  11.892  10.551  1.00  0.00     0.186 HD
HETATM    6  C   UNK N   1      36.579   9.914  11.243  0.00  0.00     0.131 A 
HETATM    7  N   UNK N   1      35.779  10.642  14.608  0.00  0.00    -0.339 N 
ATOM      8  HN  UNK N   1      35.599   9.804  15.160  1.00  0.00     0.167 HD
HETATM    9  C   UNK N   1      35.710  11.889  15.180  0.00  0.00     0.047 A 
HETATM   10  C   UNK N   1      35.975  13.028  14.404  0.00  0.00     0.080 A 
HETATM   11  C   UNK N   1      36.327  12.888  13.072  0.00  0.00     0.127 A 
HETATM   12 Br   UNK N   1      35.922   7.609  12.977  0.00  0.00    -0.045 Br
ENDROOT
BRANCH  11  13
HETATM   13  N   UNK N   1      36.656  14.050  12.340  0.00  0.00    -0.370 N 
HETATM   14  H   UNK N   1      37.349  13.969  11.646  0.00  0.00     0.161 HD
BRANCH  13  15
HETATM   15  C   UNK N   1      36.059  15.342  12.529  0.00  0.00     0.161 C 
BRANCH  15  16
HETATM   16  C   UNK N   1      35.214  15.666  11.347  0.00  0.00    -0.025 A 
HETATM   17  C   UNK N   1      35.324  16.904  10.699  0.00  0.00     0.096 A 
HETATM   18  N   UNK N   1      34.535  17.189   9.630  0.00  0.00    -0.375 N 
HETATM   19  C   UNK N   1      33.636  16.285   9.156  0.00  0.00     0.087 A 
ATOM     20  HN  UNK N   1      34.618  18.098   9.174  1.00  0.00     0.164 HD
HETATM   21  C   UNK N   1      33.504  15.036   9.769  0.00  0.00     0.018 A 
HETATM   22  C   UNK N   1      34.296  14.730  10.876  0.00  0.00     0.011 A 
ENDBRANCH  15  16
ENDBRANCH  13  15
ENDBRANCH  11  13
BRANCH   9  23
HETATM   23  C   UNK N   1      35.489  12.076  16.627  0.00  0.00    -0.009 A 
HETATM   24  C   UNK N   1      35.635  11.009  17.521  0.00  0.00     0.013 A 
HETATM   25  C   UNK N   1      35.556  11.236  18.900  0.00  0.00     0.001 A 
HETATM   26  C   UNK N   1      35.314  12.524  19.390  0.00  0.00     0.000 A 
HETATM   27  C   UNK N   1      35.144  13.588  18.503  0.00  0.00     0.001 A 
HETATM   28  C   UNK N   1      35.247  13.368  17.131  0.00  0.00     0.013 A 
ENDBRANCH   9  23
TORSDOF 4
ENDMDL
MODEL 2
REMARK VINA RESULT:      -7.2     21.027     24.287
REMARK  4 active torsions:
REMARK  status: ('A' for Active; 'I' for Inactive)
REMARK    1  A    between atoms: C_9  and  C_13 
REMARK    2  A    between atoms: N_12  and  C_11 
REMARK    3  A    between atoms: N_12  and  C_14 
REMARK    4  A    between atoms: C_15  and  C_14 
ROOT
HETATM    1  C   UNK N   1      26.796  22.712  -8.943  0.00  0.00     0.073 A 
HETATM    2  C   UNK N   1      27.057  23.084  -7.647  0.00  0.00     0.148 A 
HETATM    3  N   UNK N   1      26.118  23.949  -7.249  0.00  0.00    -0.223 N 
HETATM    4  N   UNK N   1      25.263  24.168  -8.232  0.00  0.00    -0.301 N 
ATOM      5  HN  UNK N   1      24.457  24.791  -8.198  1.00  0.00     0.186 HD
HETATM    6  C   UNK N   1      25.648  23.418  -9.297  0.00  0.00     0.131 A 
HETATM    7  N   UNK N   1      28.081  22.707  -6.834  0.00  0.00    -0.339 N 
ATOM      8  HN  UNK N   1      28.802  22.067  -7.167  1.00  0.00     0.167 HD
HETATM    9  C   UNK N   1      28.121  23.207  -5.556  0.00  0.00     0.047 A 
HETATM   10  C   UNK N   1      27.125  24.097  -5.124  0.00  0.00     0.080 A 
HETATM   11  C   UNK N   1      26.121  24.483  -5.996  0.00  0.00     0.127 A 
HETATM   12 Br   UNK N   1      27.767  21.495 -10.046  0.00  0.00    -0.045 Br
ENDROOT
BRANCH  11  13
HETATM   13  N   UNK N   1      25.176  25.434  -5.551  0.00  0.00    -0.370 N 
HETATM   14  H   UNK N   1      24.534  25.147  -4.861  0.00  0.00     0.161 HD
BRANCH  13  15
HETATM   15  C   UNK N   1      25.076  26.785  -6.025  0.00  0.00     0.161 C 
BRANCH  15  16
HETATM   16  C   UNK N   1      25.870  27.674  -5.133  0.00  0.00    -0.025 A 
HETATM   17  C   UNK N   1      25.619  27.723  -3.755  0.00  0.00     0.096 A 
HETATM   18  N   UNK N   1      26.343  28.550  -2.957  0.00  0.00    -0.375 N 
HETATM   19  C   UNK N   1      27.330  29.336  -3.466  0.00  0.00     0.087 A 
ATOM     20  HN  UNK N   1      26.144  28.583  -1.957  1.00  0.00     0.164 HD
HETATM   21  C   UNK N   1      27.616  29.308  -4.834  0.00  0.00     0.018 A 
HETATM   22  C   UNK N   1      26.875  28.475  -5.671  0.00  0.00     0.011 A 
ENDBRANCH  15  16
ENDBRANCH  13  15
ENDBRANCH  11  13
BRANCH   9  23
HETATM   23  C   UNK N   1      29.252  22.944  -4.645  0.00  0.00    -0.009 A 
HETATM   24  C   UNK N   1      29.437  23.711  -3.489  0.00  0.00     0.013 A 
HETATM   25  C   UNK N   1      30.433  23.360  -2.570  0.00  0.00     0.001 A 
HETATM   26  C   UNK N   1      31.257  22.255  -2.809  0.00  0.00     0.000 A 
HETATM   27  C   UNK N   1      31.092  21.500  -3.971  0.00  0.00     0.001 A 
HETATM   28  C   UNK N   1      30.085  21.833  -4.875  0.00  0.00     0.013 A 
ENDBRANCH   9  23
TORSDOF 4
ENDMDL
MODEL 3
REMARK VINA RESULT:      -7.0     15.799     18.902
REMARK  4 active torsions:
REMARK  status: ('A' for Active; 'I' for Inactive)
REMARK    1  A    between atoms: C_9  and  C_13 
REMARK    2  A    between atoms: N_12  and  C_11 
REMARK    3  A    between atoms: N_12  and  C_14 
REMARK    4  A    between atoms: C_15  and  C_14 
ROOT
HETATM    1  C   UNK N   1      20.152  16.349   6.200  0.00  0.00     0.073 A 
HETATM    2  C   UNK N   1      20.723  17.073   5.183  0.00  0.00     0.148 A 
HETATM    3  N   UNK N   1      19.932  17.006   4.107  0.00  0.00    -0.223 N 
HETATM    4  N   UNK N   1      18.876  16.258   4.372  0.00  0.00    -0.301 N 
ATOM      5  HN  UNK N   1      18.120  16.037   3.725  1.00  0.00     0.186 HD
HETATM    6  C   UNK N   1      18.975  15.835   5.659  0.00  0.00     0.131 A 
HETATM    7  N   UNK N   1      21.899  17.759   5.172  0.00  0.00    -0.339 N 
ATOM      8  HN  UNK N   1      22.501  17.775   5.995  1.00  0.00     0.167 HD
HETATM    9  C   UNK N   1      22.255  18.429   4.027  0.00  0.00     0.047 A 
HETATM   10  C   UNK N   1      21.417  18.381   2.901  0.00  0.00     0.080 A 
HETATM   11  C   UNK N   1      20.248  17.641   2.944  0.00  0.00     0.127 A 
HETATM   12 Br   UNK N   1      20.797  16.085   7.976  0.00  0.00    -0.045 Br
ENDROOT
BRANCH  11  13
HETATM   13  N   UNK N   1      19.464  17.557   1.772  0.00  0.00    -0.370 N 
HETATM   14  H   UNK N   1      18.534  17.875   1.824  0.00  0.00     0.161 HD
BRANCH  13  15
HETATM   15  C   UNK N   1      19.917  17.045   0.510  0.00  0.00     0.161 C 
BRANCH  15  16
HETATM   16  C   UNK N   1      19.827  15.559   0.527  0.00  0.00    -0.025 A 
HETATM   17  C   UNK N   1      18.637  14.905   0.182  0.00  0.00     0.096 A 
HETATM   18  N   UNK N   1      18.567  13.549   0.216  0.00  0.00    -0.375 N 
HETATM   19  C   UNK N   1      19.643  12.795   0.571  0.00  0.00     0.087 A 
ATOM     20  HN  UNK N   1      17.691  13.085  -0.028  1.00  0.00     0.164 HD
HETATM   21  C   UNK N   1      20.851  13.411   0.912  0.00  0.00     0.018 A 
HETATM   22  C   UNK N   1      20.938  14.803   0.895  0.00  0.00     0.011 A 
ENDBRANCH  15  16
ENDBRANCH  13  15
ENDBRANCH  11  13
BRANCH   9  23
HETATM   23  C   UNK N   1      23.561  19.101   3.886  0.00  0.00    -0.009 A 
HETATM   24  C   UNK N   1      24.709  18.579   4.495  0.00  0.00     0.013 A 
HETATM   25  C   UNK N   1      25.959  19.153   4.238  0.00  0.00     0.001 A 
HETATM   26  C   UNK N   1      26.067  20.259   3.388  0.00  0.00     0.000 A 
HETATM   27  C   UNK N   1      24.924  20.799   2.797  0.00  0.00     0.001 A 
HETATM   28  C   UNK N   1      23.681  20.213   3.032  0.00  0.00     0.013 A 
ENDBRANCH   9  23
TORSDOF 4
ENDMDL
MODEL 4
REMARK VINA RESULT:      -7.0      1.732      2.590
REMARK  4 active torsions:
REMARK  status: ('A' for Active; 'I' for Inactive)
REMARK    1  A    between atoms: C_9  and  C_13 
REMARK    2  A    between atoms: N_12  and  C_11 
REMARK    3  A    between atoms: N_12  and  C_14 
REMARK    4  A    between atoms: C_15  and  C_14 
ROOT
HETATM    1  C   UNK N   1      36.914  11.097  11.191  0.00  0.00     0.073 A 
HETATM    2  C   UNK N   1      36.662  12.211  11.953  0.00  0.00     0.148 A 
HETATM    3  N   UNK N   1      36.662  13.287  11.160  0.00  0.00    -0.223 N 
HETATM    4  N   UNK N   1      36.916  12.927   9.914  0.00  0.00    -0.301 N 
ATOM      5  HN  UNK N   1      36.981  13.551   9.110  1.00  0.00     0.186 HD
HETATM    6  C   UNK N   1      37.075  11.578   9.893  0.00  0.00     0.131 A 
HETATM    7  N   UNK N   1      36.455  12.305  13.295  0.00  0.00    -0.339 N 
ATOM      8  HN  UNK N   1      36.487  11.476  13.888  1.00  0.00     0.167 HD
HETATM    9  C   UNK N   1      36.203  13.543  13.834  0.00  0.00     0.047 A 
HETATM   10  C   UNK N   1      36.178  14.674  13.002  0.00  0.00     0.080 A 
HETATM   11  C   UNK N   1      36.430  14.538  11.646  0.00  0.00     0.127 A 
HETATM   12 Br   UNK N   1      37.024   9.277  11.751  0.00  0.00    -0.045 Br
ENDROOT
BRANCH  11  13
HETATM   13  N   UNK N   1      36.466  15.704  10.851  0.00  0.00    -0.370 N 
HETATM   14  H   UNK N   1      37.282  15.871  10.327  0.00  0.00     0.161 HD
BRANCH  13  15
HETATM   15  C   UNK N   1      35.406  16.667  10.749  0.00  0.00     0.161 C 
BRANCH  15  16
HETATM   16  C   UNK N   1      34.838  16.621   9.373  0.00  0.00    -0.025 A 
HETATM   17  C   UNK N   1      34.555  15.397   8.751  0.00  0.00     0.096 A 
HETATM   18  N   UNK N   1      34.049  15.372   7.491  0.00  0.00    -0.375 N 
HETATM   19  C   UNK N   1      33.795  16.521   6.809  0.00  0.00     0.087 A 
ATOM     20  HN  UNK N   1      33.857  14.474   7.046  1.00  0.00     0.164 HD
HETATM   21  C   UNK N   1      34.055  17.761   7.399  0.00  0.00     0.018 A 
HETATM   22  C   UNK N   1      34.585  17.807   8.688  0.00  0.00     0.011 A 
ENDBRANCH  15  16
ENDBRANCH  13  15
ENDBRANCH  11  13
BRANCH   9  23
HETATM   23  C   UNK N   1      36.081  13.756  15.289  0.00  0.00    -0.009 A 
HETATM   24  C   UNK N   1      36.844  14.733  15.939  0.00  0.00     0.013 A 
HETATM   25  C   UNK N   1      36.616  15.013  17.291  0.00  0.00     0.001 A 
HETATM   26  C   UNK N   1      35.640  14.306  18.003  0.00  0.00     0.000 A 
HETATM   27  C   UNK N   1      34.893  13.315  17.367  0.00  0.00     0.001 A 
HETATM   28  C   UNK N   1      35.101  13.053  16.014  0.00  0.00     0.013 A 
ENDBRANCH   9  23
TORSDOF 4
ENDMDL
MODEL 5
REMARK VINA RESULT:      -6.8      4.126      8.874
REMARK  4 active torsions:
REMARK  status: ('A' for Active; 'I' for Inactive)
REMARK    1  A    between atoms: C_9  and  C_13 
REMARK    2  A    between atoms: N_12  and  C_11 
REMARK    3  A    between atoms: N_12  and  C_14 
REMARK    4  A    between atoms: C_15  and  C_14 
ROOT
HETATM    1  C   UNK N   1      33.981  15.177   4.838  0.00  0.00     0.073 A 
HETATM    2  C   UNK N   1      33.532  15.789   5.982  0.00  0.00     0.148 A 
HETATM    3  N   UNK N   1      34.490  15.725   6.912  0.00  0.00    -0.223 N 
HETATM    4  N   UNK N   1      35.541  15.086   6.430  0.00  0.00    -0.301 N 
ATOM      5  HN  UNK N   1      36.407  14.891   6.933  1.00  0.00     0.186 HD
HETATM    6  C   UNK N   1      35.265  14.733   5.148  0.00  0.00     0.131 A 
HETATM    7  N   UNK N   1      32.327  16.372   6.227  0.00  0.00    -0.339 N 
ATOM      8  HN  UNK N   1      31.599  16.386   5.513  1.00  0.00     0.167 HD
HETATM    9  C   UNK N   1      32.113  16.941   7.459  0.00  0.00     0.047 A 
HETATM   10  C   UNK N   1      33.124  16.897   8.432  0.00  0.00     0.080 A 
HETATM   11  C   UNK N   1      34.323  16.262   8.152  0.00  0.00     0.127 A 
HETATM   12 Br   UNK N   1      33.077  14.965   3.172  0.00  0.00    -0.045 Br
ENDROOT
BRANCH  11  13
HETATM   13  N   UNK N   1      35.291  16.176   9.177  0.00  0.00    -0.370 N 
HETATM   14  H   UNK N   1      36.195  15.881   8.924  0.00  0.00     0.161 HD
BRANCH  13  15
HETATM   15  C   UNK N   1      35.059  16.483  10.560  0.00  0.00     0.161 C 
BRANCH  15  16
HETATM   16  C   UNK N   1      35.161  15.232  11.361  0.00  0.00    -0.025 A 
HETATM   17  C   UNK N   1      34.422  14.092  11.014  0.00  0.00     0.096 A 
HETATM   18  N   UNK N   1      34.516  12.963  11.764  0.00  0.00    -0.375 N 
HETATM   19  C   UNK N   1      35.329  12.904  12.852  0.00  0.00     0.087 A 
ATOM     20  HN  UNK N   1      33.965  12.144  11.506  1.00  0.00     0.164 HD
HETATM   21  C   UNK N   1      36.089  14.016  13.224  0.00  0.00     0.018 A 
HETATM   22  C   UNK N   1      35.997  15.189  12.474  0.00  0.00     0.011 A 
ENDBRANCH  15  16
ENDBRANCH  13  15
ENDBRANCH  11  13
BRANCH   9  23
HETATM   23  C   UNK N   1      30.802  17.491   7.853  0.00  0.00    -0.009 A 
HETATM   24  C   UNK N   1      29.642  17.165   7.140  0.00  0.00     0.013 A 
HETATM   25  C   UNK N   1      28.392  17.586   7.609  0.00  0.00     0.001 A 
HETATM   26  C   UNK N   1      28.297  18.349   8.778  0.00  0.00     0.000 A 
HETATM   27  C   UNK N   1      29.451  18.698   9.480  0.00  0.00     0.001 A 
HETATM   28  C   UNK N   1      30.695  18.258   9.028  0.00  0.00     0.013 A 
ENDBRANCH   9  23
TORSDOF 4
ENDMDL
MODEL 6
REMARK VINA RESULT:      -6.8     13.127     15.693
REMARK  4 active torsions:
REMARK  status: ('A' for Active; 'I' for Inactive)
REMARK    1  A    between atoms: C_9  and  C_13 
REMARK    2  A    between atoms: N_12  and  C_11 
REMARK    3  A    between atoms: N_12  and  C_14 
REMARK    4  A    between atoms: C_15  and  C_14 
ROOT
HETATM    1  C   UNK N   1      25.649  15.721   5.381  0.00  0.00     0.073 A 
HETATM    2  C   UNK N   1      24.451  15.514   6.018  0.00  0.00     0.148 A 
HETATM    3  N   UNK N   1      23.553  16.385   5.546  0.00  0.00    -0.223 N 
HETATM    4  N   UNK N   1      24.116  17.161   4.637  0.00  0.00    -0.301 N 
ATOM      5  HN  UNK N   1      23.658  17.915   4.125  1.00  0.00     0.186 HD
HETATM    6  C   UNK N   1      25.413  16.779   4.505  0.00  0.00     0.131 A 
HETATM    7  N   UNK N   1      24.139  14.614   6.991  0.00  0.00    -0.339 N 
ATOM      8  HN  UNK N   1      24.846  13.976   7.357  1.00  0.00     0.167 HD
HETATM    9  C   UNK N   1      22.852  14.584   7.468  0.00  0.00     0.047 A 
HETATM   10  C   UNK N   1      21.899  15.481   6.959  0.00  0.00     0.080 A 
HETATM   11  C   UNK N   1      22.268  16.405   5.995  0.00  0.00     0.127 A 
HETATM   12 Br   UNK N   1      27.294  14.784   5.613  0.00  0.00    -0.045 Br
ENDROOT
BRANCH  11  13
HETATM   13  N   UNK N   1      21.302  17.338   5.557  0.00  0.00    -0.370 N 
HETATM   14  H   UNK N   1      21.271  18.208   6.016  0.00  0.00     0.161 HD
BRANCH  13  15
HETATM   15  C   UNK N   1      20.361  17.116   4.496  0.00  0.00     0.161 C 
BRANCH  15  16
HETATM   16  C   UNK N   1      20.532  18.176   3.465  0.00  0.00    -0.025 A 
HETATM   17  C   UNK N   1      19.927  18.060   2.205  0.00  0.00     0.096 A 
HETATM   18  N   UNK N   1      20.104  19.030   1.270  0.00  0.00    -0.375 N 
HETATM   19  C   UNK N   1      20.855  20.134   1.532  0.00  0.00     0.087 A 
ATOM     20  HN  UNK N   1      19.667  18.929   0.354  1.00  0.00     0.164 HD
HETATM   21  C   UNK N   1      21.466  20.290   2.779  0.00  0.00     0.018 A 
HETATM   22  C   UNK N   1      21.306  19.299   3.748  0.00  0.00     0.011 A 
ENDBRANCH  15  16
ENDBRANCH  13  15
ENDBRANCH  11  13
BRANCH   9  23
HETATM   23  C   UNK N   1      22.453  13.724   8.598  0.00  0.00    -0.009 A 
HETATM   24  C   UNK N   1      23.379  12.875   9.217  0.00  0.00     0.013 A 
HETATM   25  C   UNK N   1      23.019  12.170  10.371  0.00  0.00     0.001 A 
HETATM   26  C   UNK N   1      21.729  12.295  10.901  0.00  0.00     0.000 A 
HETATM   27  C   UNK N   1      20.795  13.121  10.275  0.00  0.00     0.001 A 
HETATM   28  C   UNK N   1      21.160  13.843   9.140  0.00  0.00     0.013 A 
ENDBRANCH   9  23
TORSDOF 4
ENDMDL
MODEL 7
REMARK VINA RESULT:      -6.7      6.563     11.570
REMARK  4 active torsions:
REMARK  status: ('A' for Active; 'I' for Inactive)
REMARK    1  A    between atoms: C_9  and  C_13 
REMARK    2  A    between atoms: N_12  and  C_11 
REMARK    3  A    between atoms: N_12  and  C_14 
REMARK    4  A    between atoms: C_15  and  C_14 
ROOT
HETATM    1  C   UNK N   1      28.559  14.008   4.127  0.00  0.00     0.073 A 
HETATM    2  C   UNK N   1      28.898  15.196   4.726  0.00  0.00     0.148 A 
HETATM    3  N   UNK N   1      30.004  15.014   5.455  0.00  0.00    -0.223 N 
HETATM    4  N   UNK N   1      30.396  13.755   5.368  0.00  0.00    -0.301 N 
ATOM      5  HN  UNK N   1      31.206  13.346   5.832  1.00  0.00     0.186 HD
HETATM    6  C   UNK N   1      29.528  13.102   4.553  0.00  0.00     0.131 A 
HETATM    7  N   UNK N   1      28.266  16.401   4.665  0.00  0.00    -0.339 N 
ATOM      8  HN  UNK N   1      27.407  16.512   4.126  1.00  0.00     0.167 HD
HETATM    9  C   UNK N   1      28.811  17.462   5.345  0.00  0.00     0.047 A 
HETATM   10  C   UNK N   1      29.986  17.282   6.092  0.00  0.00     0.080 A 
HETATM   11  C   UNK N   1      30.576  16.030   6.158  0.00  0.00     0.127 A 
HETATM   12 Br   UNK N   1      27.095  13.643   2.961  0.00  0.00    -0.045 Br
ENDROOT
BRANCH  11  13
HETATM   13  N   UNK N   1      31.717  15.870   6.975  0.00  0.00    -0.370 N 
HETATM   14  H   UNK N   1      32.056  14.954   7.106  0.00  0.00     0.161 HD
BRANCH  13  15
HETATM   15  C   UNK N   1      32.421  16.935   7.630  0.00  0.00     0.161 C 
BRANCH  15  16
HETATM   16  C   UNK N   1      33.159  16.384   8.800  0.00  0.00    -0.025 A 
HETATM   17  C   UNK N   1      32.652  15.296   9.524  0.00  0.00     0.096 A 
HETATM   18  N   UNK N   1      33.330  14.814  10.598  0.00  0.00    -0.375 N 
HETATM   19  C   UNK N   1      34.513  15.360  10.988  0.00  0.00     0.087 A 
ATOM     20  HN  UNK N   1      32.946  14.028  11.122  1.00  0.00     0.164 HD
HETATM   21  C   UNK N   1      35.055  16.440  10.286  0.00  0.00     0.018 A 
HETATM   22  C   UNK N   1      34.367  16.957   9.188  0.00  0.00     0.011 A 
ENDBRANCH  15  16
ENDBRANCH  13  15
ENDBRANCH  11  13
BRANCH   9  23
HETATM   23  C   UNK N   1      28.135  18.771   5.428  0.00  0.00    -0.009 A 
HETATM   24  C   UNK N   1      27.617  19.387   4.283  0.00  0.00     0.013 A 
HETATM   25  C   UNK N   1      26.862  20.559   4.401  0.00  0.00     0.001 A 
HETATM   26  C   UNK N   1      26.637  21.130   5.658  0.00  0.00     0.000 A 
HETATM   27  C   UNK N   1      27.171  20.535   6.802  0.00  0.00     0.001 A 
HETATM   28  C   UNK N   1      27.902  19.353   6.688  0.00  0.00     0.013 A 
ENDBRANCH   9  23
TORSDOF 4
ENDMDL
MODEL 8
REMARK VINA RESULT:      -6.7      8.682     12.524
REMARK  4 active torsions:
REMARK  status: ('A' for Active; 'I' for Inactive)
REMARK    1  A    between atoms: C_9  and  C_13 
REMARK    2  A    between atoms: N_12  and  C_11 
REMARK    3  A    between atoms: N_12  and  C_14 
REMARK    4  A    between atoms: C_15  and  C_14 
ROOT
HETATM    1  C   UNK N   1      27.539  14.937   2.234  0.00  0.00     0.073 A 
HETATM    2  C   UNK N   1      28.127  15.870   3.052  0.00  0.00     0.148 A 
HETATM    3  N   UNK N   1      29.408  15.536   3.239  0.00  0.00    -0.223 N 
HETATM    4  N   UNK N   1      29.680  14.419   2.589  0.00  0.00    -0.301 N 
ATOM      5  HN  UNK N   1      30.581  13.940   2.569  1.00  0.00     0.186 HD
HETATM    6  C   UNK N   1      28.549  14.018   1.953  0.00  0.00     0.131 A 
HETATM    7  N   UNK N   1      27.575  16.968   3.637  0.00  0.00    -0.339 N 
ATOM      8  HN  UNK N   1      26.589  17.190   3.504  1.00  0.00     0.167 HD
HETATM    9  C   UNK N   1      28.378  17.771   4.410  0.00  0.00     0.047 A 
HETATM   10  C   UNK N   1      29.730  17.439   4.590  0.00  0.00     0.080 A 
HETATM   11  C   UNK N   1      30.241  16.292   4.007  0.00  0.00     0.127 A 
HETATM   12 Br   UNK N   1      25.742  14.880   1.598  0.00  0.00    -0.045 Br
ENDROOT
BRANCH  11  13
HETATM   13  N   UNK N   1      31.587  15.951   4.267  0.00  0.00    -0.370 N 
HETATM   14  H   UNK N   1      32.268  16.275   3.633  0.00  0.00     0.161 HD
BRANCH  13  15
HETATM   15  C   UNK N   1      32.041  15.167   5.381  0.00  0.00     0.161 C 
BRANCH  15  16
HETATM   16  C   UNK N   1      32.461  16.081   6.479  0.00  0.00    -0.025 A 
HETATM   17  C   UNK N   1      31.911  15.964   7.763  0.00  0.00     0.096 A 
HETATM   18  N   UNK N   1      32.295  16.815   8.750  0.00  0.00    -0.375 N 
HETATM   19  C   UNK N   1      33.222  17.784   8.526  0.00  0.00     0.087 A 
ATOM     20  HN  UNK N   1      31.879  16.725   9.678  1.00  0.00     0.164 HD
HETATM   21  C   UNK N   1      33.800  17.925   7.262  0.00  0.00     0.018 A 
HETATM   22  C   UNK N   1      33.410  17.070   6.232  0.00  0.00     0.011 A 
ENDBRANCH  15  16
ENDBRANCH  13  15
ENDBRANCH  11  13
BRANCH   9  23
HETATM   23  C   UNK N   1      27.841  18.915   5.173  0.00  0.00    -0.009 A 
HETATM   24  C   UNK N   1      27.946  18.960   6.568  0.00  0.00     0.013 A 
HETATM   25  C   UNK N   1      27.555  20.112   7.261  0.00  0.00     0.001 A 
HETATM   26  C   UNK N   1      27.043  21.213   6.567  0.00  0.00     0.000 A 
HETATM   27  C   UNK N   1      26.914  21.165   5.178  0.00  0.00     0.001 A 
HETATM   28  C   UNK N   1      27.326  20.028   4.485  0.00  0.00     0.013 A 
ENDBRANCH   9  23
TORSDOF 4
ENDMDL
MODEL 9
REMARK VINA RESULT:      -6.7     13.615     16.589
REMARK  4 active torsions:
REMARK  status: ('A' for Active; 'I' for Inactive)
REMARK    1  A    between atoms: C_9  and  C_13 
REMARK    2  A    between atoms: N_12  and  C_11 
REMARK    3  A    between atoms: N_12  and  C_14 
REMARK    4  A    between atoms: C_15  and  C_14 
ROOT
HETATM    1  C   UNK N   1      23.704  14.194   6.954  0.00  0.00     0.073 A 
HETATM    2  C   UNK N   1      23.731  15.268   6.099  0.00  0.00     0.148 A 
HETATM    3  N   UNK N   1      22.581  15.309   5.418  0.00  0.00    -0.223 N 
HETATM    4  N   UNK N   1      21.809  14.301   5.781  0.00  0.00    -0.301 N 
ATOM      5  HN  UNK N   1      20.881  14.093   5.413  1.00  0.00     0.186 HD
HETATM    6  C   UNK N   1      22.468  13.589   6.732  0.00  0.00     0.131 A 
HETATM    7  N   UNK N   1      24.722  16.179   5.895  0.00  0.00    -0.339 N 
ATOM      8  HN  UNK N   1      25.603  16.114   6.405  1.00  0.00     0.167 HD
HETATM    9  C   UNK N   1      24.509  17.187   4.987  0.00  0.00     0.047 A 
HETATM   10  C   UNK N   1      23.293  17.249   4.287  0.00  0.00     0.080 A 
HETATM   11  C   UNK N   1      22.326  16.280   4.498  0.00  0.00     0.127 A 
HETATM   12 Br   UNK N   1      25.042  13.627   8.189  0.00  0.00    -0.045 Br
ENDROOT
BRANCH  11  13
HETATM   13  N   UNK N   1      21.145  16.333   3.726  0.00  0.00    -0.370 N 
HETATM   14  H   UNK N   1      21.042  15.666   3.009  0.00  0.00     0.161 HD
BRANCH  13  15
HETATM   15  C   UNK N   1      20.084  17.283   3.903  0.00  0.00     0.161 C 
BRANCH  15  16
HETATM   16  C   UNK N   1      20.322  18.452   3.011  0.00  0.00    -0.025 A 
HETATM   17  C   UNK N   1      20.203  18.332   1.619  0.00  0.00     0.096 A 
HETATM   18  N   UNK N   1      20.438  19.405   0.819  0.00  0.00    -0.375 N 
HETATM   19  C   UNK N   1      20.779  20.614   1.341  0.00  0.00     0.087 A 
ATOM     20  HN  UNK N   1      20.357  19.302  -0.193  1.00  0.00     0.164 HD
HETATM   21  C   UNK N   1      20.899  20.774   2.724  0.00  0.00     0.018 A 
HETATM   22  C   UNK N   1      20.674  19.682   3.562  0.00  0.00     0.011 A 
ENDBRANCH  15  16
ENDBRANCH  13  15
ENDBRANCH  11  13
BRANCH   9  23
HETATM   23  C   UNK N   1      25.566  18.148   4.619  0.00  0.00    -0.009 A 
HETATM   24  C   UNK N   1      25.303  19.202   3.735  0.00  0.00     0.013 A 
HETATM   25  C   UNK N   1      26.278  20.180   3.505  0.00  0.00     0.001 A 
HETATM   26  C   UNK N   1      27.522  20.100   4.140  0.00  0.00     0.000 A 
HETATM   27  C   UNK N   1      27.799  19.039   5.003  0.00  0.00     0.001 A 
HETATM   28  C   UNK N   1      26.820  18.078   5.253  0.00  0.00     0.013 A 
ENDBRANCH   9  23
TORSDOF 4
ENDMDL
