MODEL 1
REMARK VINA RESULT:      -7.4      0.000      0.000
REMARK  4 active torsions:
REMARK  status: ('A' for Active; 'I' for Inactive)
REMARK    1  A    between atoms: C_8  and  C_12 
REMARK    2  A    between atoms: N_11  and  C_10 
REMARK    3  A    between atoms: N_11  and  C_13 
REMARK    4  A    between atoms: C_14  and  C_13 
ROOT
HETATM    1  C   UNK N   1      36.070   9.453  12.542  0.00  0.00     0.056 A 
HETATM    2  C   UNK N   1      36.089  10.551  13.366  0.00  0.00     0.078 A 
HETATM    3  N   UNK N   1      36.398  11.630  12.633  0.00  0.00    -0.239 N 
HETATM    4  N   UNK N   1      36.574  11.276  11.370  0.00  0.00    -0.302 N 
ATOM      5  HN  UNK N   1      36.813  11.901  10.600  1.00  0.00     0.186 HD
HETATM    6  C   UNK N   1      36.380   9.937  11.276  0.00  0.00     0.129 A 
HETATM    7  C   UNK N   1      35.840  10.645  14.737  0.00  0.00     0.045 A 
HETATM    8  C   UNK N   1      35.937  11.920  15.336  0.00  0.00    -0.020 A 
HETATM    9  C   UNK N   1      36.268  13.032  14.539  0.00  0.00     0.062 A 
HETATM   10  C   UNK N   1      36.494  12.881  13.170  0.00  0.00     0.124 A 
HETATM   11 Br   UNK N   1      35.698   7.641  13.011  0.00  0.00    -0.047 Br
ENDROOT
BRANCH  10  12
HETATM   12  N   UNK N   1      36.805  14.032  12.407  0.00  0.00    -0.370 N 
HETATM   13  H   UNK N   1      37.474  13.939  11.692  0.00  0.00     0.161 HD
BRANCH  12  14
HETATM   14  C   UNK N   1      36.216  15.331  12.601  0.00  0.00     0.162 C 
BRANCH  14  15
HETATM   15  C   UNK N   1      35.249  15.610  11.497  0.00  0.00    -0.010 A 
HETATM   16  C   UNK N   1      35.347  16.767  10.717  0.00  0.00     0.099 A 
HETATM   17  N   UNK N   1      34.466  16.980   9.706  0.00  0.00    -0.361 N 
HETATM   18  C   UNK N   1      33.480  16.084   9.446  0.00  0.00     0.180 A 
ATOM     19  HN  UNK N   1      34.546  17.823   9.137  1.00  0.00     0.166 HD
HETATM   20  N   UNK N   1      33.363  14.956  10.200  0.00  0.00    -0.361 N 
HETATM   21  C   UNK N   1      34.231  14.704  11.215  0.00  0.00     0.099 A 
ATOM     22  HN  UNK N   1      32.615  14.292  10.000  1.00  0.00     0.166 HD
ENDBRANCH  14  15
ENDBRANCH  12  14
ENDBRANCH  10  12
BRANCH   8  23
HETATM   23  C   UNK N   1      35.661  12.124  16.777  0.00  0.00    -0.026 A 
HETATM   24  C   UNK N   1      35.347  13.397  17.280  0.00  0.00     0.012 A 
HETATM   25  C   UNK N   1      35.135  13.580  18.649  0.00  0.00     0.001 A 
HETATM   26  C   UNK N   1      35.222  12.494  19.526  0.00  0.00     0.000 A 
HETATM   27  C   UNK N   1      35.523  11.223  19.034  0.00  0.00     0.001 A 
HETATM   28  C   UNK N   1      35.748  11.040  17.668  0.00  0.00     0.012 A 
ENDBRANCH   8  23
TORSDOF 4
ENDMDL
MODEL 2
REMARK VINA RESULT:      -7.0     21.215     24.320
REMARK  4 active torsions:
REMARK  status: ('A' for Active; 'I' for Inactive)
REMARK    1  A    between atoms: C_8  and  C_12 
REMARK    2  A    between atoms: N_11  and  C_10 
REMARK    3  A    between atoms: N_11  and  C_13 
REMARK    4  A    between atoms: C_14  and  C_13 
ROOT
HETATM    1  C   UNK N   1      26.761  22.676  -8.928  0.00  0.00     0.056 A 
HETATM    2  C   UNK N   1      27.068  23.055  -7.644  0.00  0.00     0.078 A 
HETATM    3  N   UNK N   1      26.144  23.930  -7.225  0.00  0.00    -0.239 N 
HETATM    4  N   UNK N   1      25.250  24.127  -8.180  0.00  0.00    -0.302 N 
ATOM      5  HN  UNK N   1      24.438  24.743  -8.123  1.00  0.00     0.186 HD
HETATM    6  C   UNK N   1      25.600  23.369  -9.249  0.00  0.00     0.129 A 
HETATM    7  C   UNK N   1      28.126  22.658  -6.824  0.00  0.00     0.045 A 
HETATM    8  C   UNK N   1      28.202  23.221  -5.531  0.00  0.00    -0.020 A 
HETATM    9  C   UNK N   1      27.218  24.142  -5.123  0.00  0.00     0.062 A 
HETATM   10  C   UNK N   1      26.174  24.491  -5.981  0.00  0.00     0.124 A 
HETATM   11 Br   UNK N   1      27.708  21.457 -10.050  0.00  0.00    -0.047 Br
ENDROOT
BRANCH  10  12
HETATM   12  N   UNK N   1      25.198  25.406  -5.517  0.00  0.00    -0.370 N 
HETATM   13  H   UNK N   1      24.544  25.080  -4.858  0.00  0.00     0.161 HD
BRANCH  12  14
HETATM   14  C   UNK N   1      25.091  26.778  -5.938  0.00  0.00     0.162 C 
BRANCH  14  15
HETATM   15  C   UNK N   1      25.895  27.644  -5.023  0.00  0.00    -0.010 A 
HETATM   16  C   UNK N   1      25.659  27.663  -3.644  0.00  0.00     0.099 A 
HETATM   17  N   UNK N   1      26.422  28.443  -2.836  0.00  0.00    -0.361 N 
HETATM   18  C   UNK N   1      27.411  29.218  -3.354  0.00  0.00     0.180 A 
ATOM     19  HN  UNK N   1      26.250  28.448  -1.831  1.00  0.00     0.166 HD
HETATM   20  N   UNK N   1      27.649  29.220  -4.693  0.00  0.00    -0.361 N 
HETATM   21  C   UNK N   1      26.912  28.445  -5.533  0.00  0.00     0.099 A 
ATOM     22  HN  UNK N   1      28.390  29.809  -5.073  1.00  0.00     0.166 HD
ENDBRANCH  14  15
ENDBRANCH  12  14
ENDBRANCH  10  12
BRANCH   8  23
HETATM   23  C   UNK N   1      29.270  22.840  -4.579  0.00  0.00    -0.026 A 
HETATM   24  C   UNK N   1      29.498  23.586  -3.412  0.00  0.00     0.012 A 
HETATM   25  C   UNK N   1      30.540  23.239  -2.546  0.00  0.00     0.001 A 
HETATM   26  C   UNK N   1      31.355  22.139  -2.833  0.00  0.00     0.000 A 
HETATM   27  C   UNK N   1      31.129  21.385  -3.985  0.00  0.00     0.001 A 
HETATM   28  C   UNK N   1      30.097  21.737  -4.857  0.00  0.00     0.012 A 
ENDBRANCH   8  23
TORSDOF 4
ENDMDL
MODEL 3
REMARK VINA RESULT:      -6.8      1.499      2.245
REMARK  4 active torsions:
REMARK  status: ('A' for Active; 'I' for Inactive)
REMARK    1  A    between atoms: C_8  and  C_12 
REMARK    2  A    between atoms: N_11  and  C_10 
REMARK    3  A    between atoms: N_11  and  C_13 
REMARK    4  A    between atoms: C_14  and  C_13 
ROOT
HETATM    1  C   UNK N   1      36.049   7.550  13.956  0.00  0.00     0.056 A 
HETATM    2  C   UNK N   1      35.968   8.876  14.307  0.00  0.00     0.078 A 
HETATM    3  N   UNK N   1      36.044   9.617  13.193  0.00  0.00    -0.239 N 
HETATM    4  N   UNK N   1      36.165   8.828  12.138  0.00  0.00    -0.302 N 
ATOM      5  HN  UNK N   1      36.239   9.133  11.167  1.00  0.00     0.186 HD
HETATM    6  C   UNK N   1      36.172   7.543  12.571  0.00  0.00     0.129 A 
HETATM    7  C   UNK N   1      35.824   9.460  15.567  0.00  0.00     0.045 A 
HETATM    8  C   UNK N   1      35.774  10.869  15.635  0.00  0.00    -0.020 A 
HETATM    9  C   UNK N   1      35.862  11.619  14.447  0.00  0.00     0.062 A 
HETATM   10  C   UNK N   1      35.991  10.981  13.213  0.00  0.00     0.124 A 
HETATM   11 Br   UNK N   1      36.001   6.027  15.105  0.00  0.00    -0.047 Br
ENDROOT
BRANCH  10  12
HETATM   12  N   UNK N   1      36.056  11.779  12.045  0.00  0.00    -0.370 N 
HETATM   13  H   UNK N   1      36.943  11.937  11.650  0.00  0.00     0.161 HD
BRANCH  12  14
HETATM   14  C   UNK N   1      34.921  12.377  11.393  0.00  0.00     0.162 C 
BRANCH  14  15
HETATM   15  C   UNK N   1      35.174  13.835  11.190  0.00  0.00    -0.010 A 
HETATM   16  C   UNK N   1      34.133  14.721  10.896  0.00  0.00     0.099 A 
HETATM   17  N   UNK N   1      34.392  16.045  10.739  0.00  0.00    -0.361 N 
HETATM   18  C   UNK N   1      35.659  16.521  10.856  0.00  0.00     0.180 A 
ATOM     19  HN  UNK N   1      33.628  16.687  10.531  1.00  0.00     0.166 HD
HETATM   20  N   UNK N   1      36.686  15.673  11.134  0.00  0.00    -0.361 N 
HETATM   21  C   UNK N   1      36.465  14.343  11.306  0.00  0.00     0.099 A 
ATOM     22  HN  UNK N   1      37.634  16.040  11.214  1.00  0.00     0.166 HD
ENDBRANCH  14  15
ENDBRANCH  12  14
ENDBRANCH  10  12
BRANCH   8  23
HETATM   23  C   UNK N   1      35.592  11.579  16.923  0.00  0.00    -0.026 A 
HETATM   24  C   UNK N   1      35.626  10.883  18.142  0.00  0.00     0.012 A 
HETATM   25  C   UNK N   1      35.407  11.562  19.345  0.00  0.00     0.001 A 
HETATM   26  C   UNK N   1      35.165  12.938  19.342  0.00  0.00     0.000 A 
HETATM   27  C   UNK N   1      35.141  13.640  18.136  0.00  0.00     0.001 A 
HETATM   28  C   UNK N   1      35.346  12.963  16.932  0.00  0.00     0.012 A 
ENDBRANCH   8  23
TORSDOF 4
ENDMDL
MODEL 4
REMARK VINA RESULT:      -6.6     19.663     23.484
REMARK  4 active torsions:
REMARK  status: ('A' for Active; 'I' for Inactive)
REMARK    1  A    between atoms: C_8  and  C_12 
REMARK    2  A    between atoms: N_11  and  C_10 
REMARK    3  A    between atoms: N_11  and  C_13 
REMARK    4  A    between atoms: C_14  and  C_13 
ROOT
HETATM    1  C   UNK N   1      27.331  21.456  -8.125  0.00  0.00     0.056 A 
HETATM    2  C   UNK N   1      27.525  22.384  -7.130  0.00  0.00     0.078 A 
HETATM    3  N   UNK N   1      28.663  22.088  -6.486  0.00  0.00    -0.239 N 
HETATM    4  N   UNK N   1      29.214  21.014  -7.026  0.00  0.00    -0.302 N 
ATOM      5  HN  UNK N   1      30.087  20.576  -6.730  1.00  0.00     0.186 HD
HETATM    6  C   UNK N   1      28.418  20.595  -8.041  0.00  0.00     0.129 A 
HETATM    7  C   UNK N   1      26.744  23.484  -6.770  0.00  0.00     0.045 A 
HETATM    8  C   UNK N   1      27.186  24.276  -5.688  0.00  0.00    -0.020 A 
HETATM    9  C   UNK N   1      28.383  23.936  -5.029  0.00  0.00     0.062 A 
HETATM   10  C   UNK N   1      29.130  22.832  -5.442  0.00  0.00     0.124 A 
HETATM   11 Br   UNK N   1      25.887  21.354  -9.368  0.00  0.00    -0.047 Br
ENDROOT
BRANCH  10  12
HETATM   12  N   UNK N   1      30.337  22.542  -4.760  0.00  0.00    -0.370 N 
HETATM   13  H   UNK N   1      31.130  23.078  -4.990  0.00  0.00     0.161 HD
BRANCH  12  14
HETATM   14  C   UNK N   1      30.490  21.522  -3.757  0.00  0.00     0.162 C 
BRANCH  14  15
HETATM   15  C   UNK N   1      31.837  20.890  -3.891  0.00  0.00    -0.010 A 
HETATM   16  C   UNK N   1      32.086  19.902  -4.850  0.00  0.00     0.099 A 
HETATM   17  N   UNK N   1      33.328  19.363  -4.962  0.00  0.00    -0.361 N 
HETATM   18  C   UNK N   1      34.334  19.766  -4.144  0.00  0.00     0.180 A 
ATOM     19  HN  UNK N   1      33.505  18.648  -5.667  1.00  0.00     0.166 HD
HETATM   20  N   UNK N   1      34.109  20.719  -3.199  0.00  0.00    -0.361 N 
HETATM   21  C   UNK N   1      32.882  21.288  -3.062  0.00  0.00     0.099 A 
ATOM     22  HN  UNK N   1      34.870  21.010  -2.586  1.00  0.00     0.166 HD
ENDBRANCH  14  15
ENDBRANCH  12  14
ENDBRANCH  10  12
BRANCH   8  23
HETATM   23  C   UNK N   1      26.442  25.480  -5.251  0.00  0.00    -0.026 A 
HETATM   24  C   UNK N   1      25.442  26.044  -6.059  0.00  0.00     0.012 A 
HETATM   25  C   UNK N   1      24.780  27.207  -5.652  0.00  0.00     0.001 A 
HETATM   26  C   UNK N   1      25.103  27.809  -4.432  0.00  0.00     0.000 A 
HETATM   27  C   UNK N   1      26.089  27.249  -3.617  0.00  0.00     0.001 A 
HETATM   28  C   UNK N   1      26.759  26.096  -4.027  0.00  0.00     0.012 A 
ENDBRANCH   8  23
TORSDOF 4
ENDMDL
MODEL 5
REMARK VINA RESULT:      -6.6     20.375     25.432
REMARK  4 active torsions:
REMARK  status: ('A' for Active; 'I' for Inactive)
REMARK    1  A    between atoms: C_8  and  C_12 
REMARK    2  A    between atoms: N_11  and  C_10 
REMARK    3  A    between atoms: N_11  and  C_13 
REMARK    4  A    between atoms: C_14  and  C_13 
ROOT
HETATM    1  C   UNK N   1      25.621  24.913  -9.746  0.00  0.00     0.056 A 
HETATM    2  C   UNK N   1      26.104  25.225  -8.499  0.00  0.00     0.078 A 
HETATM    3  N   UNK N   1      26.642  24.121  -7.961  0.00  0.00    -0.239 N 
HETATM    4  N   UNK N   1      26.533  23.112  -8.810  0.00  0.00    -0.302 N 
ATOM      5  HN  UNK N   1      26.863  22.159  -8.653  1.00  0.00     0.186 HD
HETATM    6  C   UNK N   1      25.906  23.564  -9.924  0.00  0.00     0.129 A 
HETATM    7  C   UNK N   1      26.096  26.443  -7.816  0.00  0.00     0.045 A 
HETATM    8  C   UNK N   1      26.665  26.474  -6.524  0.00  0.00    -0.020 A 
HETATM    9  C   UNK N   1      27.217  25.297  -5.986  0.00  0.00     0.062 A 
HETATM   10  C   UNK N   1      27.210  24.110  -6.720  0.00  0.00     0.124 A 
HETATM   11 Br   UNK N   1      24.747  26.068 -10.988  0.00  0.00    -0.047 Br
ENDROOT
BRANCH  10  12
HETATM   12  N   UNK N   1      27.795  22.957  -6.143  0.00  0.00    -0.370 N 
HETATM   13  H   UNK N   1      27.244  22.427  -5.524  0.00  0.00     0.161 HD
BRANCH  12  14
HETATM   14  C   UNK N   1      29.138  22.503  -6.394  0.00  0.00     0.162 C 
BRANCH  14  15
HETATM   15  C   UNK N   1      29.864  22.354  -5.097  0.00  0.00    -0.010 A 
HETATM   16  C   UNK N   1      30.374  21.119  -4.685  0.00  0.00     0.099 A 
HETATM   17  N   UNK N   1      31.050  21.022  -3.511  0.00  0.00    -0.361 N 
HETATM   18  C   UNK N   1      31.230  22.113  -2.723  0.00  0.00     0.180 A 
ATOM     19  HN  UNK N   1      31.425  20.120  -3.218  1.00  0.00     0.166 HD
HETATM   20  N   UNK N   1      30.734  23.322  -3.103  0.00  0.00    -0.361 N 
HETATM   21  C   UNK N   1      30.059  23.461  -4.275  0.00  0.00     0.099 A 
ATOM     22  HN  UNK N   1      30.870  24.134  -2.501  1.00  0.00     0.166 HD
ENDBRANCH  14  15
ENDBRANCH  12  14
ENDBRANCH  10  12
BRANCH   8  23
HETATM   23  C   UNK N   1      26.729  27.726  -5.734  0.00  0.00    -0.026 A 
HETATM   24  C   UNK N   1      27.570  28.782  -6.120  0.00  0.00     0.012 A 
HETATM   25  C   UNK N   1      27.653  29.938  -5.338  0.00  0.00     0.001 A 
HETATM   26  C   UNK N   1      26.891  30.054  -4.172  0.00  0.00     0.000 A 
HETATM   27  C   UNK N   1      26.044  29.014  -3.786  0.00  0.00     0.001 A 
HETATM   28  C   UNK N   1      25.969  27.853  -4.558  0.00  0.00     0.012 A 
ENDBRANCH   8  23
TORSDOF 4
ENDMDL
MODEL 6
REMARK VINA RESULT:      -6.4     19.533     23.526
REMARK  4 active torsions:
REMARK  status: ('A' for Active; 'I' for Inactive)
REMARK    1  A    between atoms: C_8  and  C_12 
REMARK    2  A    between atoms: N_11  and  C_10 
REMARK    3  A    between atoms: N_11  and  C_13 
REMARK    4  A    between atoms: C_14  and  C_13 
ROOT
HETATM    1  C   UNK N   1      27.993  27.188  -4.697  0.00  0.00     0.056 A 
HETATM    2  C   UNK N   1      28.185  25.862  -5.001  0.00  0.00     0.078 A 
HETATM    3  N   UNK N   1      29.298  25.440  -4.383  0.00  0.00    -0.239 N 
HETATM    4  N   UNK N   1      29.828  26.433  -3.689  0.00  0.00    -0.302 N 
ATOM      5  HN  UNK N   1      30.676  26.383  -3.124  1.00  0.00     0.186 HD
HETATM    6  C   UNK N   1      29.049  27.531  -3.860  0.00  0.00     0.129 A 
HETATM    7  C   UNK N   1      27.419  25.007  -5.794  0.00  0.00     0.045 A 
HETATM    8  C   UNK N   1      27.861  23.674  -5.940  0.00  0.00    -0.020 A 
HETATM    9  C   UNK N   1      29.036  23.263  -5.283  0.00  0.00     0.062 A 
HETATM   10  C   UNK N   1      29.755  24.159  -4.490  0.00  0.00     0.124 A 
HETATM   11 Br   UNK N   1      26.584  28.334  -5.283  0.00  0.00    -0.047 Br
ENDROOT
BRANCH  10  12
HETATM   12  N   UNK N   1      30.919  23.692  -3.833  0.00  0.00    -0.370 N 
HETATM   13  H   UNK N   1      31.782  24.080  -4.104  0.00  0.00     0.161 HD
BRANCH  12  14
HETATM   14  C   UNK N   1      30.935  22.691  -2.799  0.00  0.00     0.162 C 
BRANCH  14  15
HETATM   15  C   UNK N   1      31.739  21.517  -3.254  0.00  0.00    -0.010 A 
HETATM   16  C   UNK N   1      31.221  20.586  -4.160  0.00  0.00     0.099 A 
HETATM   17  N   UNK N   1      31.986  19.542  -4.572  0.00  0.00    -0.361 N 
HETATM   18  C   UNK N   1      33.251  19.384  -4.105  0.00  0.00     0.180 A 
ATOM     19  HN  UNK N   1      31.605  18.870  -5.238  1.00  0.00     0.166 HD
HETATM   20  N   UNK N   1      33.770  20.274  -3.217  0.00  0.00    -0.361 N 
HETATM   21  C   UNK N   1      33.038  21.336  -2.787  0.00  0.00     0.099 A 
ATOM     22  HN  UNK N   1      34.719  20.143  -2.868  1.00  0.00     0.166 HD
ENDBRANCH  14  15
ENDBRANCH  12  14
ENDBRANCH  10  12
BRANCH   8  23
HETATM   23  C   UNK N   1      27.099  22.686  -6.738  0.00  0.00    -0.026 A 
HETATM   24  C   UNK N   1      27.753  21.802  -7.611  0.00  0.00     0.012 A 
HETATM   25  C   UNK N   1      27.015  20.906  -8.390  0.00  0.00     0.001 A 
HETATM   26  C   UNK N   1      25.620  20.877  -8.296  0.00  0.00     0.000 A 
HETATM   27  C   UNK N   1      24.962  21.744  -7.422  0.00  0.00     0.001 A 
HETATM   28  C   UNK N   1      25.696  22.648  -6.653  0.00  0.00     0.012 A 
ENDBRANCH   8  23
TORSDOF 4
ENDMDL
MODEL 7
REMARK VINA RESULT:      -6.1      1.816      2.323
REMARK  4 active torsions:
REMARK  status: ('A' for Active; 'I' for Inactive)
REMARK    1  A    between atoms: C_8  and  C_12 
REMARK    2  A    between atoms: N_11  and  C_10 
REMARK    3  A    between atoms: N_11  and  C_13 
REMARK    4  A    between atoms: C_14  and  C_13 
ROOT
HETATM    1  C   UNK N   1      34.209   9.892  10.764  0.00  0.00     0.056 A 
HETATM    2  C   UNK N   1      34.514  10.687  11.842  0.00  0.00     0.078 A 
HETATM    3  N   UNK N   1      34.719  11.938  11.406  0.00  0.00    -0.239 N 
HETATM    4  N   UNK N   1      34.554  11.986  10.095  0.00  0.00    -0.302 N 
ATOM      5  HN  UNK N   1      34.647  12.817   9.509  1.00  0.00     0.186 HD
HETATM    6  C   UNK N   1      34.238  10.740   9.663  0.00  0.00     0.129 A 
HETATM    7  C   UNK N   1      34.614  10.358  13.196  0.00  0.00     0.045 A 
HETATM    8  C   UNK N   1      34.954  11.389  14.098  0.00  0.00    -0.020 A 
HETATM    9  C   UNK N   1      35.168  12.690  13.608  0.00  0.00     0.062 A 
HETATM   10  C   UNK N   1      35.040  12.965  12.246  0.00  0.00     0.124 A 
HETATM   11 Br   UNK N   1      33.821   8.024  10.756  0.00  0.00    -0.047 Br
ENDROOT
BRANCH  10  12
HETATM   12  N   UNK N   1      35.246  14.294  11.804  0.00  0.00    -0.370 N 
HETATM   13  H   UNK N   1      34.684  14.998  12.200  0.00  0.00     0.161 HD
BRANCH  12  14
HETATM   14  C   UNK N   1      36.216  14.693  10.818  0.00  0.00     0.162 C 
BRANCH  14  15
HETATM   15  C   UNK N   1      35.559  15.562   9.796  0.00  0.00    -0.010 A 
HETATM   16  C   UNK N   1      35.044  16.819  10.130  0.00  0.00     0.099 A 
HETATM   17  N   UNK N   1      34.473  17.595   9.173  0.00  0.00    -0.361 N 
HETATM   18  C   UNK N   1      34.387  17.160   7.889  0.00  0.00     0.180 A 
ATOM     19  HN  UNK N   1      34.105  18.513   9.422  1.00  0.00     0.166 HD
HETATM   20  N   UNK N   1      34.875  15.937   7.546  0.00  0.00    -0.361 N 
HETATM   21  C   UNK N   1      35.461  15.135   8.475  0.00  0.00     0.099 A 
ATOM     22  HN  UNK N   1      34.800  15.617   6.581  1.00  0.00     0.166 HD
ENDBRANCH  14  15
ENDBRANCH  12  14
ENDBRANCH  10  12
BRANCH   8  23
HETATM   23  C   UNK N   1      35.054  11.143  15.556  0.00  0.00    -0.026 A 
HETATM   24  C   UNK N   1      35.088   9.837  16.068  0.00  0.00     0.012 A 
HETATM   25  C   UNK N   1      35.137   9.623  17.449  0.00  0.00     0.001 A 
HETATM   26  C   UNK N   1      35.162  10.709  18.328  0.00  0.00     0.000 A 
HETATM   27  C   UNK N   1      35.140  12.012  17.828  0.00  0.00     0.001 A 
HETATM   28  C   UNK N   1      35.078  12.228  16.450  0.00  0.00     0.012 A 
ENDBRANCH   8  23
TORSDOF 4
ENDMDL
MODEL 8
REMARK VINA RESULT:      -6.1      2.581      3.774
REMARK  4 active torsions:
REMARK  status: ('A' for Active; 'I' for Inactive)
REMARK    1  A    between atoms: C_8  and  C_12 
REMARK    2  A    between atoms: N_11  and  C_10 
REMARK    3  A    between atoms: N_11  and  C_13 
REMARK    4  A    between atoms: C_14  and  C_13 
ROOT
HETATM    1  C   UNK N   1      35.788   6.680  15.611  0.00  0.00     0.056 A 
HETATM    2  C   UNK N   1      35.705   8.050  15.548  0.00  0.00     0.078 A 
HETATM    3  N   UNK N   1      35.689   8.417  14.259  0.00  0.00    -0.239 N 
HETATM    4  N   UNK N   1      35.753   7.345  13.488  0.00  0.00    -0.302 N 
ATOM      5  HN  UNK N   1      35.754   7.340  12.468  1.00  0.00     0.186 HD
HETATM    6  C   UNK N   1      35.816   6.252  14.289  0.00  0.00     0.129 A 
HETATM    7  C   UNK N   1      35.636   8.989  16.579  0.00  0.00     0.045 A 
HETATM    8  C   UNK N   1      35.562  10.353  16.220  0.00  0.00    -0.020 A 
HETATM    9  C   UNK N   1      35.553  10.706  14.858  0.00  0.00     0.062 A 
HETATM   10  C   UNK N   1      35.610   9.723  13.869  0.00  0.00     0.124 A 
HETATM   11 Br   UNK N   1      35.850   5.578  17.168  0.00  0.00    -0.047 Br
ENDROOT
BRANCH  10  12
HETATM   12  N   UNK N   1      35.578  10.128  12.513  0.00  0.00    -0.370 N 
HETATM   13  H   UNK N   1      35.746   9.442  11.828  0.00  0.00     0.161 HD
BRANCH  12  14
HETATM   14  C   UNK N   1      35.318  11.470  12.061  0.00  0.00     0.162 C 
BRANCH  14  15
HETATM   15  C   UNK N   1      36.542  12.021  11.406  0.00  0.00    -0.010 A 
HETATM   16  C   UNK N   1      36.912  13.361  11.564  0.00  0.00     0.099 A 
HETATM   17  N   UNK N   1      38.044  13.826  10.974  0.00  0.00    -0.361 N 
HETATM   18  C   UNK N   1      38.820  13.004  10.221  0.00  0.00     0.180 A 
ATOM     19  HN  UNK N   1      38.312  14.802  11.098  1.00  0.00     0.166 HD
HETATM   20  N   UNK N   1      38.472  11.700  10.050  0.00  0.00    -0.361 N 
HETATM   21  C   UNK N   1      37.351  11.196  10.630  0.00  0.00     0.099 A 
ATOM     22  HN  UNK N   1      39.059  11.093   9.478  1.00  0.00     0.166 HD
ENDBRANCH  14  15
ENDBRANCH  12  14
ENDBRANCH  10  12
BRANCH   8  23
HETATM   23  C   UNK N   1      35.455  11.420  17.241  0.00  0.00    -0.026 A 
HETATM   24  C   UNK N   1      35.449  11.112  18.611  0.00  0.00     0.012 A 
HETATM   25  C   UNK N   1      35.302  12.128  19.561  0.00  0.00     0.001 A 
HETATM   26  C   UNK N   1      35.170  13.458  19.152  0.00  0.00     0.000 A 
HETATM   27  C   UNK N   1      35.186  13.776  17.793  0.00  0.00     0.001 A 
HETATM   28  C   UNK N   1      35.320  12.762  16.842  0.00  0.00     0.012 A 
ENDBRANCH   8  23
TORSDOF 4
ENDMDL
MODEL 9
REMARK VINA RESULT:      -5.9     21.109     23.707
REMARK  4 active torsions:
REMARK  status: ('A' for Active; 'I' for Inactive)
REMARK    1  A    between atoms: C_8  and  C_12 
REMARK    2  A    between atoms: N_11  and  C_10 
REMARK    3  A    between atoms: N_11  and  C_13 
REMARK    4  A    between atoms: C_14  and  C_13 
ROOT
HETATM    1  C   UNK N   1      26.524  22.409  -7.946  0.00  0.00     0.056 A 
HETATM    2  C   UNK N   1      27.595  22.420  -7.085  0.00  0.00     0.078 A 
HETATM    3  N   UNK N   1      27.383  23.360  -6.153  0.00  0.00    -0.239 N 
HETATM    4  N   UNK N   1      26.220  23.952  -6.372  0.00  0.00    -0.302 N 
ATOM      5  HN  UNK N   1      25.814  24.701  -5.810  1.00  0.00     0.186 HD
HETATM    6  C   UNK N   1      25.661  23.391  -7.473  0.00  0.00     0.129 A 
HETATM    7  C   UNK N   1      28.748  21.633  -7.082  0.00  0.00     0.045 A 
HETATM    8  C   UNK N   1      29.700  21.867  -6.067  0.00  0.00    -0.020 A 
HETATM    9  C   UNK N   1      29.450  22.865  -5.106  0.00  0.00     0.062 A 
HETATM   10  C   UNK N   1      28.273  23.613  -5.150  0.00  0.00     0.124 A 
HETATM   11 Br   UNK N   1      26.256  21.293  -9.470  0.00  0.00    -0.047 Br
ENDROOT
BRANCH  10  12
HETATM   12  N   UNK N   1      28.059  24.592  -4.149  0.00  0.00    -0.370 N 
HETATM   13  H   UNK N   1      27.376  24.404  -3.466  0.00  0.00     0.161 HD
BRANCH  12  14
HETATM   14  C   UNK N   1      28.766  25.842  -4.057  0.00  0.00     0.162 C 
BRANCH  14  15
HETATM   15  C   UNK N   1      27.784  26.965  -3.984  0.00  0.00    -0.010 A 
HETATM   16  C   UNK N   1      28.028  28.189  -4.617  0.00  0.00     0.099 A 
HETATM   17  N   UNK N   1      27.105  29.183  -4.551  0.00  0.00    -0.361 N 
HETATM   18  C   UNK N   1      25.944  29.006  -3.867  0.00  0.00     0.180 A 
ATOM     19  HN  UNK N   1      27.285  30.070  -5.019  1.00  0.00     0.166 HD
HETATM   20  N   UNK N   1      25.693  27.826  -3.239  0.00  0.00    -0.361 N 
HETATM   21  C   UNK N   1      26.589  26.805  -3.289  0.00  0.00     0.099 A 
ATOM     22  HN  UNK N   1      24.821  27.706  -2.723  1.00  0.00     0.166 HD
ENDBRANCH  14  15
ENDBRANCH  12  14
ENDBRANCH  10  12
BRANCH   8  23
HETATM   23  C   UNK N   1      30.939  21.063  -5.963  0.00  0.00    -0.026 A 
HETATM   24  C   UNK N   1      31.600  20.601  -7.113  0.00  0.00     0.012 A 
HETATM   25  C   UNK N   1      32.743  19.805  -6.997  0.00  0.00     0.001 A 
HETATM   26  C   UNK N   1      33.242  19.472  -5.734  0.00  0.00     0.000 A 
HETATM   27  C   UNK N   1      32.599  19.936  -4.585  0.00  0.00     0.001 A 
HETATM   28  C   UNK N   1      31.450  20.720  -4.699  0.00  0.00     0.012 A 
ENDBRANCH   8  23
TORSDOF 4
ENDMDL
