MODEL 1
REMARK VINA RESULT:      -7.4      0.000      0.000
REMARK  4 active torsions:
REMARK  status: ('A' for Active; 'I' for Inactive)
REMARK    1  A    between atoms: C_8  and  C_12 
REMARK    2  A    between atoms: N_11  and  C_10 
REMARK    3  A    between atoms: N_11  and  C_13 
REMARK    4  A    between atoms: C_14  and  C_13 
ROOT
HETATM    1  C   UNK N   1      36.043   9.538  12.541  0.00  0.00     0.103 A 
HETATM    2  N   UNK N   1      35.993  10.607  13.347  0.00  0.00    -0.298 N 
HETATM    3  C   UNK N   1      36.320  11.662  12.587  0.00  0.00     0.139 A 
HETATM    4  N   UNK N   1      36.579  11.309  11.311  0.00  0.00    -0.347 N 
ATOM      5  HN  UNK N   1      36.847  11.922  10.541  1.00  0.00     0.167 HD
HETATM    6  C   UNK N   1      36.405   9.964  11.273  0.00  0.00     0.127 A 
HETATM    7  C   UNK N   1      35.707  10.694  14.670  0.00  0.00     0.112 A 
HETATM    8  C   UNK N   1      35.736  11.964  15.281  0.00  0.00    -0.008 A 
HETATM    9  C   UNK N   1      36.060  13.088  14.491  0.00  0.00     0.046 A 
HETATM   10  C   UNK N   1      36.371  12.952  13.134  0.00  0.00     0.074 A 
HETATM   11 Br   UNK N   1      35.696   7.734  13.066  0.00  0.00    -0.029 Br
ENDROOT
BRANCH  10  12
HETATM   12  N   UNK N   1      36.783  14.098  12.406  0.00  0.00    -0.383 N 
HETATM   13  H   UNK N   1      37.529  14.009  11.770  0.00  0.00     0.160 HD
BRANCH  12  14
HETATM   14  C   UNK N   1      36.155  15.385  12.559  0.00  0.00     0.161 C 
BRANCH  14  15
HETATM   15  C   UNK N   1      35.257  15.684  11.415  0.00  0.00    -0.010 A 
HETATM   16  C   UNK N   1      34.202  14.832  11.084  0.00  0.00     0.099 A 
HETATM   17  N   UNK N   1      33.376  15.151  10.054  0.00  0.00    -0.361 N 
HETATM   18  C   UNK N   1      33.556  16.299   9.348  0.00  0.00     0.180 A 
ATOM     19  HN  UNK N   1      32.610  14.522   9.809  1.00  0.00     0.166 HD
HETATM   20  N   UNK N   1      34.574  17.144   9.664  0.00  0.00    -0.361 N 
HETATM   21  C   UNK N   1      35.424  16.856  10.683  0.00  0.00     0.099 A 
ATOM     22  HN  UNK N   1      34.701  18.003   9.128  1.00  0.00     0.166 HD
ENDBRANCH  14  15
ENDBRANCH  12  14
ENDBRANCH  10  12
BRANCH   8  23
HETATM   23  C   UNK N   1      35.532  12.127  16.739  0.00  0.00    -0.025 A 
HETATM   24  C   UNK N   1      35.678  11.037  17.611  0.00  0.00     0.012 A 
HETATM   25  C   UNK N   1      35.553  11.217  18.993  0.00  0.00     0.001 A 
HETATM   26  C   UNK N   1      35.280  12.485  19.512  0.00  0.00     0.000 A 
HETATM   27  C   UNK N   1      35.125  13.575  18.652  0.00  0.00     0.001 A 
HETATM   28  C   UNK N   1      35.258  13.398  17.274  0.00  0.00     0.012 A 
ENDBRANCH   8  23
TORSDOF 4
ENDMDL
MODEL 2
REMARK VINA RESULT:      -7.2      1.859      2.474
REMARK  4 active torsions:
REMARK  status: ('A' for Active; 'I' for Inactive)
REMARK    1  A    between atoms: C_8  and  C_12 
REMARK    2  A    between atoms: N_11  and  C_10 
REMARK    3  A    between atoms: N_11  and  C_13 
REMARK    4  A    between atoms: C_14  and  C_13 
ROOT
HETATM    1  C   UNK N   1      37.807   9.463  13.614  0.00  0.00     0.103 A 
HETATM    2  N   UNK N   1      37.050  10.546  13.837  0.00  0.00    -0.298 N 
HETATM    3  C   UNK N   1      36.200  10.625  12.803  0.00  0.00     0.139 A 
HETATM    4  N   UNK N   1      36.383   9.625  11.917  0.00  0.00    -0.347 N 
ATOM      5  HN  UNK N   1      35.866   9.462  11.052  1.00  0.00     0.167 HD
HETATM    6  C   UNK N   1      37.399   8.883  12.424  0.00  0.00     0.127 A 
HETATM    7  C   UNK N   1      37.084  11.445  14.853  0.00  0.00     0.112 A 
HETATM    8  C   UNK N   1      36.164  12.513  14.835  0.00  0.00    -0.008 A 
HETATM    9  C   UNK N   1      35.249  12.601  13.764  0.00  0.00     0.046 A 
HETATM   10  C   UNK N   1      35.263  11.666  12.724  0.00  0.00     0.074 A 
HETATM   11 Br   UNK N   1      39.222   8.847  14.740  0.00  0.00    -0.029 Br
ENDROOT
BRANCH  10  12
HETATM   12  N   UNK N   1      34.388  11.851  11.623  0.00  0.00    -0.383 N 
HETATM   13  H   UNK N   1      33.447  11.580  11.718  0.00  0.00     0.160 HD
BRANCH  12  14
HETATM   14  C   UNK N   1      34.821  12.419  10.371  0.00  0.00     0.161 C 
BRANCH  14  15
HETATM   15  C   UNK N   1      35.072  13.876  10.500  0.00  0.00    -0.010 A 
HETATM   16  C   UNK N   1      34.021  14.794  10.476  0.00  0.00     0.099 A 
HETATM   17  N   UNK N   1      34.279  16.118  10.633  0.00  0.00    -0.361 N 
HETATM   18  C   UNK N   1      35.551  16.561  10.823  0.00  0.00     0.180 A 
ATOM     19  HN  UNK N   1      33.510  16.788  10.607  1.00  0.00     0.166 HD
HETATM   20  N   UNK N   1      36.584  15.678  10.856  0.00  0.00    -0.361 N 
HETATM   21  C   UNK N   1      36.366  14.347  10.699  0.00  0.00     0.099 A 
ATOM     22  HN  UNK N   1      37.535  16.020  11.001  1.00  0.00     0.166 HD
ENDBRANCH  14  15
ENDBRANCH  12  14
ENDBRANCH  10  12
BRANCH   8  23
HETATM   23  C   UNK N   1      36.204  13.586  15.855  0.00  0.00    -0.025 A 
HETATM   24  C   UNK N   1      35.420  13.503  17.017  0.00  0.00     0.012 A 
HETATM   25  C   UNK N   1      35.517  14.487  18.006  0.00  0.00     0.001 A 
HETATM   26  C   UNK N   1      36.397  15.560  17.842  0.00  0.00     0.000 A 
HETATM   27  C   UNK N   1      37.176  15.656  16.687  0.00  0.00     0.001 A 
HETATM   28  C   UNK N   1      37.085  14.670  15.702  0.00  0.00     0.012 A 
ENDBRANCH   8  23
TORSDOF 4
ENDMDL
MODEL 3
REMARK VINA RESULT:      -7.0     13.432     15.895
REMARK  4 active torsions:
REMARK  status: ('A' for Active; 'I' for Inactive)
REMARK    1  A    between atoms: C_8  and  C_12 
REMARK    2  A    between atoms: N_11  and  C_10 
REMARK    3  A    between atoms: N_11  and  C_13 
REMARK    4  A    between atoms: C_14  and  C_13 
ROOT
HETATM    1  C   UNK N   1      21.604  11.853   4.987  0.00  0.00     0.103 A 
HETATM    2  N   UNK N   1      21.542  12.437   6.191  0.00  0.00    -0.298 N 
HETATM    3  C   UNK N   1      20.869  13.583   6.015  0.00  0.00     0.139 A 
HETATM    4  N   UNK N   1      20.490  13.758   4.732  0.00  0.00    -0.347 N 
ATOM      5  HN  UNK N   1      19.968  14.543   4.343  1.00  0.00     0.167 HD
HETATM    6  C   UNK N   1      20.951  12.666   4.074  0.00  0.00     0.127 A 
HETATM    7  C   UNK N   1      22.049  12.039   7.385  0.00  0.00     0.112 A 
HETATM    8  C   UNK N   1      21.842  12.863   8.510  0.00  0.00    -0.008 A 
HETATM    9  C   UNK N   1      21.118  14.063   8.347  0.00  0.00     0.046 A 
HETATM   10  C   UNK N   1      20.632  14.449   7.093  0.00  0.00     0.074 A 
HETATM   11 Br   UNK N   1      22.469  10.194   4.601  0.00  0.00    -0.029 Br
ENDROOT
BRANCH  10  12
HETATM   12  N   UNK N   1      19.994  15.709   6.961  0.00  0.00    -0.383 N 
HETATM   13  H   UNK N   1      19.176  15.768   6.417  0.00  0.00     0.160 HD
BRANCH  12  14
HETATM   14  C   UNK N   1      20.494  16.905   7.590  0.00  0.00     0.161 C 
BRANCH  14  15
HETATM   15  C   UNK N   1      19.507  17.459   8.551  0.00  0.00    -0.010 A 
HETATM   16  C   UNK N   1      18.292  16.816   8.789  0.00  0.00     0.099 A 
HETATM   17  N   UNK N   1      17.425  17.328   9.700  0.00  0.00    -0.361 N 
HETATM   18  C   UNK N   1      17.732  18.458  10.394  0.00  0.00     0.180 A 
ATOM     19  HN  UNK N   1      16.534  16.861   9.867  1.00  0.00     0.166 HD
HETATM   20  N   UNK N   1      18.916  19.092  10.178  0.00  0.00    -0.361 N 
HETATM   21  C   UNK N   1      19.806  18.612   9.272  0.00  0.00     0.099 A 
ATOM     22  HN  UNK N   1      19.138  19.938  10.703  1.00  0.00     0.166 HD
ENDBRANCH  14  15
ENDBRANCH  12  14
ENDBRANCH  10  12
BRANCH   8  23
HETATM   23  C   UNK N   1      22.447  12.545   9.824  0.00  0.00    -0.025 A 
HETATM   24  C   UNK N   1      21.640  12.274  10.940  0.00  0.00     0.012 A 
HETATM   25  C   UNK N   1      22.221  11.906  12.158  0.00  0.00     0.001 A 
HETATM   26  C   UNK N   1      23.610  11.808  12.271  0.00  0.00     0.000 A 
HETATM   27  C   UNK N   1      24.422  12.083  11.169  0.00  0.00     0.001 A 
HETATM   28  C   UNK N   1      23.843  12.443   9.950  0.00  0.00     0.012 A 
ENDBRANCH   8  23
TORSDOF 4
ENDMDL
MODEL 4
REMARK VINA RESULT:      -6.9      4.184      8.945
REMARK  4 active torsions:
REMARK  status: ('A' for Active; 'I' for Inactive)
REMARK    1  A    between atoms: C_8  and  C_12 
REMARK    2  A    between atoms: N_11  and  C_10 
REMARK    3  A    between atoms: N_11  and  C_13 
REMARK    4  A    between atoms: C_14  and  C_13 
ROOT
HETATM    1  C   UNK N   1      34.085  15.423   4.908  0.00  0.00     0.103 A 
HETATM    2  N   UNK N   1      33.525  15.831   6.055  0.00  0.00    -0.298 N 
HETATM    3  C   UNK N   1      34.337  15.411   7.035  0.00  0.00     0.139 A 
HETATM    4  N   UNK N   1      35.408  14.743   6.558  0.00  0.00    -0.347 N 
ATOM      5  HN  UNK N   1      36.168  14.327   7.097  1.00  0.00     0.167 HD
HETATM    6  C   UNK N   1      35.257  14.747   5.211  0.00  0.00     0.127 A 
HETATM    7  C   UNK N   1      32.370  16.508   6.274  0.00  0.00     0.112 A 
HETATM    8  C   UNK N   1      32.008  16.806   7.603  0.00  0.00    -0.008 A 
HETATM    9  C   UNK N   1      32.861  16.388   8.647  0.00  0.00     0.046 A 
HETATM   10  C   UNK N   1      34.032  15.671   8.380  0.00  0.00     0.074 A 
HETATM   11 Br   UNK N   1      33.369  15.708   3.160  0.00  0.00    -0.029 Br
ENDROOT
BRANCH  10  12
HETATM   12  N   UNK N   1      34.806  15.191   9.467  0.00  0.00    -0.383 N 
HETATM   13  H   UNK N   1      35.636  15.666   9.702  0.00  0.00     0.160 HD
BRANCH  12  14
HETATM   14  C   UNK N   1      34.430  14.035  10.241  0.00  0.00     0.161 C 
BRANCH  14  15
HETATM   15  C   UNK N   1      35.070  14.053  11.580  0.00  0.00    -0.010 A 
HETATM   16  C   UNK N   1      34.975  12.959  12.440  0.00  0.00     0.099 A 
HETATM   17  N   UNK N   1      35.602  12.991  13.644  0.00  0.00    -0.361 N 
HETATM   18  C   UNK N   1      36.333  14.075  14.019  0.00  0.00     0.180 A 
ATOM     19  HN  UNK N   1      35.525  12.193  14.275  1.00  0.00     0.166 HD
HETATM   20  N   UNK N   1      36.442  15.146  13.188  0.00  0.00    -0.361 N 
HETATM   21  C   UNK N   1      35.826  15.153  11.979  0.00  0.00     0.099 A 
ATOM     22  HN  UNK N   1      36.993  15.955  13.477  1.00  0.00     0.166 HD
ENDBRANCH  14  15
ENDBRANCH  12  14
ENDBRANCH  10  12
BRANCH   8  23
HETATM   23  C   UNK N   1      30.717  17.455   7.927  0.00  0.00    -0.025 A 
HETATM   24  C   UNK N   1      29.639  17.399   7.029  0.00  0.00     0.012 A 
HETATM   25  C   UNK N   1      28.403  17.954   7.375  0.00  0.00     0.001 A 
HETATM   26  C   UNK N   1      28.234  18.568   8.619  0.00  0.00     0.000 A 
HETATM   27  C   UNK N   1      29.302  18.635   9.517  0.00  0.00     0.001 A 
HETATM   28  C   UNK N   1      30.534  18.075   9.175  0.00  0.00     0.012 A 
ENDBRANCH   8  23
TORSDOF 4
ENDMDL
MODEL 5
REMARK VINA RESULT:      -6.9     13.475     15.948
REMARK  4 active torsions:
REMARK  status: ('A' for Active; 'I' for Inactive)
REMARK    1  A    between atoms: C_8  and  C_12 
REMARK    2  A    between atoms: N_11  and  C_10 
REMARK    3  A    between atoms: N_11  and  C_13 
REMARK    4  A    between atoms: C_14  and  C_13 
ROOT
HETATM    1  C   UNK N   1      25.384  16.143   5.332  0.00  0.00     0.103 A 
HETATM    2  N   UNK N   1      24.234  15.805   5.931  0.00  0.00    -0.298 N 
HETATM    3  C   UNK N   1      23.296  16.617   5.422  0.00  0.00     0.139 A 
HETATM    4  N   UNK N   1      23.803  17.470   4.509  0.00  0.00    -0.347 N 
ATOM      5  HN  UNK N   1      23.299  18.183   3.980  1.00  0.00     0.167 HD
HETATM    6  C   UNK N   1      25.126  17.177   4.445  0.00  0.00     0.127 A 
HETATM    7  C   UNK N   1      23.983  14.871   6.883  0.00  0.00     0.112 A 
HETATM    8  C   UNK N   1      22.662  14.728   7.351  0.00  0.00    -0.008 A 
HETATM    9  C   UNK N   1      21.658  15.561   6.812  0.00  0.00     0.046 A 
HETATM   10  C   UNK N   1      21.963  16.529   5.849  0.00  0.00     0.074 A 
HETATM   11 Br   UNK N   1      27.087  15.346   5.669  0.00  0.00    -0.029 Br
ENDROOT
BRANCH  10  12
HETATM   12  N   UNK N   1      20.939  17.405   5.408  0.00  0.00    -0.383 N 
HETATM   13  H   UNK N   1      20.708  18.181   5.969  0.00  0.00     0.160 HD
BRANCH  12  14
HETATM   14  C   UNK N   1      20.221  17.207   4.175  0.00  0.00     0.161 C 
BRANCH  14  15
HETATM   15  C   UNK N   1      20.447  18.333   3.234  0.00  0.00    -0.010 A 
HETATM   16  C   UNK N   1      20.226  18.184   1.865  0.00  0.00     0.099 A 
HETATM   17  N   UNK N   1      20.407  19.243   1.033  0.00  0.00    -0.361 N 
HETATM   18  C   UNK N   1      20.792  20.453   1.522  0.00  0.00     0.180 A 
ATOM     19  HN  UNK N   1      20.253  19.129   0.031  1.00  0.00     0.166 HD
HETATM   20  N   UNK N   1      21.003  20.615   2.856  0.00  0.00    -0.361 N 
HETATM   21  C   UNK N   1      20.837  19.579   3.716  0.00  0.00     0.099 A 
ATOM     22  HN  UNK N   1      21.290  21.527   3.212  1.00  0.00     0.166 HD
ENDBRANCH  14  15
ENDBRANCH  12  14
ENDBRANCH  10  12
BRANCH   8  23
HETATM   23  C   UNK N   1      22.328  13.800   8.456  0.00  0.00    -0.025 A 
HETATM   24  C   UNK N   1      23.180  12.733   8.780  0.00  0.00     0.012 A 
HETATM   25  C   UNK N   1      22.891  11.905   9.870  0.00  0.00     0.001 A 
HETATM   26  C   UNK N   1      21.749  12.135  10.642  0.00  0.00     0.000 A 
HETATM   27  C   UNK N   1      20.891  13.190  10.323  0.00  0.00     0.001 A 
HETATM   28  C   UNK N   1      21.182  14.021   9.240  0.00  0.00     0.012 A 
ENDBRANCH   8  23
TORSDOF 4
ENDMDL
MODEL 6
REMARK VINA RESULT:      -6.8      6.182     11.343
REMARK  4 active torsions:
REMARK  status: ('A' for Active; 'I' for Inactive)
REMARK    1  A    between atoms: C_8  and  C_12 
REMARK    2  A    between atoms: N_11  and  C_10 
REMARK    3  A    between atoms: N_11  and  C_13 
REMARK    4  A    between atoms: C_14  and  C_13 
ROOT
HETATM    1  C   UNK N   1      29.515  14.268   4.021  0.00  0.00     0.103 A 
HETATM    2  N   UNK N   1      29.531  15.368   4.786  0.00  0.00    -0.298 N 
HETATM    3  C   UNK N   1      30.461  15.154   5.727  0.00  0.00     0.139 A 
HETATM    4  N   UNK N   1      31.050  13.948   5.595  0.00  0.00    -0.347 N 
ATOM      5  HN  UNK N   1      31.785  13.550   6.181  1.00  0.00     0.167 HD
HETATM    6  C   UNK N   1      30.457  13.380   4.516  0.00  0.00     0.127 A 
HETATM    7  C   UNK N   1      28.782  16.498   4.713  0.00  0.00     0.112 A 
HETATM    8  C   UNK N   1      29.003  17.512   5.666  0.00  0.00    -0.008 A 
HETATM    9  C   UNK N   1      29.993  17.312   6.652  0.00  0.00     0.046 A 
HETATM   10  C   UNK N   1      30.727  16.123   6.706  0.00  0.00     0.074 A 
HETATM   11 Br   UNK N   1      28.366  13.974   2.523  0.00  0.00    -0.029 Br
ENDROOT
BRANCH  10  12
HETATM   12  N   UNK N   1      31.642  15.929   7.773  0.00  0.00    -0.383 N 
HETATM   13  H   UNK N   1      31.406  15.295   8.488  0.00  0.00     0.160 HD
BRANCH  12  14
HETATM   14  C   UNK N   1      32.902  16.623   7.854  0.00  0.00     0.161 C 
BRANCH  14  15
HETATM   15  C   UNK N   1      33.654  16.231   9.073  0.00  0.00    -0.010 A 
HETATM   16  C   UNK N   1      34.772  16.952   9.493  0.00  0.00     0.099 A 
HETATM   17  N   UNK N   1      35.417  16.591  10.633  0.00  0.00    -0.361 N 
HETATM   18  C   UNK N   1      34.979  15.540  11.377  0.00  0.00     0.180 A 
ATOM     19  HN  UNK N   1      36.240  17.114  10.934  1.00  0.00     0.166 HD
HETATM   20  N   UNK N   1      33.886  14.834  10.985  0.00  0.00    -0.361 N 
HETATM   21  C   UNK N   1      33.218  15.161   9.849  0.00  0.00     0.099 A 
ATOM     22  HN  UNK N   1      33.564  14.047  11.550  1.00  0.00     0.166 HD
ENDBRANCH  14  15
ENDBRANCH  12  14
ENDBRANCH  10  12
BRANCH   8  23
HETATM   23  C   UNK N   1      28.160  18.729   5.711  0.00  0.00    -0.025 A 
HETATM   24  C   UNK N   1      27.902  19.380   6.927  0.00  0.00     0.012 A 
HETATM   25  C   UNK N   1      27.163  20.568   6.950  0.00  0.00     0.001 A 
HETATM   26  C   UNK N   1      26.676  21.112   5.759  0.00  0.00     0.000 A 
HETATM   27  C   UNK N   1      26.921  20.469   4.544  0.00  0.00     0.001 A 
HETATM   28  C   UNK N   1      27.665  19.287   4.519  0.00  0.00     0.012 A 
ENDBRANCH   8  23
TORSDOF 4
ENDMDL
MODEL 7
REMARK VINA RESULT:      -6.7      2.085      2.640
REMARK  4 active torsions:
REMARK  status: ('A' for Active; 'I' for Inactive)
REMARK    1  A    between atoms: C_8  and  C_12 
REMARK    2  A    between atoms: N_11  and  C_10 
REMARK    3  A    between atoms: N_11  and  C_13 
REMARK    4  A    between atoms: C_14  and  C_13 
ROOT
HETATM    1  C   UNK N   1      35.719   8.016  13.800  0.00  0.00     0.103 A 
HETATM    2  N   UNK N   1      35.399   9.232  14.263  0.00  0.00    -0.298 N 
HETATM    3  C   UNK N   1      35.094   9.972  13.188  0.00  0.00     0.139 A 
HETATM    4  N   UNK N   1      35.206   9.272  12.041  0.00  0.00    -0.347 N 
ATOM      5  HN  UNK N   1      35.030   9.605  11.092  1.00  0.00     0.167 HD
HETATM    6  C   UNK N   1      35.600   8.031  12.419  0.00  0.00     0.127 A 
HETATM    7  C   UNK N   1      35.384   9.710  15.534  0.00  0.00     0.112 A 
HETATM    8  C   UNK N   1      35.010  11.053  15.741  0.00  0.00    -0.008 A 
HETATM    9  C   UNK N   1      34.668  11.841  14.621  0.00  0.00     0.046 A 
HETATM   10  C   UNK N   1      34.719  11.317  13.326  0.00  0.00     0.074 A 
HETATM   11 Br   UNK N   1      36.267   6.530  14.868  0.00  0.00    -0.029 Br
ENDROOT
BRANCH  10  12
HETATM   12  N   UNK N   1      34.458  12.174  12.226  0.00  0.00    -0.383 N 
HETATM   13  H   UNK N   1      33.909  11.835  11.483  0.00  0.00     0.160 HD
BRANCH  12  14
HETATM   14  C   UNK N   1      34.964  13.522  12.152  0.00  0.00     0.161 C 
BRANCH  14  15
HETATM   15  C   UNK N   1      36.177  13.594  11.300  0.00  0.00    -0.010 A 
HETATM   16  C   UNK N   1      36.150  14.231  10.059  0.00  0.00     0.099 A 
HETATM   17  N   UNK N   1      37.285  14.313   9.318  0.00  0.00    -0.361 N 
HETATM   18  C   UNK N   1      38.454  13.790   9.777  0.00  0.00     0.180 A 
ATOM     19  HN  UNK N   1      37.261  14.772   8.407  1.00  0.00     0.166 HD
HETATM   20  N   UNK N   1      38.498  13.174  10.989  0.00  0.00    -0.361 N 
HETATM   21  C   UNK N   1      37.383  13.068  11.755  0.00  0.00     0.099 A 
ATOM     22  HN  UNK N   1      39.380  12.786  11.325  1.00  0.00     0.166 HD
ENDBRANCH  14  15
ENDBRANCH  12  14
ENDBRANCH  10  12
BRANCH   8  23
HETATM   23  C   UNK N   1      35.065  11.674  17.085  0.00  0.00    -0.025 A 
HETATM   24  C   UNK N   1      35.216  10.884  18.235  0.00  0.00     0.012 A 
HETATM   25  C   UNK N   1      35.337  11.484  19.492  0.00  0.00     0.001 A 
HETATM   26  C   UNK N   1      35.306  12.876  19.610  0.00  0.00     0.000 A 
HETATM   27  C   UNK N   1      35.148  13.671  18.472  0.00  0.00     0.001 A 
HETATM   28  C   UNK N   1      35.035  13.073  17.216  0.00  0.00     0.012 A 
ENDBRANCH   8  23
TORSDOF 4
ENDMDL
MODEL 8
REMARK VINA RESULT:      -6.7     13.605     16.277
REMARK  4 active torsions:
REMARK  status: ('A' for Active; 'I' for Inactive)
REMARK    1  A    between atoms: C_8  and  C_12 
REMARK    2  A    between atoms: N_11  and  C_10 
REMARK    3  A    between atoms: N_11  and  C_13 
REMARK    4  A    between atoms: C_14  and  C_13 
ROOT
HETATM    1  C   UNK N   1      19.925  11.814   5.109  0.00  0.00     0.103 A 
HETATM    2  N   UNK N   1      20.494  12.510   6.102  0.00  0.00    -0.298 N 
HETATM    3  C   UNK N   1      20.286  13.803   5.816  0.00  0.00     0.139 A 
HETATM    4  N   UNK N   1      19.598  13.966   4.667  0.00  0.00    -0.347 N 
ATOM      5  HN  UNK N   1      19.314  14.846   4.235  1.00  0.00     0.167 HD
HETATM    6  C   UNK N   1      19.364  12.710   4.213  0.00  0.00     0.127 A 
HETATM    7  C   UNK N   1      21.180  12.082   7.192  0.00  0.00     0.112 A 
HETATM    8  C   UNK N   1      21.687  13.046   8.087  0.00  0.00    -0.008 A 
HETATM    9  C   UNK N   1      21.460  14.412   7.811  0.00  0.00     0.046 A 
HETATM   10  C   UNK N   1      20.769  14.812   6.664  0.00  0.00     0.074 A 
HETATM   11 Br   UNK N   1      19.917   9.909   4.952  0.00  0.00    -0.029 Br
ENDROOT
BRANCH  10  12
HETATM   12  N   UNK N   1      20.650  16.197   6.381  0.00  0.00    -0.383 N 
HETATM   13  H   UNK N   1      19.903  16.697   6.782  0.00  0.00     0.160 HD
BRANCH  12  14
HETATM   14  C   UNK N   1      21.576  16.901   5.532  0.00  0.00     0.161 C 
BRANCH  14  15
HETATM   15  C   UNK N   1      20.863  17.771   4.564  0.00  0.00    -0.010 A 
HETATM   16  C   UNK N   1      21.211  19.113   4.406  0.00  0.00     0.099 A 
HETATM   17  N   UNK N   1      20.564  19.874   3.486  0.00  0.00    -0.361 N 
HETATM   18  C   UNK N   1      19.586  19.340   2.706  0.00  0.00     0.180 A 
ATOM     19  HN  UNK N   1      20.815  20.857   3.378  1.00  0.00     0.166 HD
HETATM   20  N   UNK N   1      19.241  18.031   2.842  0.00  0.00    -0.361 N 
HETATM   21  C   UNK N   1      19.861  17.241   3.754  0.00  0.00     0.099 A 
ATOM     22  HN  UNK N   1      18.506  17.640   2.252  1.00  0.00     0.166 HD
ENDBRANCH  14  15
ENDBRANCH  12  14
ENDBRANCH  10  12
BRANCH   8  23
HETATM   23  C   UNK N   1      22.528  12.661   9.244  0.00  0.00    -0.025 A 
HETATM   24  C   UNK N   1      23.928  12.685   9.154  0.00  0.00     0.012 A 
HETATM   25  C   UNK N   1      24.712  12.388  10.274  0.00  0.00     0.001 A 
HETATM   26  C   UNK N   1      24.104  12.065  11.490  0.00  0.00     0.000 A 
HETATM   27  C   UNK N   1      22.711  12.031  11.587  0.00  0.00     0.001 A 
HETATM   28  C   UNK N   1      21.927  12.334  10.472  0.00  0.00     0.012 A 
ENDBRANCH   8  23
TORSDOF 4
ENDMDL
MODEL 9
REMARK VINA RESULT:      -6.7      7.359     12.020
REMARK  4 active torsions:
REMARK  status: ('A' for Active; 'I' for Inactive)
REMARK    1  A    between atoms: C_8  and  C_12 
REMARK    2  A    between atoms: N_11  and  C_10 
REMARK    3  A    between atoms: N_11  and  C_13 
REMARK    4  A    between atoms: C_14  and  C_13 
ROOT
HETATM    1  C   UNK N   1      28.978  14.349   2.854  0.00  0.00     0.103 A 
HETATM    2  N   UNK N   1      29.303  15.489   3.477  0.00  0.00    -0.298 N 
HETATM    3  C   UNK N   1      30.613  15.405   3.749  0.00  0.00     0.139 A 
HETATM    4  N   UNK N   1      31.148  14.244   3.319  0.00  0.00    -0.347 N 
ATOM      5  HN  UNK N   1      32.119  13.941   3.403  1.00  0.00     0.167 HD
HETATM    6  C   UNK N   1      30.119  13.569   2.749  0.00  0.00     0.127 A 
HETATM    7  C   UNK N   1      28.529  16.548   3.826  0.00  0.00     0.112 A 
HETATM    8  C   UNK N   1      29.136  17.631   4.494  0.00  0.00    -0.008 A 
HETATM    9  C   UNK N   1      30.519  17.567   4.771  0.00  0.00     0.046 A 
HETATM   10  C   UNK N   1      31.275  16.446   4.415  0.00  0.00     0.074 A 
HETATM   11 Br   UNK N   1      27.231  13.877   2.239  0.00  0.00    -0.029 Br
ENDROOT
BRANCH  10  12
HETATM   12  N   UNK N   1      32.639  16.389   4.800  0.00  0.00    -0.383 N 
HETATM   13  H   UNK N   1      33.143  15.560   4.630  0.00  0.00     0.160 HD
BRANCH  12  14
HETATM   14  C   UNK N   1      33.319  17.492   5.430  0.00  0.00     0.161 C 
BRANCH  14  15
HETATM   15  C   UNK N   1      33.722  17.153   6.818  0.00  0.00    -0.010 A 
HETATM   16  C   UNK N   1      34.538  16.053   7.084  0.00  0.00     0.099 A 
HETATM   17  N   UNK N   1      34.919  15.789   8.361  0.00  0.00    -0.361 N 
HETATM   18  C   UNK N   1      34.525  16.593   9.385  0.00  0.00     0.180 A 
ATOM     19  HN  UNK N   1      35.509  14.979   8.554  1.00  0.00     0.166 HD
HETATM   20  N   UNK N   1      33.736  17.674   9.140  0.00  0.00    -0.361 N 
HETATM   21  C   UNK N   1      33.330  17.966   7.878  0.00  0.00     0.099 A 
ATOM     22  HN  UNK N   1      33.446  18.271   9.915  1.00  0.00     0.166 HD
ENDBRANCH  14  15
ENDBRANCH  12  14
ENDBRANCH  10  12
BRANCH   8  23
HETATM   23  C   UNK N   1      28.340  18.777   4.993  0.00  0.00    -0.025 A 
HETATM   24  C   UNK N   1      27.618  19.590   4.105  0.00  0.00     0.012 A 
HETATM   25  C   UNK N   1      26.814  20.626   4.593  0.00  0.00     0.001 A 
HETATM   26  C   UNK N   1      26.727  20.857   5.968  0.00  0.00     0.000 A 
HETATM   27  C   UNK N   1      27.448  20.059   6.859  0.00  0.00     0.001 A 
HETATM   28  C   UNK N   1      28.245  19.019   6.374  0.00  0.00     0.012 A 
ENDBRANCH   8  23
TORSDOF 4
ENDMDL
