MODEL 1
REMARK VINA RESULT:      -7.9      0.000      0.000
REMARK  5 active torsions:
REMARK  status: ('A' for Active; 'I' for Inactive)
REMARK    1  A    between atoms: C_1  and  C_28 
REMARK    2  A    between atoms: C_9  and  C_13 
REMARK    3  A    between atoms: N_12  and  C_11 
REMARK    4  A    between atoms: N_12  and  C_14 
REMARK    5  A    between atoms: C_15  and  C_14 
REMARK       I    between atoms: N_29  and  C_19 
ROOT
HETATM    1  C   UNK N   1      19.833  14.320   2.804  0.00  0.00     0.004 A 
HETATM    2  C   UNK N   1      20.358  15.353   3.541  0.00  0.00     0.137 A 
HETATM    3  N   UNK N   1      19.802  15.330   4.757  0.00  0.00    -0.224 N 
HETATM    4  N   UNK N   1      18.941  14.336   4.854  0.00  0.00    -0.301 N 
ATOM      5  HN  UNK N   1      18.384  14.099   5.675  1.00  0.00     0.186 HD
HETATM    6  C   UNK N   1      18.930  13.683   3.663  0.00  0.00     0.118 A 
HETATM    7  N   UNK N   1      21.268  16.307   3.180  0.00  0.00    -0.340 N 
ATOM      8  HN  UNK N   1      21.680  16.306   2.246  1.00  0.00     0.167 HD
HETATM    9  C   UNK N   1      21.617  17.269   4.102  0.00  0.00     0.053 A 
HETATM   10  C   UNK N   1      21.033  17.232   5.359  0.00  0.00     0.080 A 
HETATM   11  C   UNK N   1      20.116  16.253   5.693  0.00  0.00     0.127 A 
ENDROOT
BRANCH  11  12
HETATM   12  N   UNK N   1      19.505  16.285   6.960  0.00  0.00    -0.370 N 
HETATM   13  H   UNK N   1      18.652  15.826   7.135  0.00  0.00     0.161 HD
BRANCH  12  14
HETATM   14  C   UNK N   1      20.190  17.026   7.990  0.00  0.00     0.162 C 
BRANCH  14  15
HETATM   15  C   UNK N   1      19.309  17.837   8.845  0.00  0.00    -0.009 A 
HETATM   16  C   UNK N   1      18.029  17.362   9.096  0.00  0.00     0.116 A 
HETATM   17  N   UNK N   1      17.279  17.930  10.069  0.00  0.00    -0.202 N 
HETATM   18  C   UNK N   1      17.774  18.954  10.812  0.00  0.00     0.675 A 
ATOM     19  HN  UNK N   1      16.335  17.587  10.247  1.00  0.00     0.183 HD
HETATM   20  N   UNK N   1      19.006  19.465  10.544  0.00  0.00    -0.202 N 
HETATM   21  N   UNK N   1      17.039  19.439  11.908  0.00  0.00    -0.234 N 
HETATM   22  C   UNK N   1      19.783  18.923   9.574  0.00  0.00     0.116 A 
ATOM     23  HN  UNK N   1      19.348  20.265  11.077  1.00  0.00     0.183 HD
HETATM   24  H   UNK N   1      17.412  20.120  12.514  0.00  0.00     0.174 HD
HETATM   25  H   UNK N   1      16.132  19.092  12.072  0.00  0.00     0.174 HD
ENDBRANCH  14  15
ENDBRANCH  12  14
ENDBRANCH  11  12
BRANCH   9  26
HETATM   26  C   UNK N   1      22.556  18.396   3.802  0.00  0.00     0.068 A 
HETATM   27  C   UNK N   1      22.118  19.530   3.091  0.00  0.00     0.132 A 
HETATM   28  F   UNK N   1      20.843  19.625   2.643  0.00  0.00    -0.205 F 
HETATM   29  C   UNK N   1      22.999  20.586   2.838  0.00  0.00     0.043 A 
HETATM   30  C   UNK N   1      24.319  20.536   3.284  0.00  0.00     0.006 A 
HETATM   31  C   UNK N   1      24.773  19.425   3.984  0.00  0.00     0.043 A 
HETATM   32  C   UNK N   1      23.915  18.359   4.246  0.00  0.00     0.132 A 
HETATM   33  F   UNK N   1      24.424  17.307   4.939  0.00  0.00    -0.205 F 
ENDBRANCH   9  26
BRANCH   1  34
HETATM   34  C   UNK N   1      20.149  13.978   1.381  0.00  0.00     0.039 C 
HETATM   35  C   UNK N   1      18.899  13.915   0.519  0.00  0.00     0.010 C 
ENDBRANCH   1  34
TORSDOF 5
ENDMDL
MODEL 2
REMARK VINA RESULT:      -7.9     10.918     13.389
REMARK  5 active torsions:
REMARK  status: ('A' for Active; 'I' for Inactive)
REMARK    1  A    between atoms: C_1  and  C_28 
REMARK    2  A    between atoms: C_9  and  C_13 
REMARK    3  A    between atoms: N_12  and  C_11 
REMARK    4  A    between atoms: N_12  and  C_14 
REMARK    5  A    between atoms: C_15  and  C_14 
REMARK       I    between atoms: N_29  and  C_19 
ROOT
HETATM    1  C   UNK N   1      29.135  18.088   7.771  0.00  0.00     0.004 A 
HETATM    2  C   UNK N   1      30.324  17.485   7.441  0.00  0.00     0.137 A 
HETATM    3  N   UNK N   1      31.176  17.642   8.461  0.00  0.00    -0.224 N 
HETATM    4  N   UNK N   1      30.604  18.316   9.440  0.00  0.00    -0.301 N 
ATOM      5  HN  UNK N   1      31.037  18.569  10.329  1.00  0.00     0.186 HD
HETATM    6  C   UNK N   1      29.337  18.612   9.053  0.00  0.00     0.118 A 
HETATM    7  N   UNK N   1      30.686  16.840   6.291  0.00  0.00    -0.340 N 
ATOM      8  HN  UNK N   1      30.021  16.731   5.525  1.00  0.00     0.167 HD
HETATM    9  C   UNK N   1      31.965  16.340   6.189  0.00  0.00     0.053 A 
HETATM   10  C   UNK N   1      32.836  16.509   7.254  0.00  0.00     0.080 A 
HETATM   11  C   UNK N   1      32.439  17.166   8.404  0.00  0.00     0.127 A 
ENDROOT
BRANCH  11  12
HETATM   12  N   UNK N   1      33.371  17.367   9.439  0.00  0.00    -0.370 N 
HETATM   13  H   UNK N   1      33.144  17.881  10.248  0.00  0.00     0.161 HD
BRANCH  12  14
HETATM   14  C   UNK N   1      34.677  16.782   9.256  0.00  0.00     0.162 C 
BRANCH  14  15
HETATM   15  C   UNK N   1      35.033  15.764  10.257  0.00  0.00    -0.009 A 
HETATM   16  C   UNK N   1      36.064  16.054  11.142  0.00  0.00     0.116 A 
HETATM   17  N   UNK N   1      36.256  15.273  12.230  0.00  0.00    -0.202 N 
HETATM   18  C   UNK N   1      35.441  14.212  12.470  0.00  0.00     0.675 A 
ATOM     19  HN  UNK N   1      37.018  15.481  12.874  1.00  0.00     0.183 HD
HETATM   20  N   UNK N   1      34.462  13.883  11.585  0.00  0.00    -0.202 N 
HETATM   21  N   UNK N   1      35.567  13.496  13.673  0.00  0.00    -0.234 N 
HETATM   22  C   UNK N   1      34.242  14.642  10.484  0.00  0.00     0.116 A 
ATOM     23  HN  UNK N   1      33.888  13.057  11.752  1.00  0.00     0.183 HD
HETATM   24  H   UNK N   1      34.934  12.779  13.911  0.00  0.00     0.174 HD
HETATM   25  H   UNK N   1      36.303  13.714  14.290  0.00  0.00     0.174 HD
ENDBRANCH  14  15
ENDBRANCH  12  14
ENDBRANCH  11  12
BRANCH   9  26
HETATM   26  C   UNK N   1      32.491  15.669   4.958  0.00  0.00     0.068 A 
HETATM   27  C   UNK N   1      32.457  14.267   4.829  0.00  0.00     0.132 A 
HETATM   28  F   UNK N   1      31.965  13.487   5.822  0.00  0.00    -0.205 F 
HETATM   29  C   UNK N   1      32.929  13.654   3.665  0.00  0.00     0.043 A 
HETATM   30  C   UNK N   1      33.439  14.417   2.615  0.00  0.00     0.006 A 
HETATM   31  C   UNK N   1      33.487  15.801   2.722  0.00  0.00     0.043 A 
HETATM   32  C   UNK N   1      33.024  16.435   3.873  0.00  0.00     0.132 A 
HETATM   33  F   UNK N   1      33.096  17.791   3.908  0.00  0.00    -0.205 F 
ENDBRANCH   9  26
BRANCH   1  34
HETATM   34  C   UNK N   1      27.906  18.178   6.921  0.00  0.00     0.039 C 
HETATM   35  C   UNK N   1      27.670  19.591   6.412  0.00  0.00     0.010 C 
ENDBRANCH   1  34
TORSDOF 5
ENDMDL
MODEL 3
REMARK VINA RESULT:      -7.8      3.661      5.583
REMARK  5 active torsions:
REMARK  status: ('A' for Active; 'I' for Inactive)
REMARK    1  A    between atoms: C_1  and  C_28 
REMARK    2  A    between atoms: C_9  and  C_13 
REMARK    3  A    between atoms: N_12  and  C_11 
REMARK    4  A    between atoms: N_12  and  C_14 
REMARK    5  A    between atoms: C_15  and  C_14 
REMARK       I    between atoms: N_29  and  C_19 
ROOT
HETATM    1  C   UNK N   1      20.149  16.689   8.450  0.00  0.00     0.004 A 
HETATM    2  C   UNK N   1      20.980  16.673   7.356  0.00  0.00     0.137 A 
HETATM    3  N   UNK N   1      21.447  15.430   7.198  0.00  0.00    -0.224 N 
HETATM    4  N   UNK N   1      20.963  14.632   8.130  0.00  0.00    -0.301 N 
ATOM      5  HN  UNK N   1      21.162  13.637   8.233  1.00  0.00     0.186 HD
HETATM    6  C   UNK N   1      20.152  15.374   8.928  0.00  0.00     0.118 A 
HETATM    7  N   UNK N   1      21.355  17.696   6.530  0.00  0.00    -0.340 N 
ATOM      8  HN  UNK N   1      20.987  18.638   6.668  1.00  0.00     0.167 HD
HETATM    9  C   UNK N   1      22.237  17.429   5.506  0.00  0.00     0.053 A 
HETATM   10  C   UNK N   1      22.710  16.135   5.354  0.00  0.00     0.080 A 
HETATM   11  C   UNK N   1      22.312  15.123   6.207  0.00  0.00     0.127 A 
ENDROOT
BRANCH  11  12
HETATM   12  N   UNK N   1      22.861  13.836   6.052  0.00  0.00    -0.370 N 
HETATM   13  H   UNK N   1      22.361  13.109   5.616  0.00  0.00     0.161 HD
BRANCH  12  14
HETATM   14  C   UNK N   1      24.194  13.635   6.565  0.00  0.00     0.162 C 
BRANCH  14  15
HETATM   15  C   UNK N   1      24.245  13.033   7.907  0.00  0.00    -0.009 A 
HETATM   16  C   UNK N   1      25.082  13.615   8.850  0.00  0.00     0.116 A 
HETATM   17  N   UNK N   1      24.973  13.265  10.153  0.00  0.00    -0.202 N 
HETATM   18  C   UNK N   1      24.043  12.357  10.548  0.00  0.00     0.675 A 
ATOM     19  HN  UNK N   1      25.594  13.686  10.844  1.00  0.00     0.183 HD
HETATM   20  N   UNK N   1      23.252  11.739   9.630  0.00  0.00    -0.202 N 
HETATM   21  N   UNK N   1      23.850  12.109  11.919  0.00  0.00    -0.234 N 
HETATM   22  C   UNK N   1      23.335  12.063   8.316  0.00  0.00     0.116 A 
ATOM     23  HN  UNK N   1      22.591  11.024   9.933  1.00  0.00     0.183 HD
HETATM   24  H   UNK N   1      23.125  11.522  12.235  0.00  0.00     0.174 HD
HETATM   25  H   UNK N   1      24.452  12.529  12.574  0.00  0.00     0.174 HD
ENDBRANCH  14  15
ENDBRANCH  12  14
ENDBRANCH  11  12
BRANCH   9  26
HETATM   26  C   UNK N   1      22.762  18.478   4.577  0.00  0.00     0.068 A 
HETATM   27  C   UNK N   1      21.890  19.214   3.751  0.00  0.00     0.132 A 
HETATM   28  F   UNK N   1      20.556  18.979   3.761  0.00  0.00    -0.205 F 
HETATM   29  C   UNK N   1      22.391  20.208   2.905  0.00  0.00     0.043 A 
HETATM   30  C   UNK N   1      23.756  20.487   2.865  0.00  0.00     0.006 A 
HETATM   31  C   UNK N   1      24.636  19.771   3.668  0.00  0.00     0.043 A 
HETATM   32  C   UNK N   1      24.161  18.775   4.518  0.00  0.00     0.132 A 
HETATM   33  F   UNK N   1      25.075  18.118   5.278  0.00  0.00    -0.205 F 
ENDBRANCH   9  26
BRANCH   1  34
HETATM   34  C   UNK N   1      19.424  17.873   9.010  0.00  0.00     0.039 C 
HETATM   35  C   UNK N   1      18.015  17.517   9.456  0.00  0.00     0.010 C 
ENDBRANCH   1  34
TORSDOF 5
ENDMDL
MODEL 4
REMARK VINA RESULT:      -7.7      3.954      5.524
REMARK  5 active torsions:
REMARK  status: ('A' for Active; 'I' for Inactive)
REMARK    1  A    between atoms: C_1  and  C_28 
REMARK    2  A    between atoms: C_9  and  C_13 
REMARK    3  A    between atoms: N_12  and  C_11 
REMARK    4  A    between atoms: N_12  and  C_14 
REMARK    5  A    between atoms: C_15  and  C_14 
REMARK       I    between atoms: N_29  and  C_19 
ROOT
HETATM    1  C   UNK N   1      21.961  12.724  10.017  0.00  0.00     0.004 A 
HETATM    2  C   UNK N   1      22.237  13.439   8.877  0.00  0.00     0.137 A 
HETATM    3  N   UNK N   1      21.240  14.305   8.669  0.00  0.00    -0.224 N 
HETATM    4  N   UNK N   1      20.326  14.195   9.614  0.00  0.00    -0.301 N 
ATOM      5  HN  UNK N   1      19.467  14.740   9.688  1.00  0.00     0.186 HD
HETATM    6  C   UNK N   1      20.736  13.224  10.472  0.00  0.00     0.118 A 
HETATM    7  N   UNK N   1      23.298  13.338   8.021  0.00  0.00    -0.340 N 
ATOM      8  HN  UNK N   1      24.048  12.671   8.198  1.00  0.00     0.167 HD
HETATM    9  C   UNK N   1      23.332  14.158   6.914  0.00  0.00     0.053 A 
HETATM   10  C   UNK N   1      22.292  15.052   6.713  0.00  0.00     0.080 A 
HETATM   11  C   UNK N   1      21.234  15.129   7.598  0.00  0.00     0.127 A 
ENDROOT
BRANCH  11  12
HETATM   12  N   UNK N   1      20.170  16.010   7.326  0.00  0.00    -0.370 N 
HETATM   13  H   UNK N   1      19.344  15.703   6.888  0.00  0.00     0.161 HD
BRANCH  12  14
HETATM   14  C   UNK N   1      20.352  17.385   7.721  0.00  0.00     0.162 C 
BRANCH  14  15
HETATM   15  C   UNK N   1      19.541  17.798   8.877  0.00  0.00    -0.009 A 
HETATM   16  C   UNK N   1      19.927  18.939   9.568  0.00  0.00     0.116 A 
HETATM   17  N   UNK N   1      19.082  19.500  10.465  0.00  0.00    -0.202 N 
HETATM   18  C   UNK N   1      17.854  18.963  10.685  0.00  0.00     0.675 A 
ATOM     19  HN  UNK N   1      19.369  20.332  10.979  1.00  0.00     0.183 HD
HETATM   20  N   UNK N   1      17.482  17.816  10.056  0.00  0.00    -0.202 N 
HETATM   21  N   UNK N   1      16.938  19.635  11.514  0.00  0.00    -0.234 N 
HETATM   22  C   UNK N   1      18.303  17.225   9.153  0.00  0.00     0.116 A 
ATOM     23  HN  UNK N   1      16.576  17.396  10.265  1.00  0.00     0.183 HD
HETATM   24  H   UNK N   1      16.013  19.314  11.621  0.00  0.00     0.174 HD
HETATM   25  H   UNK N   1      17.227  20.442  11.997  0.00  0.00     0.174 HD
ENDBRANCH  14  15
ENDBRANCH  12  14
ENDBRANCH  11  12
BRANCH   9  26
HETATM   26  C   UNK N   1      24.411  14.097   5.877  0.00  0.00     0.068 A 
HETATM   27  C   UNK N   1      25.577  14.878   6.002  0.00  0.00     0.132 A 
HETATM   28  F   UNK N   1      25.746  15.717   7.051  0.00  0.00    -0.205 F 
HETATM   29  C   UNK N   1      26.587  14.793   5.039  0.00  0.00     0.043 A 
HETATM   30  C   UNK N   1      26.459  13.939   3.944  0.00  0.00     0.006 A 
HETATM   31  C   UNK N   1      25.315  13.163   3.799  0.00  0.00     0.043 A 
HETATM   32  C   UNK N   1      24.294  13.231   4.744  0.00  0.00     0.132 A 
HETATM   33  F   UNK N   1      23.206  12.442   4.543  0.00  0.00    -0.205 F 
ENDBRANCH   9  26
BRANCH   1  34
HETATM   34  C   UNK N   1      22.790  11.631  10.617  0.00  0.00     0.039 C 
HETATM   35  C   UNK N   1      23.063  11.869  12.093  0.00  0.00     0.010 C 
ENDBRANCH   1  34
TORSDOF 5
ENDMDL
MODEL 5
REMARK VINA RESULT:      -7.5      5.538      7.441
REMARK  5 active torsions:
REMARK  status: ('A' for Active; 'I' for Inactive)
REMARK    1  A    between atoms: C_1  and  C_28 
REMARK    2  A    between atoms: C_9  and  C_13 
REMARK    3  A    between atoms: N_12  and  C_11 
REMARK    4  A    between atoms: N_12  and  C_14 
REMARK    5  A    between atoms: C_15  and  C_14 
REMARK       I    between atoms: N_29  and  C_19 
ROOT
HETATM    1  C   UNK N   1      25.098  18.310   4.000  0.00  0.00     0.004 A 
HETATM    2  C   UNK N   1      25.804  17.629   4.962  0.00  0.00     0.137 A 
HETATM    3  N   UNK N   1      25.069  16.587   5.369  0.00  0.00    -0.224 N 
HETATM    4  N   UNK N   1      23.920  16.552   4.721  0.00  0.00    -0.301 N 
ATOM      5  HN  UNK N   1      23.181  15.859   4.843  1.00  0.00     0.186 HD
HETATM    6  C   UNK N   1      23.899  17.603   3.861  0.00  0.00     0.118 A 
HETATM    7  N   UNK N   1      27.030  17.901   5.501  0.00  0.00    -0.340 N 
ATOM      8  HN  UNK N   1      27.575  18.701   5.177  1.00  0.00     0.167 HD
HETATM    9  C   UNK N   1      27.516  17.074   6.490  0.00  0.00     0.053 A 
HETATM   10  C   UNK N   1      26.743  15.998   6.899  0.00  0.00     0.080 A 
HETATM   11  C   UNK N   1      25.507  15.749   6.333  0.00  0.00     0.127 A 
ENDROOT
BRANCH  11  12
HETATM   12  N   UNK N   1      24.730  14.680   6.817  0.00  0.00    -0.370 N 
HETATM   13  H   UNK N   1      23.781  14.578   6.575  0.00  0.00     0.161 HD
BRANCH  12  14
HETATM   14  C   UNK N   1      25.394  13.741   7.688  0.00  0.00     0.162 C 
BRANCH  14  15
HETATM   15  C   UNK N   1      24.497  13.030   8.613  0.00  0.00    -0.009 A 
HETATM   16  C   UNK N   1      24.832  13.012   9.960  0.00  0.00     0.116 A 
HETATM   17  N   UNK N   1      23.922  12.601  10.874  0.00  0.00    -0.202 N 
HETATM   18  C   UNK N   1      22.678  12.216  10.485  0.00  0.00     0.675 A 
ATOM     19  HN  UNK N   1      24.172  12.580  11.862  1.00  0.00     0.183 HD
HETATM   20  N   UNK N   1      22.353  12.177   9.165  0.00  0.00    -0.202 N 
HETATM   21  N   UNK N   1      21.703  11.926  11.455  0.00  0.00    -0.234 N 
HETATM   22  C   UNK N   1      23.240  12.579   8.222  0.00  0.00     0.116 A 
ATOM     23  HN  UNK N   1      21.432  11.841   8.882  1.00  0.00     0.183 HD
HETATM   24  H   UNK N   1      20.772  11.729  11.203  0.00  0.00     0.174 HD
HETATM   25  H   UNK N   1      21.957  11.918  12.407  0.00  0.00     0.174 HD
ENDBRANCH  14  15
ENDBRANCH  12  14
ENDBRANCH  11  12
BRANCH   9  26
HETATM   26  C   UNK N   1      28.817  17.306   7.193  0.00  0.00     0.068 A 
HETATM   27  C   UNK N   1      29.987  16.636   6.787  0.00  0.00     0.132 A 
HETATM   28  F   UNK N   1      29.965  15.750   5.763  0.00  0.00    -0.205 F 
HETATM   29  C   UNK N   1      31.200  16.881   7.437  0.00  0.00     0.043 A 
HETATM   30  C   UNK N   1      31.273  17.788   8.494  0.00  0.00     0.006 A 
HETATM   31  C   UNK N   1      30.130  18.457   8.914  0.00  0.00     0.043 A 
HETATM   32  C   UNK N   1      28.909  18.229   8.283  0.00  0.00     0.132 A 
HETATM   33  F   UNK N   1      27.833  18.921   8.742  0.00  0.00    -0.205 F 
ENDBRANCH   9  26
BRANCH   1  34
HETATM   34  C   UNK N   1      25.525  19.552   3.283  0.00  0.00     0.039 C 
HETATM   35  C   UNK N   1      24.359  20.496   3.038  0.00  0.00     0.010 C 
ENDBRANCH   1  34
TORSDOF 5
ENDMDL
MODEL 6
REMARK VINA RESULT:      -7.5     16.263     18.638
REMARK  5 active torsions:
REMARK  status: ('A' for Active; 'I' for Inactive)
REMARK    1  A    between atoms: C_1  and  C_28 
REMARK    2  A    between atoms: C_9  and  C_13 
REMARK    3  A    between atoms: N_12  and  C_11 
REMARK    4  A    between atoms: N_12  and  C_14 
REMARK    5  A    between atoms: C_15  and  C_14 
REMARK       I    between atoms: N_29  and  C_19 
ROOT
HETATM    1  C   UNK N   1      35.897  12.988  15.847  0.00  0.00     0.004 A 
HETATM    2  C   UNK N   1      35.996  12.367  14.625  0.00  0.00     0.137 A 
HETATM    3  N   UNK N   1      36.662  13.175  13.793  0.00  0.00    -0.224 N 
HETATM    4  N   UNK N   1      37.004  14.291  14.407  0.00  0.00    -0.301 N 
ATOM      5  HN  UNK N   1      37.519  15.071  13.996  1.00  0.00     0.186 HD
HETATM    6  C   UNK N   1      36.549  14.216  15.684  0.00  0.00     0.118 A 
HETATM    7  N   UNK N   1      35.509  11.156  14.221  0.00  0.00    -0.340 N 
ATOM      8  HN  UNK N   1      35.004  10.555  14.872  1.00  0.00     0.167 HD
HETATM    9  C   UNK N   1      35.716  10.763  12.917  0.00  0.00     0.053 A 
HETATM   10  C   UNK N   1      36.409  11.610  12.066  0.00  0.00     0.080 A 
HETATM   11  C   UNK N   1      36.889  12.829  12.507  0.00  0.00     0.127 A 
ENDROOT
BRANCH  11  12
HETATM   12  N   UNK N   1      37.538  13.684  11.595  0.00  0.00    -0.370 N 
HETATM   13  H   UNK N   1      38.304  14.241  11.864  0.00  0.00     0.161 HD
BRANCH  12  14
HETATM   14  C   UNK N   1      37.023  13.704  10.249  0.00  0.00     0.162 C 
BRANCH  14  15
HETATM   15  C   UNK N   1      36.260  14.915   9.906  0.00  0.00    -0.009 A 
HETATM   16  C   UNK N   1      35.622  14.956   8.674  0.00  0.00     0.116 A 
HETATM   17  N   UNK N   1      34.709  15.923   8.421  0.00  0.00    -0.202 N 
HETATM   18  C   UNK N   1      34.403  16.847   9.368  0.00  0.00     0.675 A 
ATOM     19  HN  UNK N   1      34.247  15.958   7.513  1.00  0.00     0.183 HD
HETATM   20  N   UNK N   1      35.058  16.853  10.560  0.00  0.00    -0.202 N 
HETATM   21  N   UNK N   1      33.356  17.757   9.140  0.00  0.00    -0.234 N 
HETATM   22  C   UNK N   1      35.980  15.902  10.847  0.00  0.00     0.116 A 
ATOM     23  HN  UNK N   1      34.854  17.581  11.245  1.00  0.00     0.183 HD
HETATM   24  H   UNK N   1      33.057  18.380   9.843  0.00  0.00     0.174 HD
HETATM   25  H   UNK N   1      32.913  17.773   8.261  0.00  0.00     0.174 HD
ENDBRANCH  14  15
ENDBRANCH  12  14
ENDBRANCH  11  12
BRANCH   9  26
HETATM   26  C   UNK N   1      35.179   9.487  12.346  0.00  0.00     0.068 A 
HETATM   27  C   UNK N   1      35.703   8.242  12.743  0.00  0.00     0.132 A 
HETATM   28  F   UNK N   1      36.717   8.164  13.638  0.00  0.00    -0.205 F 
HETATM   29  C   UNK N   1      35.176   7.057  12.221  0.00  0.00     0.043 A 
HETATM   30  C   UNK N   1      34.128   7.087  11.301  0.00  0.00     0.006 A 
HETATM   31  C   UNK N   1      33.599   8.305  10.891  0.00  0.00     0.043 A 
HETATM   32  C   UNK N   1      34.108   9.499  11.397  0.00  0.00     0.132 A 
HETATM   33  F   UNK N   1      33.541  10.653  10.957  0.00  0.00    -0.205 F 
ENDBRANCH   9  26
BRANCH   1  34
HETATM   34  C   UNK N   1      35.214  12.462  17.070  0.00  0.00     0.039 C 
HETATM   35  C   UNK N   1      35.170  13.494  18.185  0.00  0.00     0.010 C 
ENDBRANCH   1  34
TORSDOF 5
ENDMDL
MODEL 7
REMARK VINA RESULT:      -7.4     16.531     18.624
REMARK  5 active torsions:
REMARK  status: ('A' for Active; 'I' for Inactive)
REMARK    1  A    between atoms: C_1  and  C_28 
REMARK    2  A    between atoms: C_9  and  C_13 
REMARK    3  A    between atoms: N_12  and  C_11 
REMARK    4  A    between atoms: N_12  and  C_14 
REMARK    5  A    between atoms: C_15  and  C_14 
REMARK       I    between atoms: N_29  and  C_19 
ROOT
HETATM    1  C   UNK N   1      37.741  10.146  12.828  0.00  0.00     0.004 A 
HETATM    2  C   UNK N   1      37.292  11.383  13.222  0.00  0.00     0.137 A 
HETATM    3  N   UNK N   1      37.209  12.167  12.141  0.00  0.00    -0.224 N 
HETATM    4  N   UNK N   1      37.579  11.506  11.062  0.00  0.00    -0.301 N 
ATOM      5  HN  UNK N   1      37.607  11.874  10.110  1.00  0.00     0.186 HD
HETATM    6  C   UNK N   1      37.917  10.247  11.444  0.00  0.00     0.118 A 
HETATM    7  N   UNK N   1      36.987  11.842  14.473  0.00  0.00    -0.340 N 
ATOM      8  HN  UNK N   1      37.057  11.227  15.284  1.00  0.00     0.167 HD
HETATM    9  C   UNK N   1      36.580  13.150  14.615  0.00  0.00     0.053 A 
HETATM   10  C   UNK N   1      36.497  13.950  13.486  0.00  0.00     0.080 A 
HETATM   11  C   UNK N   1      36.813  13.455  12.234  0.00  0.00     0.127 A 
ENDROOT
BRANCH  11  12
HETATM   12  N   UNK N   1      36.771  14.317  11.122  0.00  0.00    -0.370 N 
HETATM   13  H   UNK N   1      37.109  14.040  10.240  0.00  0.00     0.161 HD
BRANCH  12  14
HETATM   14  C   UNK N   1      36.206  15.626  11.339  0.00  0.00     0.162 C 
BRANCH  14  15
HETATM   15  C   UNK N   1      34.889  15.832  10.715  0.00  0.00    -0.009 A 
HETATM   16  C   UNK N   1      34.754  16.877   9.812  0.00  0.00     0.116 A 
HETATM   17  N   UNK N   1      33.653  16.949   9.027  0.00  0.00    -0.202 N 
HETATM   18  C   UNK N   1      32.684  16.000   9.109  0.00  0.00     0.675 A 
ATOM     19  HN  UNK N   1      33.549  17.722   8.370  1.00  0.00     0.183 HD
HETATM   20  N   UNK N   1      32.777  15.000  10.026  0.00  0.00    -0.202 N 
HETATM   21  N   UNK N   1      31.617  16.013   8.193  0.00  0.00    -0.234 N 
HETATM   22  C   UNK N   1      33.864  14.898  10.830  0.00  0.00     0.116 A 
ATOM     23  HN  UNK N   1      32.021  14.321  10.111  1.00  0.00     0.183 HD
HETATM   24  H   UNK N   1      30.950  15.289   8.174  0.00  0.00     0.174 HD
HETATM   25  H   UNK N   1      31.535  16.761   7.559  0.00  0.00     0.174 HD
ENDBRANCH  14  15
ENDBRANCH  12  14
ENDBRANCH  11  12
BRANCH   9  26
HETATM   26  C   UNK N   1      36.277  13.780  15.939  0.00  0.00     0.068 A 
HETATM   27  C   UNK N   1      36.894  14.986  16.324  0.00  0.00     0.132 A 
HETATM   28  F   UNK N   1      37.793  15.599  15.517  0.00  0.00    -0.205 F 
HETATM   29  C   UNK N   1      36.583  15.575  17.553  0.00  0.00     0.043 A 
HETATM   30  C   UNK N   1      35.661  14.983  18.415  0.00  0.00     0.006 A 
HETATM   31  C   UNK N   1      35.042  13.791  18.057  0.00  0.00     0.043 A 
HETATM   32  C   UNK N   1      35.337  13.183  16.838  0.00  0.00     0.132 A 
HETATM   33  F   UNK N   1      34.693  12.022  16.551  0.00  0.00    -0.205 F 
ENDBRANCH   9  26
BRANCH   1  34
HETATM   34  C   UNK N   1      38.005   8.963  13.707  0.00  0.00     0.039 C 
HETATM   35  C   UNK N   1      36.724   8.233  14.077  0.00  0.00     0.010 C 
ENDBRANCH   1  34
TORSDOF 5
ENDMDL
MODEL 8
REMARK VINA RESULT:      -7.4     17.088     19.174
REMARK  5 active torsions:
REMARK  status: ('A' for Active; 'I' for Inactive)
REMARK    1  A    between atoms: C_1  and  C_28 
REMARK    2  A    between atoms: C_9  and  C_13 
REMARK    3  A    between atoms: N_12  and  C_11 
REMARK    4  A    between atoms: N_12  and  C_14 
REMARK    5  A    between atoms: C_15  and  C_14 
REMARK       I    between atoms: N_29  and  C_19 
ROOT
HETATM    1  C   UNK N   1      38.224   9.591  13.648  0.00  0.00     0.004 A 
HETATM    2  C   UNK N   1      37.534  10.766  13.822  0.00  0.00     0.137 A 
HETATM    3  N   UNK N   1      37.168  11.224  12.620  0.00  0.00    -0.224 N 
HETATM    4  N   UNK N   1      37.582  10.409  11.669  0.00  0.00    -0.301 N 
ATOM      5  HN  UNK N   1      37.434  10.528  10.667  1.00  0.00     0.186 HD
HETATM    6  C   UNK N   1      38.242   9.382  12.265  0.00  0.00     0.118 A 
HETATM    7  N   UNK N   1      37.245  11.446  14.972  0.00  0.00    -0.340 N 
ATOM      8  HN  UNK N   1      37.533  11.079  15.880  1.00  0.00     0.167 HD
HETATM    9  C   UNK N   1      36.557  12.635  14.881  0.00  0.00     0.053 A 
HETATM   10  C   UNK N   1      36.183  13.096  13.629  0.00  0.00     0.080 A 
HETATM   11  C   UNK N   1      36.490  12.384  12.484  0.00  0.00     0.127 A 
ENDROOT
BRANCH  11  12
HETATM   12  N   UNK N   1      36.143  12.916  11.228  0.00  0.00    -0.370 N 
HETATM   13  H   UNK N   1      35.432  12.517  10.675  0.00  0.00     0.161 HD
BRANCH  12  14
HETATM   14  C   UNK N   1      36.880  14.076  10.790  0.00  0.00     0.162 C 
BRANCH  14  15
HETATM   15  C   UNK N   1      36.053  15.128  10.179  0.00  0.00    -0.009 A 
HETATM   16  C   UNK N   1      35.393  14.831   8.994  0.00  0.00     0.116 A 
HETATM   17  N   UNK N   1      34.429  15.663   8.534  0.00  0.00    -0.202 N 
HETATM   18  C   UNK N   1      34.093  16.781   9.230  0.00  0.00     0.675 A 
ATOM     19  HN  UNK N   1      33.951  15.449   7.659  1.00  0.00     0.183 HD
HETATM   20  N   UNK N   1      34.767  17.113  10.363  0.00  0.00    -0.202 N 
HETATM   21  N   UNK N   1      32.998  17.558   8.812  0.00  0.00    -0.234 N 
HETATM   22  C   UNK N   1      35.740  16.305  10.852  0.00  0.00     0.116 A 
ATOM     23  HN  UNK N   1      34.539  17.980  10.851  1.00  0.00     0.183 HD
HETATM   24  H   UNK N   1      32.680  18.322   9.346  0.00  0.00     0.174 HD
HETATM   25  H   UNK N   1      32.541  17.334   7.970  0.00  0.00     0.174 HD
ENDBRANCH  14  15
ENDBRANCH  12  14
ENDBRANCH  11  12
BRANCH   9  26
HETATM   26  C   UNK N   1      36.237  13.495  16.065  0.00  0.00     0.068 A 
HETATM   27  C   UNK N   1      35.308  13.071  17.035  0.00  0.00     0.132 A 
HETATM   28  F   UNK N   1      34.665  11.884  16.915  0.00  0.00    -0.205 F 
HETATM   29  C   UNK N   1      35.036  13.872  18.148  0.00  0.00     0.043 A 
HETATM   30  C   UNK N   1      35.677  15.099  18.316  0.00  0.00     0.006 A 
HETATM   31  C   UNK N   1      36.594  15.539  17.370  0.00  0.00     0.043 A 
HETATM   32  C   UNK N   1      36.880  14.759  16.251  0.00  0.00     0.132 A 
HETATM   33  F   UNK N   1      37.790  15.248  15.368  0.00  0.00    -0.205 F 
ENDBRANCH   9  26
BRANCH   1  34
HETATM   34  C   UNK N   1      38.839   8.743  14.717  0.00  0.00     0.039 C 
HETATM   35  C   UNK N   1      37.812   7.853  15.399  0.00  0.00     0.010 C 
ENDBRANCH   1  34
TORSDOF 5
ENDMDL
MODEL 9
REMARK VINA RESULT:      -7.3      7.697     10.336
REMARK  5 active torsions:
REMARK  status: ('A' for Active; 'I' for Inactive)
REMARK    1  A    between atoms: C_1  and  C_28 
REMARK    2  A    between atoms: C_9  and  C_13 
REMARK    3  A    between atoms: N_12  and  C_11 
REMARK    4  A    between atoms: N_12  and  C_14 
REMARK    5  A    between atoms: C_15  and  C_14 
REMARK       I    between atoms: N_29  and  C_19 
ROOT
HETATM    1  C   UNK N   1      27.866  15.061   2.351  0.00  0.00     0.004 A 
HETATM    2  C   UNK N   1      28.373  16.038   3.173  0.00  0.00     0.137 A 
HETATM    3  N   UNK N   1      29.672  15.789   3.376  0.00  0.00    -0.224 N 
HETATM    4  N   UNK N   1      30.040  14.701   2.728  0.00  0.00    -0.301 N 
ATOM      5  HN  UNK N   1      30.975  14.294   2.717  1.00  0.00     0.186 HD
HETATM    6  C   UNK N   1      28.949  14.218   2.079  0.00  0.00     0.118 A 
HETATM    7  N   UNK N   1      27.741  17.100   3.759  0.00  0.00    -0.340 N 
ATOM      8  HN  UNK N   1      26.750  17.272   3.591  1.00  0.00     0.167 HD
HETATM    9  C   UNK N   1      28.471  17.932   4.578  0.00  0.00     0.053 A 
HETATM   10  C   UNK N   1      29.816  17.662   4.777  0.00  0.00     0.080 A 
HETATM   11  C   UNK N   1      30.425  16.580   4.170  0.00  0.00     0.127 A 
ENDROOT
BRANCH  11  12
HETATM   12  N   UNK N   1      31.779  16.308   4.445  0.00  0.00    -0.370 N 
HETATM   13  H   UNK N   1      32.234  15.519   4.072  0.00  0.00     0.161 HD
BRANCH  12  14
HETATM   14  C   UNK N   1      32.466  17.244   5.300  0.00  0.00     0.162 C 
BRANCH  14  15
HETATM   15  C   UNK N   1      32.819  16.710   6.625  0.00  0.00    -0.009 A 
HETATM   16  C   UNK N   1      32.571  17.507   7.735  0.00  0.00     0.116 A 
HETATM   17  N   UNK N   1      32.635  16.971   8.976  0.00  0.00    -0.202 N 
HETATM   18  C   UNK N   1      32.930  15.655   9.145  0.00  0.00     0.675 A 
ATOM     19  HN  UNK N   1      32.462  17.558   9.791  1.00  0.00     0.183 HD
HETATM   20  N   UNK N   1      33.229  14.875   8.072  0.00  0.00    -0.202 N 
HETATM   21  N   UNK N   1      32.857  15.084  10.427  0.00  0.00    -0.234 N 
HETATM   22  C   UNK N   1      33.176  15.379   6.814  0.00  0.00     0.116 A 
ATOM     23  HN  UNK N   1      33.495  13.900   8.214  1.00  0.00     0.183 HD
HETATM   24  H   UNK N   1      32.980  14.116  10.565  0.00  0.00     0.174 HD
HETATM   25  H   UNK N   1      32.680  15.663  11.204  0.00  0.00     0.174 HD
ENDBRANCH  14  15
ENDBRANCH  12  14
ENDBRANCH  11  12
BRANCH   9  26
HETATM   26  C   UNK N   1      27.875  19.089   5.319  0.00  0.00     0.068 A 
HETATM   27  C   UNK N   1      27.864  19.117   6.727  0.00  0.00     0.132 A 
HETATM   28  F   UNK N   1      28.373  18.091   7.449  0.00  0.00    -0.205 F 
HETATM   29  C   UNK N   1      27.326  20.214   7.406  0.00  0.00     0.043 A 
HETATM   30  C   UNK N   1      26.795  21.296   6.704  0.00  0.00     0.006 A 
HETATM   31  C   UNK N   1      26.792  21.288   5.314  0.00  0.00     0.043 A 
HETATM   32  C   UNK N   1      27.320  20.205   4.615  0.00  0.00     0.132 A 
HETATM   33  F   UNK N   1      27.289  20.266   3.258  0.00  0.00    -0.205 F 
ENDBRANCH   9  26
BRANCH   1  34
HETATM   34  C   UNK N   1      26.452  14.929   1.878  0.00  0.00     0.039 C 
HETATM   35  C   UNK N   1      25.937  13.505   2.017  0.00  0.00     0.010 C 
ENDBRANCH   1  34
TORSDOF 5
ENDMDL
