REMARK  5 active torsions:
REMARK  status: ('A' for Active; 'I' for Inactive)
REMARK    1  A    between atoms: C_1  and  C_28 
REMARK    2  A    between atoms: C_9  and  C_13 
REMARK    3  A    between atoms: N_12  and  C_11 
REMARK    4  A    between atoms: N_12  and  C_14 
REMARK    5  A    between atoms: C_15  and  C_14 
REMARK       I    between atoms: N_29  and  C_19 
ROOT
HETATM    1  C   UNK N   1      -3.245   2.369   0.218  0.00  0.00     0.004 A 
HETATM    2  C   UNK N   1      -1.944   1.930   0.181  0.00  0.00     0.137 A 
HETATM    3  N   UNK N   1      -1.940   0.603   0.350  0.00  0.00    -0.224 N 
HETATM    4  N   UNK N   1      -3.171   0.152   0.494  0.00  0.00    -0.301 N 
ATOM      5  HN  UNK N   1      -3.443  -0.821   0.637  1.00  0.00     0.186 HD
HETATM    6  C   UNK N   1      -4.012   1.216   0.418  0.00  0.00     0.118 A 
HETATM    7  N   UNK N   1      -0.787   2.643   0.035  0.00  0.00    -0.340 N 
ATOM      8  HN  UNK N   1      -0.812   3.655  -0.093  1.00  0.00     0.167 HD
HETATM    9  C   UNK N   1       0.413   1.967   0.062  0.00  0.00     0.053 A 
HETATM   10  C   UNK N   1       0.401   0.592   0.236  0.00  0.00     0.080 A 
HETATM   11  C   UNK N   1      -0.787  -0.100   0.381  0.00  0.00     0.127 A 
ENDROOT
BRANCH  11  12
HETATM   12  N   UNK N   1      -0.752  -1.488   0.613  0.00  0.00    -0.370 N 
HETATM   13  H   UNK N   1      -1.574  -2.029   0.640  0.00  0.00     0.161 HD
BRANCH  12  14
HETATM   14  C   UNK N   1       0.549  -2.078   0.810  0.00  0.00     0.162 C 
BRANCH  14  15
HETATM   15  C   UNK N   1       0.750  -3.356   0.109  0.00  0.00    -0.009 A 
HETATM   16  C   UNK N   1       2.027  -3.901   0.103  0.00  0.00     0.116 A 
HETATM   17  N   UNK N   1       2.210  -5.181  -0.298  0.00  0.00    -0.202 N 
HETATM   18  C   UNK N   1       1.152  -5.941  -0.684  0.00  0.00     0.675 A 
ATOM     19  HN  UNK N   1       3.149  -5.578  -0.311  1.00  0.00     0.183 HD
HETATM   20  N   UNK N   1      -0.097  -5.405  -0.735  0.00  0.00    -0.202 N 
HETATM   21  N   UNK N   1       1.340  -7.306  -0.964  0.00  0.00    -0.234 N 
HETATM   22  C   UNK N   1      -0.317  -4.126  -0.343  0.00  0.00     0.116 A 
ATOM     23  HN  UNK N   1      -0.876  -5.971  -1.072  1.00  0.00     0.183 HD
HETATM   24  H   UNK N   1       0.578  -7.898  -1.161  0.00  0.00     0.174 HD
HETATM   25  H   UNK N   1       2.252  -7.677  -0.964  0.00  0.00     0.174 HD
ENDBRANCH  14  15
ENDBRANCH  12  14
ENDBRANCH  11  12
BRANCH   9  26
HETATM   26  C   UNK N   1       1.744   2.647  -0.029  0.00  0.00     0.068 A 
HETATM   27  C   UNK N   1       1.832   4.045  -0.176  0.00  0.00     0.132 A 
HETATM   28  F   UNK N   1       0.717   4.810  -0.258  0.00  0.00    -0.205 F 
HETATM   29  C   UNK N   1       3.081   4.670  -0.235  0.00  0.00     0.043 A 
HETATM   30  C   UNK N   1       4.256   3.924  -0.150  0.00  0.00     0.006 A 
HETATM   31  C   UNK N   1       4.193   2.543  -0.009  0.00  0.00     0.043 A 
HETATM   32  C   UNK N   1       2.960   1.897   0.051  0.00  0.00     0.132 A 
HETATM   33  F   UNK N   1       2.972   0.546   0.194  0.00  0.00    -0.205 F 
ENDBRANCH   9  26
BRANCH   1  34
HETATM   34  C   UNK N   1      -3.721   3.783   0.094  0.00  0.00     0.039 C 
HETATM   35  C   UNK N   1      -5.227   3.893   0.267  0.00  0.00     0.010 C 
ENDBRANCH   1  34
TORSDOF 5
