MODEL 1
REMARK VINA RESULT:      -7.3      0.000      0.000
REMARK  5 active torsions:
REMARK  status: ('A' for Active; 'I' for Inactive)
REMARK    1  A    between atoms: C_1  and  C_27 
REMARK    2  A    between atoms: C_9  and  C_13 
REMARK    3  A    between atoms: N_12  and  C_11 
REMARK    4  A    between atoms: N_12  and  C_14 
REMARK    5  A    between atoms: C_15  and  C_14 
ROOT
HETATM    1  C   UNK N   1      21.987  13.475   8.361  0.00  0.00     0.009 A 
HETATM    2  C   UNK N   1      21.431  14.719   8.122  0.00  0.00     0.137 A 
HETATM    3  N   UNK N   1      21.921  15.193   6.972  0.00  0.00    -0.224 N 
HETATM    4  N   UNK N   1      22.775  14.330   6.453  0.00  0.00    -0.301 N 
ATOM      5  HN  UNK N   1      23.293  14.448   5.582  1.00  0.00     0.186 HD
HETATM    6  C   UNK N   1      22.841  13.255   7.281  0.00  0.00     0.119 A 
HETATM    7  N   UNK N   1      20.537  15.427   8.861  0.00  0.00    -0.340 N 
ATOM      8  HN  UNK N   1      20.185  15.057   9.744  1.00  0.00     0.167 HD
HETATM    9  C   UNK N   1      20.115  16.649   8.400  0.00  0.00     0.047 A 
HETATM   10  C   UNK N   1      20.604  17.141   7.171  0.00  0.00     0.080 A 
HETATM   11  C   UNK N   1      21.535  16.389   6.460  0.00  0.00     0.127 A 
ENDROOT
BRANCH  11  12
HETATM   12  N   UNK N   1      22.080  16.894   5.260  0.00  0.00    -0.370 N 
HETATM   13  H   UNK N   1      22.220  16.298   4.489  0.00  0.00     0.161 HD
BRANCH  12  14
HETATM   14  C   UNK N   1      22.429  18.287   5.174  0.00  0.00     0.161 C 
BRANCH  14  15
HETATM   15  C   UNK N   1      21.785  18.943   4.005  0.00  0.00    -0.025 A 
HETATM   16  C   UNK N   1      20.442  18.717   3.687  0.00  0.00     0.011 A 
HETATM   17  C   UNK N   1      19.871  19.380   2.598  0.00  0.00     0.018 A 
HETATM   18  C   UNK N   1      20.650  20.270   1.854  0.00  0.00     0.087 A 
HETATM   19  N   UNK N   1      21.953  20.481   2.187  0.00  0.00    -0.375 N 
HETATM   20  C   UNK N   1      22.528  19.840   3.238  0.00  0.00     0.096 A 
ATOM     21  HN  UNK N   1      22.509  21.136   1.636  1.00  0.00     0.164 HD
ENDBRANCH  14  15
ENDBRANCH  12  14
ENDBRANCH  11  12
BRANCH   9  22
HETATM   22  C   UNK N   1      19.188  17.482   9.195  0.00  0.00    -0.009 A 
HETATM   23  C   UNK N   1      17.857  17.084   9.394  0.00  0.00     0.013 A 
HETATM   24  C   UNK N   1      16.998  17.865  10.174  0.00  0.00     0.001 A 
HETATM   25  C   UNK N   1      17.460  19.050  10.756  0.00  0.00     0.000 A 
HETATM   26  C   UNK N   1      18.781  19.455  10.561  0.00  0.00     0.001 A 
HETATM   27  C   UNK N   1      19.641  18.673   9.789  0.00  0.00     0.013 A 
ENDBRANCH   9  22
BRANCH   1  28
HETATM   28  C   UNK N   1      21.767  12.492   9.480  0.00  0.00     0.024 A 
HETATM   29  C   UNK N   1      22.981  11.596   9.633  0.00  0.00     0.010 A 
HETATM   30  C   UNK N   1      22.719  12.688  10.646  0.00  0.00     0.010 A 
ENDBRANCH   1  28
TORSDOF 5
ENDMDL
MODEL 2
REMARK VINA RESULT:      -7.2     13.812     16.721
REMARK  5 active torsions:
REMARK  status: ('A' for Active; 'I' for Inactive)
REMARK    1  A    between atoms: C_1  and  C_27 
REMARK    2  A    between atoms: C_9  and  C_13 
REMARK    3  A    between atoms: N_12  and  C_11 
REMARK    4  A    between atoms: N_12  and  C_14 
REMARK    5  A    between atoms: C_15  and  C_14 
ROOT
HETATM    1  C   UNK N   1      35.511   9.672  12.353  0.00  0.00     0.009 A 
HETATM    2  C   UNK N   1      35.684  10.727  13.231  0.00  0.00     0.137 A 
HETATM    3  N   UNK N   1      36.113  11.790  12.544  0.00  0.00    -0.224 N 
HETATM    4  N   UNK N   1      36.240  11.484  11.266  0.00  0.00    -0.301 N 
ATOM      5  HN  UNK N   1      36.555  12.111  10.527  1.00  0.00     0.186 HD
HETATM    6  C   UNK N   1      35.876  10.184  11.108  0.00  0.00     0.119 A 
HETATM    7  N   UNK N   1      35.483  10.781  14.574  0.00  0.00    -0.340 N 
ATOM      8  HN  UNK N   1      35.169   9.955  15.085  1.00  0.00     0.167 HD
HETATM    9  C   UNK N   1      35.708  11.963  15.232  0.00  0.00     0.047 A 
HETATM   10  C   UNK N   1      36.131  13.099  14.508  0.00  0.00     0.080 A 
HETATM   11  C   UNK N   1      36.344  12.989  13.136  0.00  0.00     0.127 A 
ENDROOT
BRANCH  11  12
HETATM   12  N   UNK N   1      36.825  14.098  12.408  0.00  0.00    -0.370 N 
HETATM   13  H   UNK N   1      37.611  14.004  11.823  0.00  0.00     0.161 HD
BRANCH  12  14
HETATM   14  C   UNK N   1      36.156  15.365  12.526  0.00  0.00     0.161 C 
BRANCH  14  15
HETATM   15  C   UNK N   1      35.292  15.643  11.347  0.00  0.00    -0.025 A 
HETATM   16  C   UNK N   1      34.355  14.711  10.891  0.00  0.00     0.011 A 
HETATM   17  C   UNK N   1      33.544  15.027   9.800  0.00  0.00     0.018 A 
HETATM   18  C   UNK N   1      33.673  16.279   9.191  0.00  0.00     0.087 A 
HETATM   19  N   UNK N   1      34.585  17.174   9.658  0.00  0.00    -0.375 N 
HETATM   20  C   UNK N   1      35.389  16.882  10.714  0.00  0.00     0.096 A 
ATOM     21  HN  UNK N   1      34.667  18.085   9.205  1.00  0.00     0.164 HD
ENDBRANCH  14  15
ENDBRANCH  12  14
ENDBRANCH  11  12
BRANCH   9  22
HETATM   22  C   UNK N   1      35.558  12.057  16.700  0.00  0.00    -0.009 A 
HETATM   23  C   UNK N   1      35.732  10.925  17.511  0.00  0.00     0.013 A 
HETATM   24  C   UNK N   1      35.619  11.033  18.903  0.00  0.00     0.001 A 
HETATM   25  C   UNK N   1      35.328  12.268  19.490  0.00  0.00     0.000 A 
HETATM   26  C   UNK N   1      35.151  13.398  18.691  0.00  0.00     0.001 A 
HETATM   27  C   UNK N   1      35.270  13.293  17.304  0.00  0.00     0.013 A 
ENDBRANCH   9  22
BRANCH   1  28
HETATM   28  C   UNK N   1      35.021   8.267  12.579  0.00  0.00     0.024 A 
HETATM   29  C   UNK N   1      35.915   7.280  11.854  0.00  0.00     0.010 A 
HETATM   30  C   UNK N   1      36.000   7.408  13.359  0.00  0.00     0.010 A 
ENDBRANCH   1  28
TORSDOF 5
ENDMDL
MODEL 3
REMARK VINA RESULT:      -7.1      1.628      6.564
REMARK  5 active torsions:
REMARK  status: ('A' for Active; 'I' for Inactive)
REMARK    1  A    between atoms: C_1  and  C_27 
REMARK    2  A    between atoms: C_9  and  C_13 
REMARK    3  A    between atoms: N_12  and  C_11 
REMARK    4  A    between atoms: N_12  and  C_14 
REMARK    5  A    between atoms: C_15  and  C_14 
ROOT
HETATM    1  C   UNK N   1      22.513  17.514   5.331  0.00  0.00     0.009 A 
HETATM    2  C   UNK N   1      21.761  17.003   6.374  0.00  0.00     0.137 A 
HETATM    3  N   UNK N   1      22.033  15.701   6.501  0.00  0.00    -0.224 N 
HETATM    4  N   UNK N   1      22.914  15.331   5.590  0.00  0.00    -0.301 N 
ATOM      5  HN  UNK N   1      23.289  14.390   5.464  1.00  0.00     0.186 HD
HETATM    6  C   UNK N   1      23.237  16.423   4.850  0.00  0.00     0.119 A 
HETATM    7  N   UNK N   1      20.871  17.627   7.190  0.00  0.00    -0.340 N 
ATOM      8  HN  UNK N   1      20.664  18.619   7.069  1.00  0.00     0.167 HD
HETATM    9  C   UNK N   1      20.255  16.902   8.179  0.00  0.00     0.047 A 
HETATM   10  C   UNK N   1      20.561  15.533   8.338  0.00  0.00     0.080 A 
HETATM   11  C   UNK N   1      21.463  14.933   7.464  0.00  0.00     0.127 A 
ENDROOT
BRANCH  11  12
HETATM   12  N   UNK N   1      21.734  13.552   7.571  0.00  0.00    -0.370 N 
HETATM   13  H   UNK N   1      21.039  12.891   7.351  0.00  0.00     0.161 HD
BRANCH  12  14
HETATM   14  C   UNK N   1      23.037  13.119   8.002  0.00  0.00     0.161 C 
BRANCH  14  15
HETATM   15  C   UNK N   1      23.042  12.745   9.442  0.00  0.00    -0.025 A 
HETATM   16  C   UNK N   1      21.861  12.433  10.121  0.00  0.00     0.011 A 
HETATM   17  C   UNK N   1      21.918  12.056  11.464  0.00  0.00     0.018 A 
HETATM   18  C   UNK N   1      23.159  11.984  12.103  0.00  0.00     0.087 A 
HETATM   19  N   UNK N   1      24.297  12.284  11.419  0.00  0.00    -0.375 N 
HETATM   20  C   UNK N   1      24.261  12.659  10.114  0.00  0.00     0.096 A 
ATOM     21  HN  UNK N   1      25.197  12.224  11.897  1.00  0.00     0.164 HD
ENDBRANCH  14  15
ENDBRANCH  12  14
ENDBRANCH  11  12
BRANCH   9  22
HETATM   22  C   UNK N   1      19.237  17.522   9.054  0.00  0.00    -0.009 A 
HETATM   23  C   UNK N   1      19.541  18.667   9.806  0.00  0.00     0.013 A 
HETATM   24  C   UNK N   1      18.559  19.264  10.607  0.00  0.00     0.001 A 
HETATM   25  C   UNK N   1      17.273  18.717  10.665  0.00  0.00     0.000 A 
HETATM   26  C   UNK N   1      16.964  17.577   9.923  0.00  0.00     0.001 A 
HETATM   27  C   UNK N   1      17.940  16.985   9.119  0.00  0.00     0.013 A 
ENDBRANCH   9  22
BRANCH   1  28
HETATM   28  C   UNK N   1      22.623  18.911   4.783  0.00  0.00     0.024 A 
HETATM   29  C   UNK N   1      23.460  18.910   3.518  0.00  0.00     0.010 A 
HETATM   30  C   UNK N   1      21.959  19.077   3.428  0.00  0.00     0.010 A 
ENDBRANCH   1  28
TORSDOF 5
ENDMDL
MODEL 4
REMARK VINA RESULT:      -7.0     15.824     17.520
REMARK  5 active torsions:
REMARK  status: ('A' for Active; 'I' for Inactive)
REMARK    1  A    between atoms: C_1  and  C_27 
REMARK    2  A    between atoms: C_9  and  C_13 
REMARK    3  A    between atoms: N_12  and  C_11 
REMARK    4  A    between atoms: N_12  and  C_14 
REMARK    5  A    between atoms: C_15  and  C_14 
ROOT
HETATM    1  C   UNK N   1      26.650  22.345  -8.765  0.00  0.00     0.009 A 
HETATM    2  C   UNK N   1      26.981  22.850  -7.520  0.00  0.00     0.137 A 
HETATM    3  N   UNK N   1      26.089  23.787  -7.186  0.00  0.00    -0.224 N 
HETATM    4  N   UNK N   1      25.199  23.930  -8.151  0.00  0.00    -0.301 N 
ATOM      5  HN  UNK N   1      24.414  24.581  -8.152  1.00  0.00     0.186 HD
HETATM    6  C   UNK N   1      25.511  23.055  -9.142  0.00  0.00     0.119 A 
HETATM    7  N   UNK N   1      28.012  22.522  -6.696  0.00  0.00    -0.340 N 
ATOM      8  HN  UNK N   1      28.693  21.814  -6.974  1.00  0.00     0.167 HD
HETATM    9  C   UNK N   1      28.122  23.158  -5.485  0.00  0.00     0.047 A 
HETATM   10  C   UNK N   1      27.165  24.127  -5.113  0.00  0.00     0.080 A 
HETATM   11  C   UNK N   1      26.139  24.444  -5.999  0.00  0.00     0.127 A 
ENDROOT
BRANCH  11  12
HETATM   12  N   UNK N   1      25.210  25.453  -5.669  0.00  0.00    -0.370 N 
HETATM   13  H   UNK N   1      24.471  25.264  -5.047  0.00  0.00     0.161 HD
BRANCH  12  14
HETATM   14  C   UNK N   1      25.353  26.762  -6.249  0.00  0.00     0.161 C 
BRANCH  14  15
HETATM   15  C   UNK N   1      26.002  27.712  -5.306  0.00  0.00    -0.025 A 
HETATM   16  C   UNK N   1      26.981  28.615  -5.735  0.00  0.00     0.011 A 
HETATM   17  C   UNK N   1      27.540  29.510  -4.822  0.00  0.00     0.018 A 
HETATM   18  C   UNK N   1      27.099  29.499  -3.495  0.00  0.00     0.087 A 
HETATM   19  N   UNK N   1      26.139  28.618  -3.102  0.00  0.00    -0.375 N 
HETATM   20  C   UNK N   1      25.588  27.734  -3.975  0.00  0.00     0.096 A 
ATOM     21  HN  UNK N   1      25.825  28.622  -2.131  1.00  0.00     0.164 HD
ENDBRANCH  14  15
ENDBRANCH  12  14
ENDBRANCH  11  12
BRANCH   9  22
HETATM   22  C   UNK N   1      29.256  22.877  -4.580  0.00  0.00    -0.009 A 
HETATM   23  C   UNK N   1      29.451  23.639  -3.417  0.00  0.00     0.013 A 
HETATM   24  C   UNK N   1      30.511  23.343  -2.552  0.00  0.00     0.001 A 
HETATM   25  C   UNK N   1      31.384  22.291  -2.844  0.00  0.00     0.000 A 
HETATM   26  C   UNK N   1      31.199  21.530  -3.999  0.00  0.00     0.001 A 
HETATM   27  C   UNK N   1      30.139  21.819  -4.860  0.00  0.00     0.013 A 
ENDBRANCH   9  22
BRANCH   1  28
HETATM   28  C   UNK N   1      27.286  21.262  -9.594  0.00  0.00     0.024 A 
HETATM   29  C   UNK N   1      27.019  21.509 -11.066  0.00  0.00     0.010 A 
HETATM   30  C   UNK N   1      28.396  21.771 -10.497  0.00  0.00     0.010 A 
ENDBRANCH   1  28
TORSDOF 5
ENDMDL
MODEL 5
REMARK VINA RESULT:      -7.0     10.475     13.851
REMARK  5 active torsions:
REMARK  status: ('A' for Active; 'I' for Inactive)
REMARK    1  A    between atoms: C_1  and  C_27 
REMARK    2  A    between atoms: C_9  and  C_13 
REMARK    3  A    between atoms: N_12  and  C_11 
REMARK    4  A    between atoms: N_12  and  C_14 
REMARK    5  A    between atoms: C_15  and  C_14 
ROOT
HETATM    1  C   UNK N   1      29.344  18.021   7.678  0.00  0.00     0.009 A 
HETATM    2  C   UNK N   1      30.542  17.400   7.372  0.00  0.00     0.137 A 
HETATM    3  N   UNK N   1      31.375  17.540   8.407  0.00  0.00    -0.224 N 
HETATM    4  N   UNK N   1      30.790  18.228   9.370  0.00  0.00    -0.301 N 
ATOM      5  HN  UNK N   1      31.206  18.479  10.267  1.00  0.00     0.186 HD
HETATM    6  C   UNK N   1      29.533  18.541   8.958  0.00  0.00     0.119 A 
HETATM    7  N   UNK N   1      30.913  16.738   6.244  0.00  0.00    -0.340 N 
ATOM      8  HN  UNK N   1      30.269  16.654   5.457  1.00  0.00     0.167 HD
HETATM    9  C   UNK N   1      32.166  16.184   6.181  0.00  0.00     0.047 A 
HETATM   10  C   UNK N   1      33.040  16.301   7.284  0.00  0.00     0.080 A 
HETATM   11  C   UNK N   1      32.623  17.007   8.409  0.00  0.00     0.127 A 
ENDROOT
BRANCH  11  12
HETATM   12  N   UNK N   1      33.506  17.186   9.496  0.00  0.00    -0.370 N 
HETATM   13  H   UNK N   1      33.222  17.700  10.286  0.00  0.00     0.161 HD
BRANCH  12  14
HETATM   14  C   UNK N   1      34.822  16.610   9.438  0.00  0.00     0.161 C 
BRANCH  14  15
HETATM   15  C   UNK N   1      35.013  15.569  10.484  0.00  0.00    -0.025 A 
HETATM   16  C   UNK N   1      35.795  15.807  11.619  0.00  0.00     0.011 A 
HETATM   17  C   UNK N   1      35.920  14.813  12.590  0.00  0.00     0.018 A 
HETATM   18  C   UNK N   1      35.248  13.600  12.418  0.00  0.00     0.087 A 
HETATM   19  N   UNK N   1      34.484  13.393  11.310  0.00  0.00    -0.375 N 
HETATM   20  C   UNK N   1      34.356  14.347  10.350  0.00  0.00     0.096 A 
ATOM     21  HN  UNK N   1      33.996  12.504  11.199  1.00  0.00     0.164 HD
ENDBRANCH  14  15
ENDBRANCH  12  14
ENDBRANCH  11  12
BRANCH   9  22
HETATM   22  C   UNK N   1      32.637  15.503   4.956  0.00  0.00    -0.009 A 
HETATM   23  C   UNK N   1      32.534  14.110   4.826  0.00  0.00     0.013 A 
HETATM   24  C   UNK N   1      32.953  13.481   3.648  0.00  0.00     0.001 A 
HETATM   25  C   UNK N   1      33.481  14.237   2.597  0.00  0.00     0.000 A 
HETATM   26  C   UNK N   1      33.590  15.623   2.719  0.00  0.00     0.001 A 
HETATM   27  C   UNK N   1      33.166  16.253   3.891  0.00  0.00     0.013 A 
ENDBRANCH   9  22
BRANCH   1  28
HETATM   28  C   UNK N   1      28.063  18.139   6.898  0.00  0.00     0.024 A 
HETATM   29  C   UNK N   1      27.597  19.582   6.877  0.00  0.00     0.010 A 
HETATM   30  C   UNK N   1      28.205  18.970   5.635  0.00  0.00     0.010 A 
ENDBRANCH   1  28
TORSDOF 5
ENDMDL
MODEL 6
REMARK VINA RESULT:      -7.0     14.233     16.554
REMARK  5 active torsions:
REMARK  status: ('A' for Active; 'I' for Inactive)
REMARK    1  A    between atoms: C_1  and  C_27 
REMARK    2  A    between atoms: C_9  and  C_13 
REMARK    3  A    between atoms: N_12  and  C_11 
REMARK    4  A    between atoms: N_12  and  C_14 
REMARK    5  A    between atoms: C_15  and  C_14 
ROOT
HETATM    1  C   UNK N   1      35.441  13.187  15.395  0.00  0.00     0.009 A 
HETATM    2  C   UNK N   1      35.560  12.584  14.155  0.00  0.00     0.137 A 
HETATM    3  N   UNK N   1      36.434  13.278  13.422  0.00  0.00    -0.224 N 
HETATM    4  N   UNK N   1      36.886  14.310  14.111  0.00  0.00    -0.301 N 
ATOM      5  HN  UNK N   1      37.559  15.002  13.784  1.00  0.00     0.186 HD
HETATM    6  C   UNK N   1      36.297  14.286  15.336  0.00  0.00     0.119 A 
HETATM    7  N   UNK N   1      34.940  11.477  13.666  0.00  0.00    -0.340 N 
ATOM      8  HN  UNK N   1      34.263  10.967  14.235  1.00  0.00     0.167 HD
HETATM    9  C   UNK N   1      35.239  11.056  12.395  0.00  0.00     0.047 A 
HETATM   10  C   UNK N   1      36.186  11.768  11.626  0.00  0.00     0.080 A 
HETATM   11  C   UNK N   1      36.778  12.908  12.163  0.00  0.00     0.127 A 
ENDROOT
BRANCH  11  12
HETATM   12  N   UNK N   1      37.680  13.665  11.385  0.00  0.00    -0.370 N 
HETATM   13  H   UNK N   1      38.501  14.027  11.790  0.00  0.00     0.161 HD
BRANCH  12  14
HETATM   14  C   UNK N   1      37.389  13.902   9.997  0.00  0.00     0.161 C 
BRANCH  14  15
HETATM   15  C   UNK N   1      36.331  14.932   9.824  0.00  0.00    -0.025 A 
HETATM   16  C   UNK N   1      35.456  14.908   8.734  0.00  0.00     0.011 A 
HETATM   17  C   UNK N   1      34.457  15.878   8.630  0.00  0.00     0.018 A 
HETATM   18  C   UNK N   1      34.340  16.849   9.628  0.00  0.00     0.087 A 
HETATM   19  N   UNK N   1      35.197  16.848  10.686  0.00  0.00    -0.375 N 
HETATM   20  C   UNK N   1      36.180  15.917  10.800  0.00  0.00     0.096 A 
ATOM     21  HN  UNK N   1      35.098  17.562  11.408  1.00  0.00     0.164 HD
ENDBRANCH  14  15
ENDBRANCH  12  14
ENDBRANCH  11  12
BRANCH   9  22
HETATM   22  C   UNK N   1      34.550   9.892  11.797  0.00  0.00    -0.009 A 
HETATM   23  C   UNK N   1      33.432  10.069  10.970  0.00  0.00     0.013 A 
HETATM   24  C   UNK N   1      32.807   8.961  10.384  0.00  0.00     0.001 A 
HETATM   25  C   UNK N   1      33.293   7.672  10.626  0.00  0.00     0.000 A 
HETATM   26  C   UNK N   1      34.403   7.487  11.450  0.00  0.00     0.001 A 
HETATM   27  C   UNK N   1      35.031   8.591  12.029  0.00  0.00     0.013 A 
ENDBRANCH   9  22
BRANCH   1  28
HETATM   28  C   UNK N   1      34.631  12.810  16.605  0.00  0.00     0.024 A 
HETATM   29  C   UNK N   1      35.368  11.766  17.422  0.00  0.00     0.010 A 
HETATM   30  C   UNK N   1      35.294  13.194  17.915  0.00  0.00     0.010 A 
ENDBRANCH   1  28
TORSDOF 5
ENDMDL
MODEL 7
REMARK VINA RESULT:      -7.0      4.871      9.176
REMARK  5 active torsions:
REMARK  status: ('A' for Active; 'I' for Inactive)
REMARK    1  A    between atoms: C_1  and  C_27 
REMARK    2  A    between atoms: C_9  and  C_13 
REMARK    3  A    between atoms: N_12  and  C_11 
REMARK    4  A    between atoms: N_12  and  C_14 
REMARK    5  A    between atoms: C_15  and  C_14 
ROOT
HETATM    1  C   UNK N   1      24.907  18.874   4.436  0.00  0.00     0.009 A 
HETATM    2  C   UNK N   1      25.670  18.043   5.236  0.00  0.00     0.137 A 
HETATM    3  N   UNK N   1      25.065  16.854   5.319  0.00  0.00    -0.224 N 
HETATM    4  N   UNK N   1      23.942  16.868   4.624  0.00  0.00    -0.301 N 
ATOM      5  HN  UNK N   1      23.289  16.091   4.525  1.00  0.00     0.186 HD
HETATM    6  C   UNK N   1      23.811  18.098   4.062  0.00  0.00     0.119 A 
HETATM    7  N   UNK N   1      26.843  18.291   5.876  0.00  0.00    -0.340 N 
ATOM      8  HN  UNK N   1      27.284  19.210   5.814  1.00  0.00     0.167 HD
HETATM    9  C   UNK N   1      27.427  17.286   6.606  0.00  0.00     0.047 A 
HETATM   10  C   UNK N   1      26.809  16.019   6.672  0.00  0.00     0.080 A 
HETATM   11  C   UNK N   1      25.596  15.819   6.017  0.00  0.00     0.127 A 
ENDROOT
BRANCH  11  12
HETATM   12  N   UNK N   1      24.935  14.577   6.123  0.00  0.00    -0.370 N 
HETATM   13  H   UNK N   1      24.022  14.469   5.770  0.00  0.00     0.161 HD
BRANCH  12  14
HETATM   14  C   UNK N   1      25.607  13.470   6.750  0.00  0.00     0.161 C 
BRANCH  14  15
HETATM   15  C   UNK N   1      24.853  12.966   7.929  0.00  0.00    -0.025 A 
HETATM   16  C   UNK N   1      23.945  11.908   7.819  0.00  0.00     0.011 A 
HETATM   17  C   UNK N   1      23.283  11.447   8.958  0.00  0.00     0.018 A 
HETATM   18  C   UNK N   1      23.551  12.042  10.194  0.00  0.00     0.087 A 
HETATM   19  N   UNK N   1      24.446  13.065  10.279  0.00  0.00    -0.375 N 
HETATM   20  C   UNK N   1      25.094  13.532   9.180  0.00  0.00     0.096 A 
ATOM     21  HN  UNK N   1      24.634  13.489  11.188  1.00  0.00     0.164 HD
ENDBRANCH  14  15
ENDBRANCH  12  14
ENDBRANCH  11  12
BRANCH   9  22
HETATM   22  C   UNK N   1      28.672  17.524   7.367  0.00  0.00    -0.009 A 
HETATM   23  C   UNK N   1      29.899  17.022   6.907  0.00  0.00     0.013 A 
HETATM   24  C   UNK N   1      31.076  17.280   7.619  0.00  0.00     0.001 A 
HETATM   25  C   UNK N   1      31.034  18.035   8.795  0.00  0.00     0.000 A 
HETATM   26  C   UNK N   1      29.818  18.536   9.261  0.00  0.00     0.001 A 
HETATM   27  C   UNK N   1      28.644  18.285   8.548  0.00  0.00     0.013 A 
ENDBRANCH   9  22
BRANCH   1  28
HETATM   28  C   UNK N   1      25.132  20.293   3.985  0.00  0.00     0.024 A 
HETATM   29  C   UNK N   1      26.479  20.415   3.299  0.00  0.00     0.010 A 
HETATM   30  C   UNK N   1      25.210  20.438   2.476  0.00  0.00     0.010 A 
ENDBRANCH   1  28
TORSDOF 5
ENDMDL
MODEL 8
REMARK VINA RESULT:      -6.9     15.808     17.578
REMARK  5 active torsions:
REMARK  status: ('A' for Active; 'I' for Inactive)
REMARK    1  A    between atoms: C_1  and  C_27 
REMARK    2  A    between atoms: C_9  and  C_13 
REMARK    3  A    between atoms: N_12  and  C_11 
REMARK    4  A    between atoms: N_12  and  C_14 
REMARK    5  A    between atoms: C_15  and  C_14 
ROOT
HETATM    1  C   UNK N   1      27.717  27.158  -4.867  0.00  0.00     0.009 A 
HETATM    2  C   UNK N   1      27.945  25.812  -5.095  0.00  0.00     0.137 A 
HETATM    3  N   UNK N   1      29.051  25.447  -4.441  0.00  0.00    -0.224 N 
HETATM    4  N   UNK N   1      29.565  26.485  -3.806  0.00  0.00    -0.301 N 
ATOM      5  HN  UNK N   1      30.411  26.480  -3.236  1.00  0.00     0.186 HD
HETATM    6  C   UNK N   1      28.768  27.559  -4.043  0.00  0.00     0.119 A 
HETATM    7  N   UNK N   1      27.232  24.926  -5.839  0.00  0.00    -0.340 N 
ATOM      8  HN  UNK N   1      26.398  25.225  -6.345  1.00  0.00     0.167 HD
HETATM    9  C   UNK N   1      27.652  23.621  -5.899  0.00  0.00     0.047 A 
HETATM   10  C   UNK N   1      28.803  23.222  -5.185  0.00  0.00     0.080 A 
HETATM   11  C   UNK N   1      29.512  24.171  -4.454  0.00  0.00     0.127 A 
ENDROOT
BRANCH  11  12
HETATM   12  N   UNK N   1      30.698  23.802  -3.784  0.00  0.00    -0.370 N 
HETATM   13  H   UNK N   1      31.527  24.314  -3.924  0.00  0.00     0.161 HD
BRANCH  12  14
HETATM   14  C   UNK N   1      30.684  22.672  -2.894  0.00  0.00     0.161 C 
BRANCH  14  15
HETATM   15  C   UNK N   1      31.624  21.609  -3.340  0.00  0.00    -0.025 A 
HETATM   16  C   UNK N   1      32.959  21.592  -2.926  0.00  0.00     0.011 A 
HETATM   17  C   UNK N   1      33.797  20.557  -3.345  0.00  0.00     0.018 A 
HETATM   18  C   UNK N   1      33.281  19.546  -4.160  0.00  0.00     0.087 A 
HETATM   19  N   UNK N   1      31.975  19.578  -4.544  0.00  0.00    -0.375 N 
HETATM   20  C   UNK N   1      31.146  20.581  -4.152  0.00  0.00     0.096 A 
ATOM     21  HN  UNK N   1      31.611  18.831  -5.137  1.00  0.00     0.164 HD
ENDBRANCH  14  15
ENDBRANCH  12  14
ENDBRANCH  11  12
BRANCH   9  22
HETATM   22  C   UNK N   1      26.944  22.632  -6.740  0.00  0.00    -0.009 A 
HETATM   23  C   UNK N   1      25.548  22.504  -6.674  0.00  0.00     0.013 A 
HETATM   24  C   UNK N   1      24.886  21.586  -7.498  0.00  0.00     0.001 A 
HETATM   25  C   UNK N   1      25.613  20.789  -8.387  0.00  0.00     0.000 A 
HETATM   26  C   UNK N   1      27.002  20.907  -8.457  0.00  0.00     0.001 A 
HETATM   27  C   UNK N   1      27.663  21.827  -7.641  0.00  0.00     0.013 A 
ENDBRANCH   9  22
BRANCH   1  28
HETATM   28  C   UNK N   1      26.609  28.066  -5.327  0.00  0.00     0.024 A 
HETATM   29  C   UNK N   1      25.273  27.358  -5.210  0.00  0.00     0.010 A 
HETATM   30  C   UNK N   1      25.641  28.440  -4.219  0.00  0.00     0.010 A 
ENDBRANCH   1  28
TORSDOF 5
ENDMDL
MODEL 9
REMARK VINA RESULT:      -6.7     13.779     17.219
REMARK  5 active torsions:
REMARK  status: ('A' for Active; 'I' for Inactive)
REMARK    1  A    between atoms: C_1  and  C_27 
REMARK    2  A    between atoms: C_9  and  C_13 
REMARK    3  A    between atoms: N_12  and  C_11 
REMARK    4  A    between atoms: N_12  and  C_14 
REMARK    5  A    between atoms: C_15  and  C_14 
ROOT
HETATM    1  C   UNK N   1      34.487   9.958  11.581  0.00  0.00     0.009 A 
HETATM    2  C   UNK N   1      34.715  11.287  11.889  0.00  0.00     0.137 A 
HETATM    3  N   UNK N   1      35.114  11.371  13.162  0.00  0.00    -0.224 N 
HETATM    4  N   UNK N   1      35.149  10.168  13.705  0.00  0.00    -0.301 N 
ATOM      5  HN  UNK N   1      35.415   9.951  14.666  1.00  0.00     0.186 HD
HETATM    6  C   UNK N   1      34.770   9.269  12.760  0.00  0.00     0.119 A 
HETATM    7  N   UNK N   1      34.585  12.393  11.110  0.00  0.00    -0.340 N 
ATOM      8  HN  UNK N   1      34.264  12.313  10.144  1.00  0.00     0.167 HD
HETATM    9  C   UNK N   1      34.892  13.620  11.642  0.00  0.00     0.047 A 
HETATM   10  C   UNK N   1      35.345  13.712  12.976  0.00  0.00     0.080 A 
HETATM   11  C   UNK N   1      35.441  12.553  13.741  0.00  0.00     0.127 A 
ENDROOT
BRANCH  11  12
HETATM   12  N   UNK N   1      35.833  12.634  15.095  0.00  0.00    -0.370 N 
HETATM   13  H   UNK N   1      36.737  12.355  15.367  0.00  0.00     0.161 HD
BRANCH  12  14
HETATM   14  C   UNK N   1      34.900  13.128  16.072  0.00  0.00     0.161 C 
BRANCH  14  15
HETATM   15  C   UNK N   1      35.159  12.552  17.419  0.00  0.00    -0.025 A 
HETATM   16  C   UNK N   1      35.472  11.199  17.589  0.00  0.00     0.011 A 
HETATM   17  C   UNK N   1      35.738  10.709  18.868  0.00  0.00     0.018 A 
HETATM   18  C   UNK N   1      35.702  11.585  19.957  0.00  0.00     0.087 A 
HETATM   19  N   UNK N   1      35.404  12.899  19.768  0.00  0.00    -0.375 N 
HETATM   20  C   UNK N   1      35.135  13.393  18.530  0.00  0.00     0.096 A 
ATOM     21  HN  UNK N   1      35.384  13.528  20.572  1.00  0.00     0.164 HD
ENDBRANCH  14  15
ENDBRANCH  12  14
ENDBRANCH  11  12
BRANCH   9  22
HETATM   22  C   UNK N   1      34.713  14.858  10.853  0.00  0.00    -0.009 A 
HETATM   23  C   UNK N   1      35.520  15.981  11.087  0.00  0.00     0.013 A 
HETATM   24  C   UNK N   1      35.361  17.136  10.312  0.00  0.00     0.001 A 
HETATM   25  C   UNK N   1      34.394  17.177   9.303  0.00  0.00     0.000 A 
HETATM   26  C   UNK N   1      33.584  16.066   9.065  0.00  0.00     0.001 A 
HETATM   27  C   UNK N   1      33.746  14.911   9.833  0.00  0.00     0.013 A 
ENDBRANCH   9  22
BRANCH   1  28
HETATM   28  C   UNK N   1      34.060   9.299  10.298  0.00  0.00     0.024 A 
HETATM   29  C   UNK N   1      33.244   8.055  10.596  0.00  0.00     0.010 A 
HETATM   30  C   UNK N   1      32.556   9.304  10.091  0.00  0.00     0.010 A 
ENDBRANCH   1  28
TORSDOF 5
ENDMDL
