MODEL 1
REMARK VINA RESULT:      -7.3      0.000      0.000
REMARK  5 active torsions:
REMARK  status: ('A' for Active; 'I' for Inactive)
REMARK    1  A    between atoms: C_1  and  N_21 
REMARK    2  A    between atoms: C_13  and  N_22 
REMARK    3  A    between atoms: C_15  and  C_16 
REMARK    4  A    between atoms: C_16  and  O_26 
REMARK    5  A    between atoms: C_17  and  O_26 
ROOT
HETATM    1  C   UNK N   1      35.726  14.838   8.355  0.00  0.00     0.144 C 
HETATM    2  C   UNK N   1      36.744  14.720   9.478  0.00  0.00     0.145 C 
HETATM    3  C   UNK N   1      35.649  16.639  10.592  0.00  0.00     0.145 C 
HETATM    4  C   UNK N   1      34.499  16.631   9.593  0.00  0.00     0.144 C 
HETATM    5  N   UNK N   1      34.458  15.387   8.835  0.00  0.00    -0.367 N 
HETATM    6  N   UNK N   1      36.194  15.308  10.669  0.00  0.00    -0.358 N 
ENDROOT
BRANCH   5   7
HETATM    7  C   UNK N   1      33.295  15.103   8.070  0.00  0.00     0.089 C 
HETATM    8  C   UNK N   1      32.018  15.826   8.389  0.00  0.00     0.155 C 
HETATM    9  S   UNK N   1      32.003  17.395   7.505  0.00  0.00    -0.120 SA
HETATM   10  C   UNK N   1      32.393  16.671   5.901  0.00  0.00     0.027 A 
HETATM   11  C   UNK N   1      32.215  17.470   4.776  0.00  0.00     0.021 A 
HETATM   12  C   UNK N   1      32.992  15.389   5.755  0.00  0.00     0.050 A 
HETATM   13  C   UNK N   1      32.617  17.019   3.519  0.00  0.00     0.002 A 
HETATM   14  C   UNK N   1      33.187  15.753   3.376  0.00  0.00     0.002 A 
HETATM   15  C   UNK N   1      33.384  14.947   4.494  0.00  0.00     0.031 A 
HETATM   16  N   UNK N   1      33.507  14.705   6.871  0.00  0.00    -0.344 N 
ATOM     17  HN  UNK N   1      34.067  13.866   6.722  1.00  0.00     0.167 HD
ENDBRANCH   5   7
BRANCH   6  18
HETATM   18  C   UNK N   1      35.921  14.495  11.791  0.00  0.00     0.147 A 
HETATM   19  N   UNK N   1      36.447  14.721  13.012  0.00  0.00    -0.331 N 
HETATM   20  C   UNK N   1      36.050  13.761  13.921  0.00  0.00     0.117 A 
ATOM     21  HN  UNK N   1      37.062  15.503  13.236  1.00  0.00     0.168 HD
HETATM   22  C   UNK N   1      35.207  12.751  13.419  0.00  0.00     0.089 A 
HETATM   23  S   UNK N   1      34.998  13.132  11.817  0.00  0.00    -0.063 SA
BRANCH  20  24
HETATM   24  C   UNK N   1      36.513  13.832  15.305  0.00  0.00     0.310 C 
HETATM   25  O   UNK N   1      37.357  14.664  15.630  0.00  0.00    -0.258 OA
BRANCH  24  26
HETATM   26  O   UNK N   1      35.994  12.980  16.215  0.00  0.00    -0.317 OA
BRANCH  26  27
HETATM   27  C   UNK N   1      34.860  13.248  16.940  0.00  0.00     0.175 C 
HETATM   28  C   UNK N   1      35.256  13.550  18.371  0.00  0.00     0.034 C 
ENDBRANCH  26  27
ENDBRANCH  24  26
ENDBRANCH  20  24
ENDBRANCH   6  18
TORSDOF 5
ENDMDL
MODEL 2
REMARK VINA RESULT:      -7.3      2.214      3.436
REMARK  5 active torsions:
REMARK  status: ('A' for Active; 'I' for Inactive)
REMARK    1  A    between atoms: C_1  and  N_21 
REMARK    2  A    between atoms: C_13  and  N_22 
REMARK    3  A    between atoms: C_15  and  C_16 
REMARK    4  A    between atoms: C_16  and  O_26 
REMARK    5  A    between atoms: C_17  and  O_26 
ROOT
HETATM    1  C   UNK N   1      32.631  14.547   8.577  0.00  0.00     0.144 C 
HETATM    2  C   UNK N   1      33.283  13.383   9.306  0.00  0.00     0.145 C 
HETATM    3  C   UNK N   1      35.479  14.179   8.488  0.00  0.00     0.145 C 
HETATM    4  C   UNK N   1      34.869  15.463   7.940  0.00  0.00     0.144 C 
HETATM    5  N   UNK N   1      33.535  15.693   8.477  0.00  0.00    -0.367 N 
HETATM    6  N   UNK N   1      34.657  13.712   9.574  0.00  0.00    -0.358 N 
ENDROOT
BRANCH   5   7
HETATM    7  C   UNK N   1      32.945  16.973   8.291  0.00  0.00     0.089 C 
HETATM    8  C   UNK N   1      32.972  17.595   6.925  0.00  0.00     0.155 C 
HETATM    9  S   UNK N   1      31.555  16.999   5.987  0.00  0.00    -0.120 SA
HETATM   10  C   UNK N   1      30.347  17.393   7.267  0.00  0.00     0.027 A 
HETATM   11  C   UNK N   1      29.003  17.378   6.906  0.00  0.00     0.021 A 
HETATM   12  C   UNK N   1      30.699  17.581   8.631  0.00  0.00     0.050 A 
HETATM   13  C   UNK N   1      28.012  17.548   7.873  0.00  0.00     0.002 A 
HETATM   14  C   UNK N   1      28.361  17.752   9.208  0.00  0.00     0.002 A 
HETATM   15  C   UNK N   1      29.700  17.756   9.586  0.00  0.00     0.031 A 
HETATM   16  N   UNK N   1      31.988  17.260   9.092  0.00  0.00    -0.344 N 
ATOM     17  HN  UNK N   1      32.167  17.255  10.096  1.00  0.00     0.167 HD
ENDBRANCH   5   7
BRANCH   6  18
HETATM   18  C   UNK N   1      35.092  13.866  10.909  0.00  0.00     0.147 A 
HETATM   19  N   UNK N   1      34.718  13.038  11.906  0.00  0.00    -0.331 N 
HETATM   20  C   UNK N   1      35.254  13.428  13.117  0.00  0.00     0.117 A 
ATOM     21  HN  UNK N   1      34.115  12.225  11.782  1.00  0.00     0.168 HD
HETATM   22  C   UNK N   1      36.054  14.587  13.090  0.00  0.00     0.089 A 
HETATM   23  S   UNK N   1      36.048  15.068  11.501  0.00  0.00    -0.063 SA
BRANCH  20  24
HETATM   24  C   UNK N   1      34.968  12.656  14.324  0.00  0.00     0.310 C 
HETATM   25  O   UNK N   1      34.269  11.647  14.258  0.00  0.00    -0.258 OA
BRANCH  24  26
HETATM   26  O   UNK N   1      35.489  13.063  15.502  0.00  0.00    -0.317 OA
BRANCH  26  27
HETATM   27  C   UNK N   1      34.991  12.679  16.721  0.00  0.00     0.175 C 
HETATM   28  C   UNK N   1      35.223  13.796  17.718  0.00  0.00     0.034 C 
ENDBRANCH  26  27
ENDBRANCH  24  26
ENDBRANCH  20  24
ENDBRANCH   6  18
TORSDOF 5
ENDMDL
MODEL 3
REMARK VINA RESULT:      -7.0      3.458      8.932
REMARK  5 active torsions:
REMARK  status: ('A' for Active; 'I' for Inactive)
REMARK    1  A    between atoms: C_1  and  N_21 
REMARK    2  A    between atoms: C_13  and  N_22 
REMARK    3  A    between atoms: C_15  and  C_16 
REMARK    4  A    between atoms: C_16  and  O_26 
REMARK    5  A    between atoms: C_17  and  O_26 
ROOT
HETATM    1  C   UNK N   1      36.498  12.764  11.845  0.00  0.00     0.144 C 
HETATM    2  C   UNK N   1      36.875  13.831  10.830  0.00  0.00     0.145 C 
HETATM    3  C   UNK N   1      35.902  12.403   9.058  0.00  0.00     0.145 C 
HETATM    4  C   UNK N   1      35.326  11.433  10.082  0.00  0.00     0.144 C 
HETATM    5  N   UNK N   1      35.319  12.009  11.420  0.00  0.00    -0.367 N 
HETATM    6  N   UNK N   1      36.026  13.697   9.677  0.00  0.00    -0.358 N 
ENDROOT
BRANCH   5   7
HETATM    7  C   UNK N   1      34.565  11.355  12.431  0.00  0.00     0.089 C 
HETATM    8  C   UNK N   1      34.666   9.863  12.564  0.00  0.00     0.155 C 
HETATM    9  S   UNK N   1      36.081   9.466  13.606  0.00  0.00    -0.120 SA
HETATM   10  C   UNK N   1      35.605  10.581  14.941  0.00  0.00     0.027 A 
HETATM   11  C   UNK N   1      36.256  10.434  16.162  0.00  0.00     0.021 A 
HETATM   12  C   UNK N   1      34.707  11.669  14.757  0.00  0.00     0.050 A 
HETATM   13  C   UNK N   1      36.029  11.343  17.196  0.00  0.00     0.002 A 
HETATM   14  C   UNK N   1      35.133  12.398  17.020  0.00  0.00     0.002 A 
HETATM   15  C   UNK N   1      34.484  12.565  15.800  0.00  0.00     0.031 A 
HETATM   16  N   UNK N   1      34.305  12.060  13.468  0.00  0.00    -0.344 N 
ATOM     17  HN  UNK N   1      33.790  12.933  13.354  1.00  0.00     0.167 HD
ENDBRANCH   5   7
BRANCH   6  18
HETATM   18  C   UNK N   1      35.113  14.726   9.358  0.00  0.00     0.147 A 
HETATM   19  N   UNK N   1      35.472  15.859   8.718  0.00  0.00    -0.331 N 
HETATM   20  C   UNK N   1      34.399  16.713   8.560  0.00  0.00     0.117 A 
ATOM     21  HN  UNK N   1      36.417  16.059   8.393  1.00  0.00     0.168 HD
HETATM   22  C   UNK N   1      33.173  16.265   9.088  0.00  0.00     0.089 A 
HETATM   23  S   UNK N   1      33.512  14.776   9.739  0.00  0.00    -0.063 SA
BRANCH  20  24
HETATM   24  C   UNK N   1      34.583  17.997   7.886  0.00  0.00     0.310 C 
HETATM   25  O   UNK N   1      35.114  18.933   8.480  0.00  0.00    -0.258 OA
BRANCH  24  26
HETATM   26  O   UNK N   1      34.171  18.131   6.608  0.00  0.00    -0.317 OA
BRANCH  26  27
HETATM   27  C   UNK N   1      33.883  17.067   5.791  0.00  0.00     0.175 C 
HETATM   28  C   UNK N   1      32.917  17.522   4.716  0.00  0.00     0.034 C 
ENDBRANCH  26  27
ENDBRANCH  24  26
ENDBRANCH  20  24
ENDBRANCH   6  18
TORSDOF 5
ENDMDL
MODEL 4
REMARK VINA RESULT:      -6.8      3.374      8.894
REMARK  5 active torsions:
REMARK  status: ('A' for Active; 'I' for Inactive)
REMARK    1  A    between atoms: C_1  and  N_21 
REMARK    2  A    between atoms: C_13  and  N_22 
REMARK    3  A    between atoms: C_15  and  C_16 
REMARK    4  A    between atoms: C_16  and  O_26 
REMARK    5  A    between atoms: C_17  and  O_26 
ROOT
HETATM    1  C   UNK N   1      36.876  12.305  13.212  0.00  0.00     0.144 C 
HETATM    2  C   UNK N   1      37.673  12.765  12.001  0.00  0.00     0.145 C 
HETATM    3  C   UNK N   1      36.563  10.995  10.673  0.00  0.00     0.145 C 
HETATM    4  C   UNK N   1      35.605  10.668  11.811  0.00  0.00     0.144 C 
HETATM    5  N   UNK N   1      35.593  11.720  12.820  0.00  0.00    -0.367 N 
HETATM    6  N   UNK N   1      36.976  12.369  10.807  0.00  0.00    -0.358 N 
ENDROOT
BRANCH   5   7
HETATM    7  C   UNK N   1      34.559  11.707  13.795  0.00  0.00     0.089 C 
HETATM    8  C   UNK N   1      33.957  10.393  14.200  0.00  0.00     0.155 C 
HETATM    9  S   UNK N   1      34.961   9.673  15.511  0.00  0.00    -0.120 SA
HETATM   10  C   UNK N   1      34.962  11.157  16.535  0.00  0.00     0.027 A 
HETATM   11  C   UNK N   1      35.392  11.025  17.852  0.00  0.00     0.021 A 
HETATM   12  C   UNK N   1      34.676  12.452  16.022  0.00  0.00     0.050 A 
HETATM   13  C   UNK N   1      35.539  12.153  18.661  0.00  0.00     0.002 A 
HETATM   14  C   UNK N   1      35.239  13.420  18.161  0.00  0.00     0.002 A 
HETATM   15  C   UNK N   1      34.821  13.568  16.842  0.00  0.00     0.031 A 
HETATM   16  N   UNK N   1      34.583  12.672  14.636  0.00  0.00    -0.344 N 
ATOM     17  HN  UNK N   1      34.534  13.630  14.290  1.00  0.00     0.167 HD
ENDBRANCH   5   7
BRANCH   6  18
HETATM   18  C   UNK N   1      36.450  13.355   9.945  0.00  0.00     0.147 A 
HETATM   19  N   UNK N   1      35.937  14.522  10.385  0.00  0.00    -0.331 N 
HETATM   20  C   UNK N   1      35.459  15.291   9.343  0.00  0.00     0.117 A 
ATOM     21  HN  UNK N   1      35.906  14.802  11.365  1.00  0.00     0.168 HD
HETATM   22  C   UNK N   1      35.580  14.728   8.058  0.00  0.00     0.089 A 
HETATM   23  S   UNK N   1      36.305  13.256   8.308  0.00  0.00    -0.063 SA
BRANCH  20  24
HETATM   24  C   UNK N   1      34.864  16.598   9.613  0.00  0.00     0.310 C 
HETATM   25  O   UNK N   1      35.194  17.228  10.616  0.00  0.00    -0.258 OA
BRANCH  24  26
HETATM   26  O   UNK N   1      33.962  17.101   8.744  0.00  0.00    -0.317 OA
BRANCH  26  27
HETATM   27  C   UNK N   1      32.656  16.684   8.685  0.00  0.00     0.175 C 
HETATM   28  C   UNK N   1      31.769  17.887   8.438  0.00  0.00     0.034 C 
ENDBRANCH  26  27
ENDBRANCH  24  26
ENDBRANCH  20  24
ENDBRANCH   6  18
TORSDOF 5
ENDMDL
MODEL 5
REMARK VINA RESULT:      -6.8      3.652      6.031
REMARK  5 active torsions:
REMARK  status: ('A' for Active; 'I' for Inactive)
REMARK    1  A    between atoms: C_1  and  N_21 
REMARK    2  A    between atoms: C_13  and  N_22 
REMARK    3  A    between atoms: C_15  and  C_16 
REMARK    4  A    between atoms: C_16  and  O_26 
REMARK    5  A    between atoms: C_17  and  O_26 
ROOT
HETATM    1  C   UNK N   1      31.514  15.258   4.247  0.00  0.00     0.144 C 
HETATM    2  C   UNK N   1      32.981  15.146   4.627  0.00  0.00     0.145 C 
HETATM    3  C   UNK N   1      33.176  17.598   4.360  0.00  0.00     0.145 C 
HETATM    4  C   UNK N   1      31.670  17.753   4.194  0.00  0.00     0.144 C 
HETATM    5  N   UNK N   1      30.958  16.558   4.626  0.00  0.00    -0.367 N 
HETATM    6  N   UNK N   1      33.429  16.413   5.138  0.00  0.00    -0.358 N 
ENDROOT
BRANCH   5   7
HETATM    7  C   UNK N   1      29.550  16.638   4.800  0.00  0.00     0.089 C 
HETATM    8  C   UNK N   1      28.930  16.013   6.017  0.00  0.00     0.155 C 
HETATM    9  S   UNK N   1      28.991  17.197   7.373  0.00  0.00    -0.120 SA
HETATM   10  C   UNK N   1      28.256  18.547   6.430  0.00  0.00     0.027 A 
HETATM   11  C   UNK N   1      27.810  19.657   7.142  0.00  0.00     0.021 A 
HETATM   12  C   UNK N   1      28.238  18.578   5.009  0.00  0.00     0.050 A 
HETATM   13  C   UNK N   1      27.350  20.788   6.467  0.00  0.00     0.002 A 
HETATM   14  C   UNK N   1      27.316  20.809   5.072  0.00  0.00     0.002 A 
HETATM   15  C   UNK N   1      27.770  19.711   4.347  0.00  0.00     0.031 A 
HETATM   16  N   UNK N   1      28.985  17.652   4.260  0.00  0.00    -0.344 N 
ATOM     17  HN  UNK N   1      29.080  17.791   3.254  1.00  0.00     0.167 HD
ENDBRANCH   5   7
BRANCH   6  18
HETATM   18  C   UNK N   1      33.822  16.523   6.490  0.00  0.00     0.147 A 
HETATM   19  N   UNK N   1      34.393  15.512   7.177  0.00  0.00    -0.331 N 
HETATM   20  C   UNK N   1      34.647  15.869   8.486  0.00  0.00     0.117 A 
ATOM     21  HN  UNK N   1      34.609  14.599   6.780  1.00  0.00     0.168 HD
HETATM   22  C   UNK N   1      34.265  17.174   8.853  0.00  0.00     0.089 A 
HETATM   23  S   UNK N   1      33.615  17.827   7.473  0.00  0.00    -0.063 SA
BRANCH  20  24
HETATM   24  C   UNK N   1      35.267  14.908   9.396  0.00  0.00     0.310 C 
HETATM   25  O   UNK N   1      36.434  14.562   9.223  0.00  0.00    -0.258 OA
BRANCH  24  26
HETATM   26  O   UNK N   1      34.545  14.421  10.428  0.00  0.00    -0.317 OA
BRANCH  26  27
HETATM   27  C   UNK N   1      35.013  13.464  11.292  0.00  0.00     0.175 C 
HETATM   28  C   UNK N   1      35.482  14.141  12.564  0.00  0.00     0.034 C 
ENDBRANCH  26  27
ENDBRANCH  24  26
ENDBRANCH  20  24
ENDBRANCH   6  18
TORSDOF 5
ENDMDL
MODEL 6
REMARK VINA RESULT:      -6.7     11.390     14.502
REMARK  5 active torsions:
REMARK  status: ('A' for Active; 'I' for Inactive)
REMARK    1  A    between atoms: C_1  and  N_21 
REMARK    2  A    between atoms: C_13  and  N_22 
REMARK    3  A    between atoms: C_15  and  C_16 
REMARK    4  A    between atoms: C_16  and  O_26 
REMARK    5  A    between atoms: C_17  and  O_26 
ROOT
HETATM    1  C   UNK N   1      20.131  16.307   4.502  0.00  0.00     0.144 C 
HETATM    2  C   UNK N   1      20.700  17.585   3.907  0.00  0.00     0.145 C 
HETATM    3  C   UNK N   1      21.421  18.252   6.179  0.00  0.00     0.145 C 
HETATM    4  C   UNK N   1      21.055  16.889   6.753  0.00  0.00     0.144 C 
HETATM    5  N   UNK N   1      20.865  15.899   5.700  0.00  0.00    -0.367 N 
HETATM    6  N   UNK N   1      21.725  18.090   4.781  0.00  0.00    -0.358 N 
ENDROOT
BRANCH   5   7
HETATM    7  C   UNK N   1      20.799  14.528   6.069  0.00  0.00     0.089 C 
HETATM    8  C   UNK N   1      21.643  13.532   5.327  0.00  0.00     0.155 C 
HETATM    9  S   UNK N   1      23.276  13.476   6.084  0.00  0.00    -0.120 SA
HETATM   10  C   UNK N   1      22.658  13.243   7.763  0.00  0.00     0.027 A 
HETATM   11  C   UNK N   1      23.574  12.847   8.733  0.00  0.00     0.021 A 
HETATM   12  C   UNK N   1      21.331  13.574   8.151  0.00  0.00     0.050 A 
HETATM   13  C   UNK N   1      23.192  12.773  10.073  0.00  0.00     0.002 A 
HETATM   14  C   UNK N   1      21.884  13.078  10.449  0.00  0.00     0.002 A 
HETATM   15  C   UNK N   1      20.961  13.489   9.492  0.00  0.00     0.031 A 
HETATM   16  N   UNK N   1      20.489  14.301   7.290  0.00  0.00    -0.344 N 
ATOM     17  HN  UNK N   1      19.605  14.658   7.650  1.00  0.00     0.167 HD
ENDBRANCH   5   7
BRANCH   6  18
HETATM   18  C   UNK N   1      23.065  18.131   4.338  0.00  0.00     0.147 A 
HETATM   19  N   UNK N   1      23.700  19.275   4.012  0.00  0.00    -0.331 N 
HETATM   20  C   UNK N   1      24.988  19.035   3.577  0.00  0.00     0.117 A 
ATOM     21  HN  UNK N   1      23.281  20.203   4.078  1.00  0.00     0.168 HD
HETATM   22  C   UNK N   1      25.383  17.684   3.544  0.00  0.00     0.089 A 
HETATM   23  S   UNK N   1      24.057  16.842   4.081  0.00  0.00    -0.063 SA
BRANCH  20  24
HETATM   24  C   UNK N   1      25.844  20.151   3.179  0.00  0.00     0.310 C 
HETATM   25  O   UNK N   1      25.540  20.844   2.210  0.00  0.00    -0.258 OA
BRANCH  24  26
HETATM   26  O   UNK N   1      26.959  20.410   3.894  0.00  0.00    -0.317 OA
BRANCH  26  27
HETATM   27  C   UNK N   1      26.937  20.860   5.191  0.00  0.00     0.175 C 
HETATM   28  C   UNK N   1      27.614  19.833   6.076  0.00  0.00     0.034 C 
ENDBRANCH  26  27
ENDBRANCH  24  26
ENDBRANCH  20  24
ENDBRANCH   6  18
TORSDOF 5
ENDMDL
MODEL 7
REMARK VINA RESULT:      -6.7     10.840     14.163
REMARK  5 active torsions:
REMARK  status: ('A' for Active; 'I' for Inactive)
REMARK    1  A    between atoms: C_1  and  N_21 
REMARK    2  A    between atoms: C_13  and  N_22 
REMARK    3  A    between atoms: C_15  and  C_16 
REMARK    4  A    between atoms: C_16  and  O_26 
REMARK    5  A    between atoms: C_17  and  O_26 
ROOT
HETATM    1  C   UNK N   1      19.994  14.659   5.979  0.00  0.00     0.144 C 
HETATM    2  C   UNK N   1      19.906  16.070   5.418  0.00  0.00     0.145 C 
HETATM    3  C   UNK N   1      20.795  16.916   7.568  0.00  0.00     0.145 C 
HETATM    4  C   UNK N   1      21.093  15.506   8.061  0.00  0.00     0.144 C 
HETATM    5  N   UNK N   1      21.065  14.540   6.969  0.00  0.00    -0.367 N 
HETATM    6  N   UNK N   1      20.831  16.912   6.128  0.00  0.00    -0.358 N 
ENDROOT
BRANCH   5   7
HETATM    7  C   UNK N   1      21.592  13.242   7.205  0.00  0.00     0.089 C 
HETATM    8  C   UNK N   1      22.807  12.800   6.442  0.00  0.00     0.155 C 
HETATM    9  S   UNK N   1      24.278  13.366   7.315  0.00  0.00    -0.120 SA
HETATM   10  C   UNK N   1      23.775  12.697   8.912  0.00  0.00     0.027 A 
HETATM   11  C   UNK N   1      24.743  12.624   9.909  0.00  0.00     0.021 A 
HETATM   12  C   UNK N   1      22.426  12.376   9.226  0.00  0.00     0.050 A 
HETATM   13  C   UNK N   1      24.393  12.238  11.204  0.00  0.00     0.002 A 
HETATM   14  C   UNK N   1      23.071  11.905  11.505  0.00  0.00     0.002 A 
HETATM   15  C   UNK N   1      22.091  11.986  10.521  0.00  0.00     0.031 A 
HETATM   16  N   UNK N   1      21.377  12.764   8.373  0.00  0.00    -0.344 N 
ATOM     17  HN  UNK N   1      20.415  12.661   8.695  1.00  0.00     0.167 HD
ENDBRANCH   5   7
BRANCH   6  18
HETATM   18  C   UNK N   1      21.932  17.473   5.445  0.00  0.00     0.147 A 
HETATM   19  N   UNK N   1      23.212  17.131   5.702  0.00  0.00    -0.331 N 
HETATM   20  C   UNK N   1      24.095  17.850   4.922  0.00  0.00     0.117 A 
ATOM     21  HN  UNK N   1      23.492  16.430   6.387  1.00  0.00     0.168 HD
HETATM   22  C   UNK N   1      23.517  18.784   4.041  0.00  0.00     0.089 A 
HETATM   23  S   UNK N   1      21.882  18.649   4.294  0.00  0.00    -0.063 SA
BRANCH  20  24
HETATM   24  C   UNK N   1      25.533  17.623   5.050  0.00  0.00     0.310 C 
HETATM   25  O   UNK N   1      25.953  16.524   5.408  0.00  0.00    -0.258 OA
BRANCH  24  26
HETATM   26  O   UNK N   1      26.385  18.630   4.761  0.00  0.00    -0.317 OA
BRANCH  26  27
HETATM   27  C   UNK N   1      26.991  19.405   5.718  0.00  0.00     0.175 C 
HETATM   28  C   UNK N   1      26.714  20.863   5.413  0.00  0.00     0.034 C 
ENDBRANCH  26  27
ENDBRANCH  24  26
ENDBRANCH  20  24
ENDBRANCH   6  18
TORSDOF 5
ENDMDL
MODEL 8
REMARK VINA RESULT:      -6.6      3.806      8.498
REMARK  5 active torsions:
REMARK  status: ('A' for Active; 'I' for Inactive)
REMARK    1  A    between atoms: C_1  and  N_21 
REMARK    2  A    between atoms: C_13  and  N_22 
REMARK    3  A    between atoms: C_15  and  C_16 
REMARK    4  A    between atoms: C_16  and  O_26 
REMARK    5  A    between atoms: C_17  and  O_26 
ROOT
HETATM    1  C   UNK N   1      35.075  14.161  12.031  0.00  0.00     0.144 C 
HETATM    2  C   UNK N   1      35.039  15.549  11.414  0.00  0.00     0.145 C 
HETATM    3  C   UNK N   1      36.777  14.817   9.811  0.00  0.00     0.145 C 
HETATM    4  C   UNK N   1      36.668  13.369  10.273  0.00  0.00     0.144 C 
HETATM    5  N   UNK N   1      35.455  13.145  11.049  0.00  0.00    -0.367 N 
HETATM    6  N   UNK N   1      35.517  15.470  10.060  0.00  0.00    -0.358 N 
ENDROOT
BRANCH   5   7
HETATM    7  C   UNK N   1      35.062  11.805  11.313  0.00  0.00     0.089 C 
HETATM    8  C   UNK N   1      35.969  10.685  10.893  0.00  0.00     0.155 C 
HETATM    9  S   UNK N   1      37.182  10.400  12.194  0.00  0.00    -0.120 SA
HETATM   10  C   UNK N   1      35.962  10.288  13.518  0.00  0.00     0.027 A 
HETATM   11  C   UNK N   1      36.389   9.776  14.740  0.00  0.00     0.021 A 
HETATM   12  C   UNK N   1      34.647  10.816  13.405  0.00  0.00     0.050 A 
HETATM   13  C   UNK N   1      35.534   9.780  15.842  0.00  0.00     0.002 A 
HETATM   14  C   UNK N   1      34.237  10.281  15.724  0.00  0.00     0.002 A 
HETATM   15  C   UNK N   1      33.801  10.808  14.512  0.00  0.00     0.031 A 
HETATM   16  N   UNK N   1      34.295  11.645  12.325  0.00  0.00    -0.344 N 
ATOM     17  HN  UNK N   1      33.401  12.134  12.349  1.00  0.00     0.167 HD
ENDBRANCH   5   7
BRANCH   6  18
HETATM   18  C   UNK N   1      34.639  15.747   8.990  0.00  0.00     0.147 A 
HETATM   19  N   UNK N   1      33.536  16.513   9.120  0.00  0.00    -0.331 N 
HETATM   20  C   UNK N   1      32.835  16.597   7.934  0.00  0.00     0.117 A 
ATOM     21  HN  UNK N   1      33.255  16.972   9.985  1.00  0.00     0.168 HD
HETATM   22  C   UNK N   1      33.375  15.881   6.848  0.00  0.00     0.089 A 
HETATM   23  S   UNK N   1      34.745  15.167   7.453  0.00  0.00    -0.063 SA
BRANCH  20  24
HETATM   24  C   UNK N   1      31.606  17.386   7.868  0.00  0.00     0.310 C 
HETATM   25  O   UNK N   1      30.885  17.318   6.875  0.00  0.00    -0.258 OA
BRANCH  24  26
HETATM   26  O   UNK N   1      31.277  18.176   8.912  0.00  0.00    -0.317 OA
BRANCH  26  27
HETATM   27  C   UNK N   1      30.004  18.634   9.140  0.00  0.00     0.175 C 
HETATM   28  C   UNK N   1      29.236  17.579   9.911  0.00  0.00     0.034 C 
ENDBRANCH  26  27
ENDBRANCH  24  26
ENDBRANCH  20  24
ENDBRANCH   6  18
TORSDOF 5
ENDMDL
MODEL 9
REMARK VINA RESULT:      -6.6     16.593     19.864
REMARK  5 active torsions:
REMARK  status: ('A' for Active; 'I' for Inactive)
REMARK    1  A    between atoms: C_1  and  N_21 
REMARK    2  A    between atoms: C_13  and  N_22 
REMARK    3  A    between atoms: C_15  and  C_16 
REMARK    4  A    between atoms: C_16  and  O_26 
REMARK    5  A    between atoms: C_17  and  O_26 
ROOT
HETATM    1  C   UNK N   1      27.038  27.424  -6.693  0.00  0.00     0.144 C 
HETATM    2  C   UNK N   1      27.953  27.749  -5.524  0.00  0.00     0.145 C 
HETATM    3  C   UNK N   1      26.564  26.273  -4.103  0.00  0.00     0.145 C 
HETATM    4  C   UNK N   1      25.776  25.769  -5.306  0.00  0.00     0.144 C 
HETATM    5  N   UNK N   1      26.446  26.092  -6.559  0.00  0.00    -0.367 N 
HETATM    6  N   UNK N   1      27.867  26.689  -4.556  0.00  0.00    -0.358 N 
ENDROOT
BRANCH   5   7
HETATM    7  C   UNK N   1      25.994  25.457  -7.747  0.00  0.00     0.089 C 
HETATM    8  C   UNK N   1      26.775  25.647  -9.015  0.00  0.00     0.155 C 
HETATM    9  S   UNK N   1      28.097  24.424  -9.072  0.00  0.00    -0.120 SA
HETATM   10  C   UNK N   1      27.019  23.018  -8.735  0.00  0.00     0.027 A 
HETATM   11  C   UNK N   1      27.537  21.746  -8.959  0.00  0.00     0.021 A 
HETATM   12  C   UNK N   1      25.738  23.152  -8.134  0.00  0.00     0.050 A 
HETATM   13  C   UNK N   1      26.806  20.614  -8.600  0.00  0.00     0.002 A 
HETATM   14  C   UNK N   1      25.540  20.748  -8.028  0.00  0.00     0.002 A 
HETATM   15  C   UNK N   1      25.015  22.014  -7.786  0.00  0.00     0.031 A 
HETATM   16  N   UNK N   1      25.330  24.377  -7.576  0.00  0.00    -0.344 N 
ATOM     17  HN  UNK N   1      24.478  24.405  -7.017  1.00  0.00     0.167 HD
ENDBRANCH   5   7
BRANCH   6  18
HETATM   18  C   UNK N   1      28.998  25.885  -4.296  0.00  0.00     0.147 A 
HETATM   19  N   UNK N   1      28.954  24.775  -3.530  0.00  0.00    -0.331 N 
HETATM   20  C   UNK N   1      30.200  24.194  -3.407  0.00  0.00     0.117 A 
ATOM     21  HN  UNK N   1      28.107  24.411  -3.095  1.00  0.00     0.168 HD
HETATM   22  C   UNK N   1      31.253  24.852  -4.072  0.00  0.00     0.089 A 
HETATM   23  S   UNK N   1      30.540  26.161  -4.801  0.00  0.00    -0.063 SA
BRANCH  20  24
HETATM   24  C   UNK N   1      30.362  22.977  -2.615  0.00  0.00     0.310 C 
HETATM   25  O   UNK N   1      30.376  23.038  -1.388  0.00  0.00    -0.258 OA
BRANCH  24  26
HETATM   26  O   UNK N   1      30.486  21.792  -3.251  0.00  0.00    -0.317 OA
BRANCH  26  27
HETATM   27  C   UNK N   1      31.696  21.230  -3.573  0.00  0.00     0.175 C 
HETATM   28  C   UNK N   1      31.478  20.185  -4.649  0.00  0.00     0.034 C 
ENDBRANCH  26  27
ENDBRANCH  24  26
ENDBRANCH  20  24
ENDBRANCH   6  18
TORSDOF 5
ENDMDL
