REMARK  4 active torsions:
REMARK  status: ('A' for Active; 'I' for Inactive)
REMARK    1  A    between atoms: C_2  and  O_1 
REMARK    2  A    between atoms: C_17  and  C_18 
REMARK    3  A    between atoms: C_18  and  C_19 
REMARK    4  A    between atoms: C_19  and  O_21 
ROOT
HETATM    1  C   UNK N   1       3.767  -1.653   0.347  0.00  0.00     0.080 A 
HETATM    2  C   UNK N   1       2.534  -1.023   0.058  0.00  0.00     0.058 A 
HETATM    3  C   UNK N   1       1.251  -1.785  -0.022  0.00  0.00     0.199 A 
HETATM    4  O   UNK N   1       1.239  -2.997   0.127  0.00  0.00    -0.286 OA
HETATM    5  C   UNK N   1      -0.019  -1.022  -0.232  0.00  0.00     0.050 A 
HETATM    6  C   UNK N   1      -1.270  -1.570  -0.189  0.00  0.00     0.058 C 
HETATM    7  O   UNK N   1      -2.367  -0.761  -0.311  0.00  0.00    -0.349 OA
HETATM    8  C   UNK N   1      -1.495  -3.034   0.013  0.00  0.00     0.077 C 
HETATM    9  C   UNK N   1       4.936  -0.890   0.435  0.00  0.00     0.037 A 
HETATM   10  C   UNK N   1       4.898   0.490   0.237  0.00  0.00     0.004 A 
HETATM   11  C   UNK N   1       3.690   1.120  -0.055  0.00  0.00     0.012 A 
HETATM   12  C   UNK N   1       2.512   0.375  -0.143  0.00  0.00    -0.019 A 
HETATM   13  C   UNK N   1       1.258   1.078  -0.451  0.00  0.00     0.020 A 
HETATM   14  C   UNK N   1       0.086   0.440  -0.493  0.00  0.00    -0.038 A 
HETATM   15  C   UNK N   1      -1.146   1.202  -0.841  0.00  0.00     0.072 C 
HETATM   16  C   UNK N   1      -2.299   0.602  -0.051  0.00  0.00     0.142 C 
ENDROOT
BRANCH  16  17
HETATM   17  C   UNK N   1      -3.606   1.294  -0.421  0.00  0.00     0.142 C 
BRANCH  17  18
HETATM   18  C   UNK N   1      -3.620   2.764  -0.079  0.00  0.00     0.141 C 
HETATM   19  O   UNK N   1      -4.570   3.449  -0.417  0.00  0.00    -0.650 OA
BRANCH  18  20
HETATM   20  O   UNK N   1      -2.596   3.334   0.589  0.00  0.00    -0.776 OA
HETATM   21  H   UNK N   1      -1.897   2.916   1.053  0.00  0.00     0.167 HD
ENDBRANCH  18  20
ENDBRANCH  17  18
ENDBRANCH  16  17
BRANCH   1  22
HETATM   22  O   UNK N   1       3.840  -2.979   0.550  0.00  0.00    -0.360 OA
HETATM   23  H   UNK N   1       3.064  -3.485   0.692  0.00  0.00     0.217 HD
ENDBRANCH   1  22
TORSDOF 4
