MODEL 1
REMARK VINA RESULT:      -7.0      0.000      0.000
REMARK  4 active torsions:
REMARK  status: ('A' for Active; 'I' for Inactive)
REMARK    1  A    between atoms: C_2  and  O_1 
REMARK    2  A    between atoms: C_17  and  C_18 
REMARK    3  A    between atoms: C_18  and  C_19 
REMARK    4  A    between atoms: C_19  and  O_21 
ROOT
HETATM    1  C   UNK N   1      37.449  11.713  12.743  0.00  0.00     0.080 A 
HETATM    2  C   UNK N   1      36.874  12.878  12.184  0.00  0.00     0.058 A 
HETATM    3  C   UNK N   1      36.726  13.063  10.708  0.00  0.00     0.199 A 
HETATM    4  O   UNK N   1      37.139  12.214   9.933  0.00  0.00    -0.286 OA
HETATM    5  C   UNK N   1      36.014  14.281  10.210  0.00  0.00     0.050 A 
HETATM    6  C   UNK N   1      35.689  14.510   8.903  0.00  0.00     0.058 C 
HETATM    7  O   UNK N   1      34.960  15.620   8.571  0.00  0.00    -0.349 OA
HETATM    8  C   UNK N   1      36.080  13.572   7.806  0.00  0.00     0.077 C 
HETATM    9  C   UNK N   1      37.541  11.579  14.132  0.00  0.00     0.037 A 
HETATM   10  C   UNK N   1      37.072  12.588  14.974  0.00  0.00     0.004 A 
HETATM   11  C   UNK N   1      36.509  13.742  14.434  0.00  0.00     0.012 A 
HETATM   12  C   UNK N   1      36.406  13.892  13.049  0.00  0.00    -0.019 A 
HETATM   13  C   UNK N   1      35.804  15.124  12.519  0.00  0.00     0.020 A 
HETATM   14  C   UNK N   1      35.619  15.311  11.210  0.00  0.00    -0.038 A 
HETATM   15  C   UNK N   1      35.033  16.594  10.733  0.00  0.00     0.072 C 
HETATM   16  C   UNK N   1      34.182  16.287   9.510  0.00  0.00     0.142 C 
ENDROOT
BRANCH  16  17
HETATM   17  C   UNK N   1      33.612  17.575   8.929  0.00  0.00     0.142 C 
BRANCH  17  18
HETATM   18  C   UNK N   1      34.568  18.286   8.001  0.00  0.00     0.141 C 
HETATM   19  O   UNK N   1      35.298  19.155   8.445  0.00  0.00    -0.650 OA
BRANCH  18  20
HETATM   20  O   UNK N   1      34.623  17.979   6.689  0.00  0.00    -0.776 OA
HETATM   21  H   UNK N   1      35.167  18.354   6.024  0.00  0.00     0.167 HD
ENDBRANCH  18  20
ENDBRANCH  17  18
ENDBRANCH  16  17
BRANCH   1  22
HETATM   22  O   UNK N   1      37.905  10.719  11.963  0.00  0.00    -0.360 OA
HETATM   23  H   UNK N   1      38.621  10.863  11.374  0.00  0.00     0.217 HD
ENDBRANCH   1  22
TORSDOF 4
ENDMDL
MODEL 2
REMARK VINA RESULT:      -6.8     13.509     15.020
REMARK  4 active torsions:
REMARK  status: ('A' for Active; 'I' for Inactive)
REMARK    1  A    between atoms: C_2  and  O_1 
REMARK    2  A    between atoms: C_17  and  C_18 
REMARK    3  A    between atoms: C_18  and  C_19 
REMARK    4  A    between atoms: C_19  and  O_21 
ROOT
HETATM    1  C   UNK N   1      21.433  12.631  10.403  0.00  0.00     0.080 A 
HETATM    2  C   UNK N   1      21.659  13.503   9.312  0.00  0.00     0.058 A 
HETATM    3  C   UNK N   1      20.634  14.492   8.859  0.00  0.00     0.199 A 
HETATM    4  O   UNK N   1      19.544  14.549   9.406  0.00  0.00    -0.286 OA
HETATM    5  C   UNK N   1      20.998  15.443   7.762  0.00  0.00     0.050 A 
HETATM    6  C   UNK N   1      20.214  16.481   7.344  0.00  0.00     0.058 C 
HETATM    7  O   UNK N   1      20.685  17.341   6.389  0.00  0.00    -0.349 OA
HETATM    8  C   UNK N   1      18.855  16.737   7.912  0.00  0.00     0.077 C 
HETATM    9  C   UNK N   1      22.435  11.741  10.803  0.00  0.00     0.037 A 
HETATM   10  C   UNK N   1      23.658  11.702  10.132  0.00  0.00     0.004 A 
HETATM   11  C   UNK N   1      23.888  12.551   9.052  0.00  0.00     0.012 A 
HETATM   12  C   UNK N   1      22.901  13.449   8.641  0.00  0.00    -0.019 A 
HETATM   13  C   UNK N   1      23.184  14.330   7.498  0.00  0.00     0.020 A 
HETATM   14  C   UNK N   1      22.311  15.253   7.088  0.00  0.00    -0.038 A 
HETATM   15  C   UNK N   1      22.643  16.094   5.904  0.00  0.00     0.072 C 
HETATM   16  C   UNK N   1      22.044  17.473   6.134  0.00  0.00     0.142 C 
ENDROOT
BRANCH  16  17
HETATM   17  C   UNK N   1      22.288  18.362   4.920  0.00  0.00     0.142 C 
BRANCH  17  18
HETATM   18  C   UNK N   1      21.015  18.816   4.248  0.00  0.00     0.141 C 
HETATM   19  O   UNK N   1      20.724  20.000   4.254  0.00  0.00    -0.650 OA
BRANCH  18  20
HETATM   20  O   UNK N   1      20.190  17.934   3.648  0.00  0.00    -0.776 OA
HETATM   21  H   UNK N   1      20.304  17.010   3.538  0.00  0.00     0.167 HD
ENDBRANCH  18  20
ENDBRANCH  17  18
ENDBRANCH  16  17
BRANCH   1  22
HETATM   22  O   UNK N   1      20.271  12.646  11.076  0.00  0.00    -0.360 OA
HETATM   23  H   UNK N   1      19.504  13.031  10.700  0.00  0.00     0.217 HD
ENDBRANCH   1  22
TORSDOF 4
ENDMDL
MODEL 3
REMARK VINA RESULT:      -6.8      3.538      5.520
REMARK  4 active torsions:
REMARK  status: ('A' for Active; 'I' for Inactive)
REMARK    1  A    between atoms: C_2  and  O_1 
REMARK    2  A    between atoms: C_17  and  C_18 
REMARK    3  A    between atoms: C_18  and  C_19 
REMARK    4  A    between atoms: C_19  and  O_21 
ROOT
HETATM    1  C   UNK N   1      35.161  10.583  18.636  0.00  0.00     0.080 A 
HETATM    2  C   UNK N   1      35.303  11.245  17.395  0.00  0.00     0.058 A 
HETATM    3  C   UNK N   1      35.400  10.501  16.103  0.00  0.00     0.199 A 
HETATM    4  O   UNK N   1      35.395   9.280  16.088  0.00  0.00    -0.286 OA
HETATM    5  C   UNK N   1      35.447  11.286  14.830  0.00  0.00     0.050 A 
HETATM    6  C   UNK N   1      35.399  10.740  13.578  0.00  0.00     0.058 C 
HETATM    7  O   UNK N   1      35.362  11.560  12.483  0.00  0.00    -0.349 OA
HETATM    8  C   UNK N   1      35.358   9.262  13.352  0.00  0.00     0.077 C 
HETATM    9  C   UNK N   1      35.049  11.328  19.815  0.00  0.00     0.037 A 
HETATM   10  C   UNK N   1      35.081  12.722  19.778  0.00  0.00     0.004 A 
HETATM   11  C   UNK N   1      35.228  13.384  18.561  0.00  0.00     0.012 A 
HETATM   12  C   UNK N   1      35.336  12.657  17.374  0.00  0.00    -0.019 A 
HETATM   13  C   UNK N   1      35.488  13.395  16.111  0.00  0.00     0.020 A 
HETATM   14  C   UNK N   1      35.539  12.769  14.933  0.00  0.00    -0.038 A 
HETATM   15  C   UNK N   1      35.725  13.569  13.690  0.00  0.00     0.072 C 
HETATM   16  C   UNK N   1      34.947  12.882  12.578  0.00  0.00     0.142 C 
ENDROOT
BRANCH  16  17
HETATM   17  C   UNK N   1      35.159  13.616  11.258  0.00  0.00     0.142 C 
BRANCH  17  18
HETATM   18  C   UNK N   1      34.444  14.944  11.193  0.00  0.00     0.141 C 
HETATM   19  O   UNK N   1      35.091  15.976  11.250  0.00  0.00    -0.650 OA
BRANCH  18  20
HETATM   20  O   UNK N   1      33.102  15.008  11.079  0.00  0.00    -0.776 OA
HETATM   21  H   UNK N   1      32.470  15.226  11.736  0.00  0.00     0.167 HD
ENDBRANCH  18  20
ENDBRANCH  17  18
ENDBRANCH  16  17
BRANCH   1  22
HETATM   22  O   UNK N   1      35.120   9.242  18.709  0.00  0.00    -0.360 OA
HETATM   23  H   UNK N   1      35.482   8.792  19.446  0.00  0.00     0.217 HD
ENDBRANCH   1  22
TORSDOF 4
ENDMDL
MODEL 4
REMARK VINA RESULT:      -6.8      3.982      6.178
REMARK  4 active torsions:
REMARK  status: ('A' for Active; 'I' for Inactive)
REMARK    1  A    between atoms: C_2  and  O_1 
REMARK    2  A    between atoms: C_17  and  C_18 
REMARK    3  A    between atoms: C_18  and  C_19 
REMARK    4  A    between atoms: C_19  and  O_21 
ROOT
HETATM    1  C   UNK N   1      35.336  11.892  19.381  0.00  0.00     0.080 A 
HETATM    2  C   UNK N   1      35.386  12.120  17.986  0.00  0.00     0.058 A 
HETATM    3  C   UNK N   1      35.880  13.407  17.408  0.00  0.00     0.199 A 
HETATM    4  O   UNK N   1      36.226  14.323  18.138  0.00  0.00    -0.286 OA
HETATM    5  C   UNK N   1      35.994  13.523  15.921  0.00  0.00     0.050 A 
HETATM    6  C   UNK N   1      36.554  14.582  15.265  0.00  0.00     0.058 C 
HETATM    7  O   UNK N   1      36.682  14.544  13.903  0.00  0.00    -0.349 OA
HETATM    8  C   UNK N   1      37.064  15.789  15.985  0.00  0.00     0.077 C 
HETATM    9  C   UNK N   1      34.889  10.660  19.870  0.00  0.00     0.037 A 
HETATM   10  C   UNK N   1      34.487   9.653  18.993  0.00  0.00     0.004 A 
HETATM   11  C   UNK N   1      34.526   9.870  17.617  0.00  0.00     0.012 A 
HETATM   12  C   UNK N   1      34.973  11.092  17.111  0.00  0.00    -0.019 A 
HETATM   13  C   UNK N   1      35.001  11.280  15.653  0.00  0.00     0.020 A 
HETATM   14  C   UNK N   1      35.471  12.399  15.096  0.00  0.00    -0.038 A 
HETATM   15  C   UNK N   1      35.444  12.542  13.614  0.00  0.00     0.072 C 
HETATM   16  C   UNK N   1      36.670  13.343  13.204  0.00  0.00     0.142 C 
ENDROOT
BRANCH  16  17
HETATM   17  C   UNK N   1      36.660  13.588  11.700  0.00  0.00     0.142 C 
BRANCH  17  18
HETATM   18  C   UNK N   1      36.114  14.943  11.319  0.00  0.00     0.141 C 
HETATM   19  O   UNK N   1      34.910  15.095  11.211  0.00  0.00    -0.650 OA
BRANCH  18  20
HETATM   20  O   UNK N   1      36.938  15.986  11.090  0.00  0.00    -0.776 OA
HETATM   21  H   UNK N   1      36.969  16.813  11.532  0.00  0.00     0.167 HD
ENDBRANCH  18  20
ENDBRANCH  17  18
ENDBRANCH  16  17
BRANCH   1  22
HETATM   22  O   UNK N   1      35.722  12.837  20.255  0.00  0.00    -0.360 OA
HETATM   23  H   UNK N   1      35.486  13.734  20.125  0.00  0.00     0.217 HD
ENDBRANCH   1  22
TORSDOF 4
ENDMDL
MODEL 5
REMARK VINA RESULT:      -6.7      5.712      9.753
REMARK  4 active torsions:
REMARK  status: ('A' for Active; 'I' for Inactive)
REMARK    1  A    between atoms: C_2  and  O_1 
REMARK    2  A    between atoms: C_17  and  C_18 
REMARK    3  A    between atoms: C_18  and  C_19 
REMARK    4  A    between atoms: C_19  and  O_21 
ROOT
HETATM    1  C   UNK N   1      26.478  16.220   5.355  0.00  0.00     0.080 A 
HETATM    2  C   UNK N   1      27.848  16.545   5.486  0.00  0.00     0.058 A 
HETATM    3  C   UNK N   1      28.430  17.030   6.774  0.00  0.00     0.199 A 
HETATM    4  O   UNK N   1      27.720  17.195   7.753  0.00  0.00    -0.286 OA
HETATM    5  C   UNK N   1      29.908  17.252   6.849  0.00  0.00     0.050 A 
HETATM    6  C   UNK N   1      30.590  17.560   7.992  0.00  0.00     0.058 C 
HETATM    7  O   UNK N   1      31.955  17.658   7.960  0.00  0.00    -0.349 OA
HETATM    8  C   UNK N   1      29.901  17.774   9.301  0.00  0.00     0.077 C 
HETATM    9  C   UNK N   1      25.987  15.747   4.133  0.00  0.00     0.037 A 
HETATM   10  C   UNK N   1      26.839  15.595   3.039  0.00  0.00     0.004 A 
HETATM   11  C   UNK N   1      28.189  15.919   3.155  0.00  0.00     0.012 A 
HETATM   12  C   UNK N   1      28.697  16.389   4.368  0.00  0.00    -0.019 A 
HETATM   13  C   UNK N   1      30.128  16.717   4.450  0.00  0.00     0.020 A 
HETATM   14  C   UNK N   1      30.694  17.115   5.591  0.00  0.00    -0.038 A 
HETATM   15  C   UNK N   1      32.143  17.463   5.604  0.00  0.00     0.072 C 
HETATM   16  C   UNK N   1      32.704  17.055   6.957  0.00  0.00     0.142 C 
ENDROOT
BRANCH  16  17
HETATM   17  C   UNK N   1      34.172  17.454   7.059  0.00  0.00     0.142 C 
BRANCH  17  18
HETATM   18  C   UNK N   1      34.536  18.054   8.395  0.00  0.00     0.141 C 
HETATM   19  O   UNK N   1      35.178  19.089   8.433  0.00  0.00    -0.650 OA
BRANCH  18  20
HETATM   20  O   UNK N   1      34.168  17.460   9.549  0.00  0.00    -0.776 OA
HETATM   21  H   UNK N   1      34.698  16.973  10.150  0.00  0.00     0.167 HD
ENDBRANCH  18  20
ENDBRANCH  17  18
ENDBRANCH  16  17
BRANCH   1  22
HETATM   22  O   UNK N   1      25.630  16.348   6.389  0.00  0.00    -0.360 OA
HETATM   23  H   UNK N   1      24.867  16.888   6.319  0.00  0.00     0.217 HD
ENDBRANCH   1  22
TORSDOF 4
ENDMDL
MODEL 6
REMARK VINA RESULT:      -6.6      2.285      3.854
REMARK  4 active torsions:
REMARK  status: ('A' for Active; 'I' for Inactive)
REMARK    1  A    between atoms: C_2  and  O_1 
REMARK    2  A    between atoms: C_17  and  C_18 
REMARK    3  A    between atoms: C_18  and  C_19 
REMARK    4  A    between atoms: C_19  and  O_21 
ROOT
HETATM    1  C   UNK N   1      36.961   9.957  16.436  0.00  0.00     0.080 A 
HETATM    2  C   UNK N   1      36.633  11.003  15.542  0.00  0.00     0.058 A 
HETATM    3  C   UNK N   1      37.127  11.030  14.132  0.00  0.00     0.199 A 
HETATM    4  O   UNK N   1      37.870  10.153  13.718  0.00  0.00    -0.286 OA
HETATM    5  C   UNK N   1      36.647  12.122  13.229  0.00  0.00     0.050 A 
HETATM    6  C   UNK N   1      36.907  12.192  11.889  0.00  0.00     0.058 C 
HETATM    7  O   UNK N   1      36.345  13.192  11.143  0.00  0.00    -0.349 OA
HETATM    8  C   UNK N   1      37.772  11.194  11.189  0.00  0.00     0.077 C 
HETATM    9  C   UNK N   1      36.452   9.967  17.738  0.00  0.00     0.037 A 
HETATM   10  C   UNK N   1      35.623  11.004  18.167  0.00  0.00     0.004 A 
HETATM   11  C   UNK N   1      35.299  12.043  17.298  0.00  0.00     0.012 A 
HETATM   12  C   UNK N   1      35.795  12.048  15.992  0.00  0.00    -0.019 A 
HETATM   13  C   UNK N   1      35.428  13.162  15.105  0.00  0.00     0.020 A 
HETATM   14  C   UNK N   1      35.817  13.202  13.829  0.00  0.00    -0.038 A 
HETATM   15  C   UNK N   1      35.438  14.373  12.989  0.00  0.00     0.072 C 
HETATM   16  C   UNK N   1      35.211  13.871  11.571  0.00  0.00     0.142 C 
ENDROOT
BRANCH  16  17
HETATM   17  C   UNK N   1      34.891  15.038  10.645  0.00  0.00     0.142 C 
BRANCH  17  18
HETATM   18  C   UNK N   1      35.953  16.111  10.649  0.00  0.00     0.141 C 
HETATM   19  O   UNK N   1      35.621  17.283  10.596  0.00  0.00    -0.650 OA
BRANCH  18  20
HETATM   20  O   UNK N   1      37.263  15.795  10.706  0.00  0.00    -0.776 OA
HETATM   21  H   UNK N   1      37.751  15.454  11.430  0.00  0.00     0.167 HD
ENDBRANCH  18  20
ENDBRANCH  17  18
ENDBRANCH  16  17
BRANCH   1  22
HETATM   22  O   UNK N   1      37.751   8.939  16.055  0.00  0.00    -0.360 OA
HETATM   23  H   UNK N   1      38.182   8.404  16.692  0.00  0.00     0.217 HD
ENDBRANCH   1  22
TORSDOF 4
ENDMDL
MODEL 7
REMARK VINA RESULT:      -6.6     11.307     14.535
REMARK  4 active torsions:
REMARK  status: ('A' for Active; 'I' for Inactive)
REMARK    1  A    between atoms: C_2  and  O_1 
REMARK    2  A    between atoms: C_17  and  C_18 
REMARK    3  A    between atoms: C_18  and  C_19 
REMARK    4  A    between atoms: C_19  and  O_21 
ROOT
HETATM    1  C   UNK N   1      27.165  17.474   5.811  0.00  0.00     0.080 A 
HETATM    2  C   UNK N   1      26.168  18.118   5.042  0.00  0.00     0.058 A 
HETATM    3  C   UNK N   1      24.839  17.488   4.776  0.00  0.00     0.199 A 
HETATM    4  O   UNK N   1      24.589  16.367   5.192  0.00  0.00    -0.286 OA
HETATM    5  C   UNK N   1      23.808  18.284   4.039  0.00  0.00     0.050 A 
HETATM    6  C   UNK N   1      22.514  17.889   3.847  0.00  0.00     0.058 C 
HETATM    7  O   UNK N   1      21.633  18.737   3.231  0.00  0.00    -0.349 OA
HETATM    8  C   UNK N   1      22.006  16.562   4.309  0.00  0.00     0.077 C 
HETATM    9  C   UNK N   1      28.384  18.117   6.051  0.00  0.00     0.037 A 
HETATM   10  C   UNK N   1      28.626  19.391   5.537  0.00  0.00     0.004 A 
HETATM   11  C   UNK N   1      27.653  20.031   4.772  0.00  0.00     0.012 A 
HETATM   12  C   UNK N   1      26.429  19.406   4.525  0.00  0.00    -0.019 A 
HETATM   13  C   UNK N   1      25.429  20.116   3.716  0.00  0.00     0.020 A 
HETATM   14  C   UNK N   1      24.216  19.605   3.488  0.00  0.00    -0.038 A 
HETATM   15  C   UNK N   1      23.256  20.360   2.634  0.00  0.00     0.072 C 
HETATM   16  C   UNK N   1      21.858  20.107   3.176  0.00  0.00     0.142 C 
ENDROOT
BRANCH  16  17
HETATM   17  C   UNK N   1      20.821  20.795   2.297  0.00  0.00     0.142 C 
BRANCH  17  18
HETATM   18  C   UNK N   1      20.814  20.289   0.875  0.00  0.00     0.141 C 
HETATM   19  O   UNK N   1      21.147  21.036  -0.029  0.00  0.00    -0.650 OA
BRANCH  18  20
HETATM   20  O   UNK N   1      20.440  19.025   0.587  0.00  0.00    -0.776 OA
HETATM   21  H   UNK N   1      19.722  18.534   0.937  0.00  0.00     0.167 HD
ENDBRANCH  18  20
ENDBRANCH  17  18
ENDBRANCH  16  17
BRANCH   1  22
HETATM   22  O   UNK N   1      26.964  16.250   6.328  0.00  0.00    -0.360 OA
HETATM   23  H   UNK N   1      26.509  16.143   7.140  0.00  0.00     0.217 HD
ENDBRANCH   1  22
TORSDOF 4
ENDMDL
MODEL 8
REMARK VINA RESULT:      -6.4     15.730     20.314
REMARK  4 active torsions:
REMARK  status: ('A' for Active; 'I' for Inactive)
REMARK    1  A    between atoms: C_2  and  O_1 
REMARK    2  A    between atoms: C_17  and  C_18 
REMARK    3  A    between atoms: C_18  and  C_19 
REMARK    4  A    between atoms: C_19  and  O_21 
ROOT
HETATM    1  C   UNK N   1      26.007  23.238  -7.211  0.00  0.00     0.080 A 
HETATM    2  C   UNK N   1      27.255  22.653  -6.895  0.00  0.00     0.058 A 
HETATM    3  C   UNK N   1      28.141  23.200  -5.823  0.00  0.00     0.199 A 
HETATM    4  O   UNK N   1      27.822  24.205  -5.207  0.00  0.00    -0.286 OA
HETATM    5  C   UNK N   1      29.396  22.457  -5.488  0.00  0.00     0.050 A 
HETATM    6  C   UNK N   1      30.225  22.764  -4.446  0.00  0.00     0.058 C 
HETATM    7  O   UNK N   1      31.302  21.963  -4.180  0.00  0.00    -0.349 OA
HETATM    8  C   UNK N   1      29.988  23.941  -3.555  0.00  0.00     0.077 C 
HETATM    9  C   UNK N   1      25.203  22.671  -8.206  0.00  0.00     0.037 A 
HETATM   10  C   UNK N   1      25.624  21.533  -8.894  0.00  0.00     0.004 A 
HETATM   11  C   UNK N   1      26.855  20.953  -8.595  0.00  0.00     0.012 A 
HETATM   12  C   UNK N   1      27.668  21.502  -7.602  0.00  0.00    -0.019 A 
HETATM   13  C   UNK N   1      28.959  20.858  -7.315  0.00  0.00     0.020 A 
HETATM   14  C   UNK N   1      29.761  21.293  -6.341  0.00  0.00    -0.038 A 
HETATM   15  C   UNK N   1      31.070  20.617  -6.119  0.00  0.00     0.072 C 
HETATM   16  C   UNK N   1      31.359  20.648  -4.626  0.00  0.00     0.142 C 
ENDROOT
BRANCH  16  17
HETATM   17  C   UNK N   1      32.726  20.035  -4.343  0.00  0.00     0.142 C 
BRANCH  17  18
HETATM   18  C   UNK N   1      33.501  20.771  -3.277  0.00  0.00     0.141 C 
HETATM   19  O   UNK N   1      34.647  21.121  -3.503  0.00  0.00    -0.650 OA
BRANCH  18  20
HETATM   20  O   UNK N   1      32.949  21.044  -2.077  0.00  0.00    -0.776 OA
HETATM   21  H   UNK N   1      32.193  20.657  -1.681  0.00  0.00     0.167 HD
ENDBRANCH  18  20
ENDBRANCH  17  18
ENDBRANCH  16  17
BRANCH   1  22
HETATM   22  O   UNK N   1      25.567  24.330  -6.565  0.00  0.00    -0.360 OA
HETATM   23  H   UNK N   1      25.779  25.189  -6.876  0.00  0.00     0.217 HD
ENDBRANCH   1  22
TORSDOF 4
ENDMDL
MODEL 9
REMARK VINA RESULT:      -6.3      5.654      9.982
REMARK  4 active torsions:
REMARK  status: ('A' for Active; 'I' for Inactive)
REMARK    1  A    between atoms: C_2  and  O_1 
REMARK    2  A    between atoms: C_17  and  C_18 
REMARK    3  A    between atoms: C_18  and  C_19 
REMARK    4  A    between atoms: C_19  and  O_21 
ROOT
HETATM    1  C   UNK N   1      26.623  18.685   4.696  0.00  0.00     0.080 A 
HETATM    2  C   UNK N   1      27.671  18.374   5.594  0.00  0.00     0.058 A 
HETATM    3  C   UNK N   1      28.539  17.171   5.416  0.00  0.00     0.199 A 
HETATM    4  O   UNK N   1      28.339  16.392   4.497  0.00  0.00    -0.286 OA
HETATM    5  C   UNK N   1      29.687  16.975   6.356  0.00  0.00     0.050 A 
HETATM    6  C   UNK N   1      30.637  16.001   6.229  0.00  0.00     0.058 C 
HETATM    7  O   UNK N   1      31.692  15.969   7.099  0.00  0.00    -0.349 OA
HETATM    8  C   UNK N   1      30.585  14.970   5.148  0.00  0.00     0.077 C 
HETATM    9  C   UNK N   1      25.855  19.838   4.894  0.00  0.00     0.037 A 
HETATM   10  C   UNK N   1      26.112  20.684   5.972  0.00  0.00     0.004 A 
HETATM   11  C   UNK N   1      27.137  20.383   6.866  0.00  0.00     0.012 A 
HETATM   12  C   UNK N   1      27.917  19.239   6.683  0.00  0.00    -0.019 A 
HETATM   13  C   UNK N   1      28.990  18.959   7.648  0.00  0.00     0.020 A 
HETATM   14  C   UNK N   1      29.812  17.916   7.503  0.00  0.00    -0.038 A 
HETATM   15  C   UNK N   1      30.861  17.667   8.530  0.00  0.00     0.072 C 
HETATM   16  C   UNK N   1      32.077  17.093   7.820  0.00  0.00     0.142 C 
ENDROOT
BRANCH  16  17
HETATM   17  C   UNK N   1      33.163  16.746   8.832  0.00  0.00     0.142 C 
BRANCH  17  18
HETATM   18  C   UNK N   1      34.418  17.567   8.664  0.00  0.00     0.141 C 
HETATM   19  O   UNK N   1      35.187  17.685   9.602  0.00  0.00    -0.650 OA
BRANCH  18  20
HETATM   20  O   UNK N   1      34.700  18.177   7.494  0.00  0.00    -0.776 OA
HETATM   21  H   UNK N   1      34.700  17.813   6.631  0.00  0.00     0.167 HD
ENDBRANCH  18  20
ENDBRANCH  17  18
ENDBRANCH  16  17
BRANCH   1  22
HETATM   22  O   UNK N   1      26.351  17.897   3.643  0.00  0.00    -0.360 OA
HETATM   23  H   UNK N   1      25.942  17.062   3.763  0.00  0.00     0.217 HD
ENDBRANCH   1  22
TORSDOF 4
ENDMDL
