MODEL 1
REMARK VINA RESULT:      -7.7      0.000      0.000
REMARK  5 active torsions:
REMARK  status: ('A' for Active; 'I' for Inactive)
REMARK    1  A    between atoms: C_10  and  C_13 
REMARK    2  A    between atoms: C_13  and  C_14 
REMARK    3  A    between atoms: C_14  and  C_15 
REMARK    4  A    between atoms: C_16  and  O_17 
REMARK    5  A    between atoms: C_18  and  O_19 
ROOT
HETATM    1  C   UNK N   1      29.444  25.032  -4.161  0.00  0.00     0.017 C 
ENDROOT
BRANCH   1   2
HETATM    2  C   UNK N   1      28.488  26.205  -3.949  0.00  0.00     0.061 C 
HETATM    3  C   UNK N   1      27.095  25.950  -4.574  0.00  0.00     0.013 C 
HETATM    4  C   UNK N   1      27.020  25.332  -5.973  0.00  0.00     0.014 C 
HETATM    5  C   UNK N   1      26.248  27.215  -4.711  0.00  0.00     0.021 C 
HETATM    6  C   UNK N   1      25.543  25.483  -6.349  0.00  0.00     0.079 C 
HETATM    7  C   UNK N   1      25.168  26.716  -5.602  0.00  0.00     0.135 C 
HETATM    8  O   UNK N   1      24.164  27.360  -5.864  0.00  0.00    -0.297 OA
HETATM    9  C   UNK N   1      25.749  27.718  -3.362  0.00  0.00     0.024 C 
HETATM   10  C   UNK N   1      26.999  28.294  -5.500  0.00  0.00     0.025 C 
HETATM   11  C   UNK N   1      28.388  28.646  -4.974  0.00  0.00     0.080 C 
HETATM   12  C   UNK N   1      29.130  27.537  -4.282  0.00  0.00     0.131 C 
HETATM   13  O   UNK N   1      30.243  27.779  -3.843  0.00  0.00    -0.298 OA
ENDBRANCH   1   2
BRANCH   1  14
HETATM   14  C   UNK N   1      28.883  23.685  -3.717  0.00  0.00     0.043 C 
BRANCH  14  15
HETATM   15  C   UNK N   1      29.953  22.658  -3.892  0.00  0.00    -0.016 A 
HETATM   16  C   UNK N   1      30.859  22.397  -2.846  0.00  0.00     0.105 A 
HETATM   17  C   UNK N   1      31.831  21.400  -2.994  0.00  0.00     0.099 A 
HETATM   18  C   UNK N   1      31.907  20.669  -4.182  0.00  0.00     0.040 A 
HETATM   19  C   UNK N   1      31.020  20.933  -5.228  0.00  0.00     0.010 A 
HETATM   20  C   UNK N   1      30.044  21.923  -5.092  0.00  0.00    -0.053 A 
HETATM   21  C   UNK N   1      29.102  22.169  -6.222  0.00  0.00     0.049 C 
BRANCH  16  22
HETATM   22  O   UNK N   1      30.792  23.100  -1.698  0.00  0.00    -0.357 OA
HETATM   23  H   UNK N   1      31.572  23.279  -1.212  0.00  0.00     0.217 HD
ENDBRANCH  16  22
BRANCH  17  24
HETATM   24  O   UNK N   1      32.689  21.138  -1.994  0.00  0.00    -0.358 OA
HETATM   25  H   UNK N   1      33.580  21.426  -2.034  0.00  0.00     0.217 HD
ENDBRANCH  17  24
ENDBRANCH  14  15
ENDBRANCH   1  14
TORSDOF 5
ENDMDL
MODEL 2
REMARK VINA RESULT:      -7.3     11.221     15.504
REMARK  5 active torsions:
REMARK  status: ('A' for Active; 'I' for Inactive)
REMARK    1  A    between atoms: C_10  and  C_13 
REMARK    2  A    between atoms: C_13  and  C_14 
REMARK    3  A    between atoms: C_14  and  C_15 
REMARK    4  A    between atoms: C_16  and  O_17 
REMARK    5  A    between atoms: C_18  and  O_19 
ROOT
HETATM    1  C   UNK N   1      30.667  16.894   6.298  0.00  0.00     0.017 C 
ENDROOT
BRANCH   1   2
HETATM    2  C   UNK N   1      31.454  16.041   7.293  0.00  0.00     0.061 C 
HETATM    3  C   UNK N   1      32.519  16.864   8.060  0.00  0.00     0.013 C 
HETATM    4  C   UNK N   1      33.379  17.860   7.278  0.00  0.00     0.014 C 
HETATM    5  C   UNK N   1      33.556  15.999   8.774  0.00  0.00     0.021 C 
HETATM    6  C   UNK N   1      34.458  18.263   8.287  0.00  0.00     0.079 C 
HETATM    7  C   UNK N   1      34.572  17.030   9.113  0.00  0.00     0.135 C 
HETATM    8  O   UNK N   1      35.531  16.813   9.838  0.00  0.00    -0.297 OA
HETATM    9  C   UNK N   1      32.971  15.289   9.988  0.00  0.00     0.024 C 
HETATM   10  C   UNK N   1      34.232  15.031   7.794  0.00  0.00     0.025 C 
HETATM   11  C   UNK N   1      33.285  14.151   6.982  0.00  0.00     0.080 C 
HETATM   12  C   UNK N   1      31.935  14.741   6.681  0.00  0.00     0.131 C 
HETATM   13  O   UNK N   1      31.146  14.067   6.037  0.00  0.00    -0.298 OA
ENDBRANCH   1   2
BRANCH   1  14
HETATM   14  C   UNK N   1      29.153  16.782   6.445  0.00  0.00     0.043 C 
BRANCH  14  15
HETATM   15  C   UNK N   1      28.562  18.129   6.183  0.00  0.00    -0.016 A 
HETATM   16  C   UNK N   1      28.337  18.554   4.859  0.00  0.00     0.105 A 
HETATM   17  C   UNK N   1      27.739  19.796   4.615  0.00  0.00     0.099 A 
HETATM   18  C   UNK N   1      27.371  20.616   5.685  0.00  0.00     0.040 A 
HETATM   19  C   UNK N   1      27.605  20.205   6.999  0.00  0.00     0.010 A 
HETATM   20  C   UNK N   1      28.199  18.967   7.256  0.00  0.00    -0.053 A 
HETATM   21  C   UNK N   1      28.421  18.552   8.671  0.00  0.00     0.049 C 
BRANCH  16  22
HETATM   22  O   UNK N   1      28.690  17.768   3.823  0.00  0.00    -0.357 OA
HETATM   23  H   UNK N   1      29.376  17.138   3.926  0.00  0.00     0.217 HD
ENDBRANCH  16  22
BRANCH  17  24
HETATM   24  O   UNK N   1      27.509  20.201   3.356  0.00  0.00    -0.358 OA
HETATM   25  H   UNK N   1      26.637  20.367   3.053  0.00  0.00     0.217 HD
ENDBRANCH  17  24
ENDBRANCH  14  15
ENDBRANCH   1  14
TORSDOF 5
ENDMDL
MODEL 3
REMARK VINA RESULT:      -7.1     15.949     20.466
REMARK  5 active torsions:
REMARK  status: ('A' for Active; 'I' for Inactive)
REMARK    1  A    between atoms: C_10  and  C_13 
REMARK    2  A    between atoms: C_13  and  C_14 
REMARK    3  A    between atoms: C_14  and  C_15 
REMARK    4  A    between atoms: C_16  and  O_17 
REMARK    5  A    between atoms: C_18  and  O_19 
ROOT
HETATM    1  C   UNK N   1      34.844  14.012  10.006  0.00  0.00     0.017 C 
ENDROOT
BRANCH   1   2
HETATM    2  C   UNK N   1      34.882  12.890  11.043  0.00  0.00     0.061 C 
HETATM    3  C   UNK N   1      35.173  13.416  12.469  0.00  0.00     0.013 C 
HETATM    4  C   UNK N   1      36.268  14.470  12.653  0.00  0.00     0.014 C 
HETATM    5  C   UNK N   1      35.582  12.319  13.451  0.00  0.00     0.021 C 
HETATM    6  C   UNK N   1      36.445  14.536  14.173  0.00  0.00     0.079 C 
HETATM    7  C   UNK N   1      36.091  13.147  14.576  0.00  0.00     0.135 C 
HETATM    8  O   UNK N   1      36.393  12.684  15.666  0.00  0.00    -0.297 OA
HETATM    9  C   UNK N   1      34.410  11.422  13.828  0.00  0.00     0.024 C 
HETATM   10  C   UNK N   1      36.783  11.527  12.918  0.00  0.00     0.025 C 
HETATM   11  C   UNK N   1      36.615  10.943  11.518  0.00  0.00     0.080 C 
HETATM   12  C   UNK N   1      35.721  11.714  10.587  0.00  0.00     0.131 C 
HETATM   13  O   UNK N   1      35.557  11.277   9.458  0.00  0.00    -0.298 OA
ENDBRANCH   1   2
BRANCH   1  14
HETATM   14  C   UNK N   1      33.570  14.848  10.041  0.00  0.00     0.043 C 
BRANCH  14  15
HETATM   15  C   UNK N   1      33.687  15.914   9.001  0.00  0.00    -0.016 A 
HETATM   16  C   UNK N   1      34.405  17.094   9.279  0.00  0.00     0.105 A 
HETATM   17  C   UNK N   1      34.555  18.072   8.288  0.00  0.00     0.099 A 
HETATM   18  C   UNK N   1      33.988  17.880   7.026  0.00  0.00     0.040 A 
HETATM   19  C   UNK N   1      33.263  16.718   6.750  0.00  0.00     0.010 A 
HETATM   20  C   UNK N   1      33.108  15.734   7.729  0.00  0.00    -0.053 A 
HETATM   21  C   UNK N   1      32.342  14.499   7.396  0.00  0.00     0.049 C 
BRANCH  16  22
HETATM   22  O   UNK N   1      34.954  17.285  10.495  0.00  0.00    -0.357 OA
HETATM   23  H   UNK N   1      34.733  16.713  11.203  0.00  0.00     0.217 HD
ENDBRANCH  16  22
BRANCH  17  24
HETATM   24  O   UNK N   1      35.250  19.192   8.543  0.00  0.00    -0.358 OA
HETATM   25  H   UNK N   1      36.059  19.369   8.104  0.00  0.00     0.217 HD
ENDBRANCH  17  24
ENDBRANCH  14  15
ENDBRANCH   1  14
TORSDOF 5
ENDMDL
MODEL 4
REMARK VINA RESULT:      -6.9     21.554     25.023
REMARK  5 active torsions:
REMARK  status: ('A' for Active; 'I' for Inactive)
REMARK    1  A    between atoms: C_10  and  C_13 
REMARK    2  A    between atoms: C_13  and  C_14 
REMARK    3  A    between atoms: C_14  and  C_15 
REMARK    4  A    between atoms: C_16  and  O_17 
REMARK    5  A    between atoms: C_18  and  O_19 
ROOT
HETATM    1  C   UNK N   1      35.851  13.345  15.077  0.00  0.00     0.017 C 
ENDROOT
BRANCH   1   2
HETATM    2  C   UNK N   1      35.879  12.772  13.660  0.00  0.00     0.061 C 
HETATM    3  C   UNK N   1      36.555  11.380  13.601  0.00  0.00     0.013 C 
HETATM    4  C   UNK N   1      37.850  11.159  14.387  0.00  0.00     0.014 C 
HETATM    5  C   UNK N   1      36.932  10.947  12.185  0.00  0.00     0.021 C 
HETATM    6  C   UNK N   1      38.344   9.801  13.880  0.00  0.00     0.079 C 
HETATM    7  C   UNK N   1      37.814   9.789  12.489  0.00  0.00     0.135 C 
HETATM    8  O   UNK N   1      38.235   9.025  11.634  0.00  0.00    -0.297 OA
HETATM    9  C   UNK N   1      35.709  10.587  11.352  0.00  0.00     0.024 C 
HETATM   10  C   UNK N   1      37.818  12.000  11.508  0.00  0.00     0.025 C 
HETATM   11  C   UNK N   1      37.254  13.419  11.490  0.00  0.00     0.080 C 
HETATM   12  C   UNK N   1      36.358  13.785  12.641  0.00  0.00     0.131 C 
HETATM   13  O   UNK N   1      35.884  14.910  12.661  0.00  0.00    -0.298 OA
ENDBRANCH   1   2
BRANCH   1  14
HETATM   14  C   UNK N   1      34.568  13.044  15.844  0.00  0.00     0.043 C 
BRANCH  14  15
HETATM   15  C   UNK N   1      34.933  12.278  17.074  0.00  0.00    -0.016 A 
HETATM   16  C   UNK N   1      35.283  12.963  18.253  0.00  0.00     0.105 A 
HETATM   17  C   UNK N   1      35.577  12.245  19.418  0.00  0.00     0.099 A 
HETATM   18  C   UNK N   1      35.531  10.849  19.409  0.00  0.00     0.040 A 
HETATM   19  C   UNK N   1      35.197  10.164  18.239  0.00  0.00     0.010 A 
HETATM   20  C   UNK N   1      34.899  10.869  17.070  0.00  0.00    -0.053 A 
HETATM   21  C   UNK N   1      34.532  10.107  15.841  0.00  0.00     0.049 C 
BRANCH  16  22
HETATM   22  O   UNK N   1      35.330  14.310  18.268  0.00  0.00    -0.357 OA
HETATM   23  H   UNK N   1      35.659  14.775  17.525  0.00  0.00     0.217 HD
ENDBRANCH  16  22
BRANCH  17  24
HETATM   24  O   UNK N   1      35.898  12.894  20.550  0.00  0.00    -0.358 OA
HETATM   25  H   UNK N   1      35.253  13.371  21.033  0.00  0.00     0.217 HD
ENDBRANCH  17  24
ENDBRANCH  14  15
ENDBRANCH   1  14
TORSDOF 5
ENDMDL
MODEL 5
REMARK VINA RESULT:      -6.9     17.690     22.066
REMARK  5 active torsions:
REMARK  status: ('A' for Active; 'I' for Inactive)
REMARK    1  A    between atoms: C_10  and  C_13 
REMARK    2  A    between atoms: C_13  and  C_14 
REMARK    3  A    between atoms: C_14  and  C_15 
REMARK    4  A    between atoms: C_16  and  O_17 
REMARK    5  A    between atoms: C_18  and  O_19 
ROOT
HETATM    1  C   UNK N   1      34.949  13.405  11.909  0.00  0.00     0.017 C 
ENDROOT
BRANCH   1   2
HETATM    2  C   UNK N   1      36.004  13.002  12.939  0.00  0.00     0.061 C 
HETATM    3  C   UNK N   1      35.722  11.611  13.558  0.00  0.00     0.013 C 
HETATM    4  C   UNK N   1      34.289  11.268  13.970  0.00  0.00     0.014 C 
HETATM    5  C   UNK N   1      36.522  11.339  14.831  0.00  0.00     0.021 C 
HETATM    6  C   UNK N   1      34.449   9.968  14.762  0.00  0.00     0.079 C 
HETATM    7  C   UNK N   1      35.814  10.132  15.335  0.00  0.00     0.135 C 
HETATM    8  O   UNK N   1      36.214   9.465  16.276  0.00  0.00    -0.297 OA
HETATM    9  C   UNK N   1      37.999  11.110  14.541  0.00  0.00     0.024 C 
HETATM   10  C   UNK N   1      36.289  12.443  15.870  0.00  0.00     0.025 C 
HETATM   11  C   UNK N   1      36.546  13.867  15.384  0.00  0.00     0.080 C 
HETATM   12  C   UNK N   1      36.302  14.117  13.922  0.00  0.00     0.131 C 
HETATM   13  O   UNK N   1      36.499  15.243  13.492  0.00  0.00    -0.298 OA
ENDBRANCH   1   2
BRANCH   1  14
HETATM   14  C   UNK N   1      35.490  13.554  10.491  0.00  0.00     0.043 C 
BRANCH  14  15
HETATM   15  C   UNK N   1      34.872  14.771   9.885  0.00  0.00    -0.016 A 
HETATM   16  C   UNK N   1      35.497  16.025  10.028  0.00  0.00     0.105 A 
HETATM   17  C   UNK N   1      34.943  17.157   9.420  0.00  0.00     0.099 A 
HETATM   18  C   UNK N   1      33.766  17.045   8.676  0.00  0.00     0.040 A 
HETATM   19  C   UNK N   1      33.134  15.806   8.542  0.00  0.00     0.010 A 
HETATM   20  C   UNK N   1      33.678  14.668   9.143  0.00  0.00    -0.053 A 
HETATM   21  C   UNK N   1      32.987  13.359   8.967  0.00  0.00     0.049 C 
BRANCH  16  22
HETATM   22  O   UNK N   1      36.632  16.140  10.746  0.00  0.00    -0.357 OA
HETATM   23  H   UNK N   1      37.285  15.471  10.699  0.00  0.00     0.217 HD
ENDBRANCH  16  22
BRANCH  17  24
HETATM   24  O   UNK N   1      35.542  18.353   9.541  0.00  0.00    -0.358 OA
HETATM   25  H   UNK N   1      35.052  19.149   9.467  0.00  0.00     0.217 HD
ENDBRANCH  17  24
ENDBRANCH  14  15
ENDBRANCH   1  14
TORSDOF 5
ENDMDL
MODEL 6
REMARK VINA RESULT:      -6.8     14.076     17.219
REMARK  5 active torsions:
REMARK  status: ('A' for Active; 'I' for Inactive)
REMARK    1  A    between atoms: C_10  and  C_13 
REMARK    2  A    between atoms: C_13  and  C_14 
REMARK    3  A    between atoms: C_14  and  C_15 
REMARK    4  A    between atoms: C_16  and  O_17 
REMARK    5  A    between atoms: C_18  and  O_19 
ROOT
HETATM    1  C   UNK N   1      32.691  16.629   9.087  0.00  0.00     0.017 C 
ENDROOT
BRANCH   1   2
HETATM    2  C   UNK N   1      34.034  16.085   8.602  0.00  0.00     0.061 C 
HETATM    3  C   UNK N   1      33.908  14.675   7.975  0.00  0.00     0.013 C 
HETATM    4  C   UNK N   1      33.034  13.634   8.680  0.00  0.00     0.014 C 
HETATM    5  C   UNK N   1      35.247  13.955   7.824  0.00  0.00     0.021 C 
HETATM    6  C   UNK N   1      33.365  12.335   7.941  0.00  0.00     0.079 C 
HETATM    7  C   UNK N   1      34.773  12.577   7.525  0.00  0.00     0.135 C 
HETATM    8  O   UNK N   1      35.518  11.674   7.175  0.00  0.00    -0.297 OA
HETATM    9  C   UNK N   1      36.102  14.564   6.720  0.00  0.00     0.024 C 
HETATM   10  C   UNK N   1      35.983  13.878   9.167  0.00  0.00     0.025 C 
HETATM   11  C   UNK N   1      36.183  15.211   9.883  0.00  0.00     0.080 C 
HETATM   12  C   UNK N   1      35.129  16.255   9.636  0.00  0.00     0.131 C 
HETATM   13  O   UNK N   1      35.254  17.337  10.188  0.00  0.00    -0.298 OA
ENDBRANCH   1   2
BRANCH   1  14
HETATM   14  C   UNK N   1      32.187  17.832   8.297  0.00  0.00     0.043 C 
BRANCH  14  15
HETATM   15  C   UNK N   1      30.748  17.600   7.968  0.00  0.00    -0.016 A 
HETATM   16  C   UNK N   1      29.743  18.028   8.858  0.00  0.00     0.105 A 
HETATM   17  C   UNK N   1      28.394  17.853   8.526  0.00  0.00     0.099 A 
HETATM   18  C   UNK N   1      28.045  17.249   7.316  0.00  0.00     0.040 A 
HETATM   19  C   UNK N   1      29.037  16.810   6.437  0.00  0.00     0.010 A 
HETATM   20  C   UNK N   1      30.387  16.981   6.755  0.00  0.00    -0.053 A 
HETATM   21  C   UNK N   1      31.421  16.515   5.786  0.00  0.00     0.049 C 
BRANCH  16  22
HETATM   22  O   UNK N   1      30.074  18.611  10.027  0.00  0.00    -0.357 OA
HETATM   23  H   UNK N   1      29.842  19.504  10.187  0.00  0.00     0.217 HD
ENDBRANCH  16  22
BRANCH  17  24
HETATM   24  O   UNK N   1      27.432  18.271   9.365  0.00  0.00    -0.358 OA
HETATM   25  H   UNK N   1      27.190  17.763  10.114  0.00  0.00     0.217 HD
ENDBRANCH  17  24
ENDBRANCH  14  15
ENDBRANCH   1  14
TORSDOF 5
ENDMDL
MODEL 7
REMARK VINA RESULT:      -6.8      1.708      2.742
REMARK  5 active torsions:
REMARK  status: ('A' for Active; 'I' for Inactive)
REMARK    1  A    between atoms: C_10  and  C_13 
REMARK    2  A    between atoms: C_13  and  C_14 
REMARK    3  A    between atoms: C_14  and  C_15 
REMARK    4  A    between atoms: C_16  and  O_17 
REMARK    5  A    between atoms: C_18  and  O_19 
ROOT
HETATM    1  C   UNK N   1      28.708  24.390  -6.662  0.00  0.00     0.017 C 
ENDROOT
BRANCH   1   2
HETATM    2  C   UNK N   1      27.994  25.742  -6.634  0.00  0.00     0.061 C 
HETATM    3  C   UNK N   1      27.589  26.164  -5.200  0.00  0.00     0.013 C 
HETATM    4  C   UNK N   1      26.971  25.114  -4.273  0.00  0.00     0.014 C 
HETATM    5  C   UNK N   1      26.566  27.299  -5.167  0.00  0.00     0.021 C 
HETATM    6  C   UNK N   1      26.469  25.941  -3.087  0.00  0.00     0.079 C 
HETATM    7  C   UNK N   1      26.156  27.242  -3.739  0.00  0.00     0.135 C 
HETATM    8  O   UNK N   1      25.446  28.085  -3.212  0.00  0.00    -0.297 OA
HETATM    9  C   UNK N   1      27.177  28.632  -5.579  0.00  0.00     0.024 C 
HETATM   10  C   UNK N   1      25.323  26.940  -5.990  0.00  0.00     0.025 C 
HETATM   11  C   UNK N   1      25.589  26.517  -7.432  0.00  0.00     0.080 C 
HETATM   12  C   UNK N   1      26.907  25.839  -7.685  0.00  0.00     0.131 C 
HETATM   13  O   UNK N   1      27.160  25.488  -8.827  0.00  0.00    -0.298 OA
ENDBRANCH   1   2
BRANCH   1  14
HETATM   14  C   UNK N   1      30.153  24.441  -6.178  0.00  0.00     0.043 C 
BRANCH  14  15
HETATM   15  C   UNK N   1      30.332  23.379  -5.143  0.00  0.00    -0.016 A 
HETATM   16  C   UNK N   1      30.414  23.727  -3.781  0.00  0.00     0.105 A 
HETATM   17  C   UNK N   1      30.533  22.728  -2.808  0.00  0.00     0.099 A 
HETATM   18  C   UNK N   1      30.577  21.384  -3.189  0.00  0.00     0.040 A 
HETATM   19  C   UNK N   1      30.509  21.034  -4.539  0.00  0.00     0.010 A 
HETATM   20  C   UNK N   1      30.388  22.022  -5.520  0.00  0.00    -0.053 A 
HETATM   21  C   UNK N   1      30.303  21.612  -6.951  0.00  0.00     0.049 C 
BRANCH  16  22
HETATM   22  O   UNK N   1      30.374  25.022  -3.407  0.00  0.00    -0.357 OA
HETATM   23  H   UNK N   1      30.715  25.684  -3.975  0.00  0.00     0.217 HD
ENDBRANCH  16  22
BRANCH  17  24
HETATM   24  O   UNK N   1      30.599  23.053  -1.507  0.00  0.00    -0.358 OA
HETATM   25  H   UNK N   1      30.406  23.923  -1.217  0.00  0.00     0.217 HD
ENDBRANCH  17  24
ENDBRANCH  14  15
ENDBRANCH   1  14
TORSDOF 5
ENDMDL
MODEL 8
REMARK VINA RESULT:      -6.6      2.200      6.540
REMARK  5 active torsions:
REMARK  status: ('A' for Active; 'I' for Inactive)
REMARK    1  A    between atoms: C_10  and  C_13 
REMARK    2  A    between atoms: C_13  and  C_14 
REMARK    3  A    between atoms: C_14  and  C_15 
REMARK    4  A    between atoms: C_16  and  O_17 
REMARK    5  A    between atoms: C_18  and  O_19 
ROOT
HETATM    1  C   UNK N   1      27.139  26.875  -6.292  0.00  0.00     0.017 C 
ENDROOT
BRANCH   1   2
HETATM    2  C   UNK N   1      27.222  25.600  -5.453  0.00  0.00     0.061 C 
HETATM    3  C   UNK N   1      28.408  25.627  -4.458  0.00  0.00     0.013 C 
HETATM    4  C   UNK N   1      29.765  26.140  -4.946  0.00  0.00     0.014 C 
HETATM    5  C   UNK N   1      28.746  24.254  -3.879  0.00  0.00     0.021 C 
HETATM    6  C   UNK N   1      30.715  25.769  -3.804  0.00  0.00     0.079 C 
HETATM    7  C   UNK N   1      30.065  24.547  -3.258  0.00  0.00     0.135 C 
HETATM    8  O   UNK N   1      30.655  23.759  -2.535  0.00  0.00    -0.297 OA
HETATM    9  C   UNK N   1      27.693  23.774  -2.889  0.00  0.00     0.024 C 
HETATM   10  C   UNK N   1      29.010  23.237  -4.997  0.00  0.00     0.025 C 
HETATM   11  C   UNK N   1      27.904  23.108  -6.041  0.00  0.00     0.080 C 
HETATM   12  C   UNK N   1      27.094  24.349  -6.298  0.00  0.00     0.131 C 
HETATM   13  O   UNK N   1      26.196  24.286  -7.124  0.00  0.00    -0.298 OA
ENDBRANCH   1   2
BRANCH   1  14
HETATM   14  C   UNK N   1      26.294  27.978  -5.662  0.00  0.00     0.043 C 
BRANCH  14  15
HETATM   15  C   UNK N   1      27.179  28.786  -4.769  0.00  0.00    -0.016 A 
HETATM   16  C   UNK N   1      26.981  28.766  -3.375  0.00  0.00     0.105 A 
HETATM   17  C   UNK N   1      27.840  29.484  -2.535  0.00  0.00     0.099 A 
HETATM   18  C   UNK N   1      28.891  30.226  -3.081  0.00  0.00     0.040 A 
HETATM   19  C   UNK N   1      29.084  30.260  -4.464  0.00  0.00     0.010 A 
HETATM   20  C   UNK N   1      28.234  29.546  -5.312  0.00  0.00    -0.053 A 
HETATM   21  C   UNK N   1      28.477  29.591  -6.783  0.00  0.00     0.049 C 
BRANCH  16  22
HETATM   22  O   UNK N   1      25.969  28.053  -2.843  0.00  0.00    -0.357 OA
HETATM   23  H   UNK N   1      25.558  28.340  -2.052  0.00  0.00     0.217 HD
ENDBRANCH  16  22
BRANCH  17  24
HETATM   24  O   UNK N   1      27.665  29.458  -1.204  0.00  0.00    -0.358 OA
HETATM   25  H   UNK N   1      28.312  29.084  -0.639  0.00  0.00     0.217 HD
ENDBRANCH  17  24
ENDBRANCH  14  15
ENDBRANCH   1  14
TORSDOF 5
ENDMDL
MODEL 9
REMARK VINA RESULT:      -6.5     11.375     12.873
REMARK  5 active torsions:
REMARK  status: ('A' for Active; 'I' for Inactive)
REMARK    1  A    between atoms: C_10  and  C_13 
REMARK    2  A    between atoms: C_13  and  C_14 
REMARK    3  A    between atoms: C_14  and  C_15 
REMARK    4  A    between atoms: C_16  and  O_17 
REMARK    5  A    between atoms: C_18  and  O_19 
ROOT
HETATM    1  C   UNK N   1      29.198  18.029   6.087  0.00  0.00     0.017 C 
ENDROOT
BRANCH   1   2
HETATM    2  C   UNK N   1      27.694  17.870   5.866  0.00  0.00     0.061 C 
HETATM    3  C   UNK N   1      27.365  16.784   4.813  0.00  0.00     0.013 C 
HETATM    4  C   UNK N   1      28.191  16.736   3.526  0.00  0.00     0.014 C 
HETATM    5  C   UNK N   1      25.928  16.852   4.298  0.00  0.00     0.021 C 
HETATM    6  C   UNK N   1      27.421  15.746   2.647  0.00  0.00     0.079 C 
HETATM    7  C   UNK N   1      26.025  15.946   3.124  0.00  0.00     0.135 C 
HETATM    8  O   UNK N   1      25.054  15.575   2.482  0.00  0.00    -0.297 OA
HETATM    9  C   UNK N   1      24.922  16.395   5.347  0.00  0.00     0.024 C 
HETATM   10  C   UNK N   1      25.610  18.247   3.745  0.00  0.00     0.025 C 
HETATM   11  C   UNK N   1      25.881  19.409   4.696  0.00  0.00     0.080 C 
HETATM   12  C   UNK N   1      26.998  19.204   5.683  0.00  0.00     0.131 C 
HETATM   13  O   UNK N   1      27.244  20.109   6.465  0.00  0.00    -0.298 OA
ENDBRANCH   1   2
BRANCH   1  14
HETATM   14  C   UNK N   1      29.904  16.741   6.499  0.00  0.00     0.043 C 
BRANCH  14  15
HETATM   15  C   UNK N   1      31.347  17.056   6.723  0.00  0.00    -0.016 A 
HETATM   16  C   UNK N   1      31.851  17.163   8.034  0.00  0.00     0.105 A 
HETATM   17  C   UNK N   1      33.212  17.411   8.244  0.00  0.00     0.099 A 
HETATM   18  C   UNK N   1      34.071  17.558   7.152  0.00  0.00     0.040 A 
HETATM   19  C   UNK N   1      33.575  17.467   5.849  0.00  0.00     0.010 A 
HETATM   20  C   UNK N   1      32.218  17.218   5.627  0.00  0.00    -0.053 A 
HETATM   21  C   UNK N   1      31.724  17.111   4.224  0.00  0.00     0.049 C 
BRANCH  16  22
HETATM   22  O   UNK N   1      31.027  17.023   9.092  0.00  0.00    -0.357 OA
HETATM   23  H   UNK N   1      30.149  16.722   8.965  0.00  0.00     0.217 HD
ENDBRANCH  16  22
BRANCH  17  24
HETATM   24  O   UNK N   1      33.700  17.500   9.492  0.00  0.00    -0.358 OA
HETATM   25  H   UNK N   1      34.559  17.839   9.652  0.00  0.00     0.217 HD
ENDBRANCH  17  24
ENDBRANCH  14  15
ENDBRANCH   1  14
TORSDOF 5
ENDMDL
