MODEL 1
REMARK VINA RESULT:      -8.3      0.000      0.000
REMARK  8 active torsions:
REMARK  status: ('A' for Active; 'I' for Inactive)
REMARK    1  A    between atoms: C_7  and  N_8 
REMARK    2  A    between atoms: N_11  and  C_14 
REMARK    3  A    between atoms: C_14  and  C_15 
REMARK    4  A    between atoms: C_15  and  O_16 
REMARK    5  A    between atoms: C_15  and  C_17 
REMARK    6  A    between atoms: C_17  and  O_18 
REMARK    7  A    between atoms: O_18  and  C_19 
REMARK    8  A    between atoms: C_22  and  C_25 
ROOT
HETATM    1  C   UNK N   1      35.743  15.416  10.385  0.00  0.00     0.170 C 
ENDROOT
BRANCH   1   2
HETATM    2  C   UNK N   1      34.852  16.489   9.734  0.00  0.00     0.306 C 
BRANCH   2   3
HETATM    3  N   UNK N   1      34.828  16.562   8.255  0.00  0.00     0.094 N 
HETATM    4  C   UNK N   1      34.489  17.832   7.616  0.00  0.00     0.292 C 
HETATM    5  C   UNK N   1      33.053  18.268   7.888  0.00  0.00     0.154 C 
HETATM    6  N   UNK N   1      32.097  17.176   8.025  0.00  0.00    -0.364 N 
HETATM    7  C   UNK N   1      32.485  15.773   7.956  0.00  0.00     0.154 C 
HETATM    8  C   UNK N   1      33.975  15.525   7.689  0.00  0.00     0.292 C 
BRANCH   6   9
HETATM    9  C   UNK N   1      30.737  17.496   8.310  0.00  0.00     0.102 A 
HETATM   10  N   UNK N   1      30.405  18.082   9.499  0.00  0.00    -0.352 N 
HETATM   11  C   UNK N   1      29.119  18.403   9.805  0.00  0.00     0.089 A 
ATOM     12  HN  UNK N   1      31.142  18.285  10.174  1.00  0.00     0.166 HD
HETATM   13  C   UNK N   1      28.095  18.149   8.892  0.00  0.00     0.017 A 
HETATM   14  C   UNK N   1      28.403  17.560   7.668  0.00  0.00     0.005 A 
HETATM   15  C   UNK N   1      29.725  17.225   7.375  0.00  0.00     0.048 A 
ENDBRANCH   6   9
ENDBRANCH   2   3
ENDBRANCH   1   2
BRANCH   1  16
HETATM   16  O   UNK N   1      36.656  16.048  11.232  0.00  0.00    -0.392 OA
HETATM   17  H   UNK N   1      37.494  16.526  11.335  0.00  0.00     0.210 HD
ENDBRANCH   1  16
BRANCH   1  18
HETATM   18  C   UNK N   1      34.920  14.372  11.149  0.00  0.00     0.209 C 
BRANCH  18  19
HETATM   19  O   UNK N   1      35.723  13.483  11.828  0.00  0.00    -0.349 OA
BRANCH  19  20
HETATM   20  C   UNK N   1      35.568  13.183  13.136  0.00  0.00     0.068 A 
HETATM   21  C   UNK N   1      34.683  12.163  13.487  0.00  0.00     0.037 A 
HETATM   22  C   UNK N   1      34.525  11.794  14.822  0.00  0.00     0.010 A 
HETATM   23  C   UNK N   1      35.246  12.448  15.829  0.00  0.00    -0.054 A 
HETATM   24  C   UNK N   1      36.131  13.483  15.479  0.00  0.00     0.010 A 
HETATM   25  C   UNK N   1      36.293  13.848  14.141  0.00  0.00     0.037 A 
BRANCH  23  26
HETATM   26  C   UNK N   1      35.072  11.997  17.256  0.00  0.00     0.018 C 
HETATM   27  C   UNK N   1      35.366  13.144  18.225  0.00  0.00     0.009 C 
HETATM   28  C   UNK N   1      35.052  12.712  19.653  0.00  0.00     0.001 C 
HETATM   29  C   UNK N   1      35.893  11.495  20.027  0.00  0.00     0.000 C 
HETATM   30  C   UNK N   1      35.623  10.345  19.061  0.00  0.00     0.001 C 
HETATM   31  C   UNK N   1      35.922  10.776  17.626  0.00  0.00     0.009 C 
ENDBRANCH  23  26
ENDBRANCH  19  20
ENDBRANCH  18  19
ENDBRANCH   1  18
TORSDOF 8
ENDMDL
MODEL 2
REMARK VINA RESULT:      -7.6      1.458      2.166
REMARK  8 active torsions:
REMARK  status: ('A' for Active; 'I' for Inactive)
REMARK    1  A    between atoms: C_7  and  N_8 
REMARK    2  A    between atoms: N_11  and  C_14 
REMARK    3  A    between atoms: C_14  and  C_15 
REMARK    4  A    between atoms: C_15  and  O_16 
REMARK    5  A    between atoms: C_15  and  C_17 
REMARK    6  A    between atoms: C_17  and  O_18 
REMARK    7  A    between atoms: O_18  and  C_19 
REMARK    8  A    between atoms: C_22  and  C_25 
ROOT
HETATM    1  C   UNK N   1      35.434  14.177   8.361  0.00  0.00     0.170 C 
ENDROOT
BRANCH   1   2
HETATM    2  C   UNK N   1      34.236  14.917   7.739  0.00  0.00     0.306 C 
BRANCH   2   3
HETATM    3  N   UNK N   1      34.502  16.193   7.036  0.00  0.00     0.094 N 
HETATM    4  C   UNK N   1      34.515  17.435   7.807  0.00  0.00     0.292 C 
HETATM    5  C   UNK N   1      33.153  17.781   8.398  0.00  0.00     0.154 C 
HETATM    6  N   UNK N   1      32.012  17.371   7.588  0.00  0.00    -0.364 N 
HETATM    7  C   UNK N   1      32.155  16.642   6.334  0.00  0.00     0.154 C 
HETATM    8  C   UNK N   1      33.602  16.370   5.903  0.00  0.00     0.292 C 
BRANCH   6   9
HETATM    9  C   UNK N   1      30.700  17.630   8.083  0.00  0.00     0.102 A 
HETATM   10  N   UNK N   1      30.526  18.098   9.354  0.00  0.00    -0.352 N 
HETATM   11  C   UNK N   1      29.290  18.357   9.860  0.00  0.00     0.089 A 
ATOM     12  HN  UNK N   1      31.346  18.256   9.941  1.00  0.00     0.166 HD
HETATM   13  C   UNK N   1      28.154  18.162   9.073  0.00  0.00     0.017 A 
HETATM   14  C   UNK N   1      28.300  17.694   7.768  0.00  0.00     0.005 A 
HETATM   15  C   UNK N   1      29.573  17.420   7.271  0.00  0.00     0.048 A 
ENDBRANCH   6   9
ENDBRANCH   2   3
ENDBRANCH   1   2
BRANCH   1  16
HETATM   16  O   UNK N   1      36.494  14.202   7.452  0.00  0.00    -0.392 OA
HETATM   17  H   UNK N   1      37.009  14.699   6.796  0.00  0.00     0.210 HD
ENDBRANCH   1  16
BRANCH   1  18
HETATM   18  C   UNK N   1      35.851  14.789   9.705  0.00  0.00     0.209 C 
BRANCH  18  19
HETATM   19  O   UNK N   1      36.848  14.059  10.312  0.00  0.00    -0.349 OA
BRANCH  19  20
HETATM   20  C   UNK N   1      36.798  13.650  11.598  0.00  0.00     0.068 A 
HETATM   21  C   UNK N   1      36.205  14.488  12.543  0.00  0.00     0.037 A 
HETATM   22  C   UNK N   1      36.096  14.086  13.874  0.00  0.00     0.010 A 
HETATM   23  C   UNK N   1      36.587  12.839  14.281  0.00  0.00    -0.054 A 
HETATM   24  C   UNK N   1      37.194  11.996  13.333  0.00  0.00     0.010 A 
HETATM   25  C   UNK N   1      37.298  12.398  11.999  0.00  0.00     0.037 A 
BRANCH  23  26
HETATM   26  C   UNK N   1      36.420  12.428  15.720  0.00  0.00     0.018 C 
HETATM   27  C   UNK N   1      36.387  10.904  15.848  0.00  0.00     0.009 C 
HETATM   28  C   UNK N   1      36.357  10.505  17.319  0.00  0.00     0.001 C 
HETATM   29  C   UNK N   1      35.128  11.104  17.997  0.00  0.00     0.000 C 
HETATM   30  C   UNK N   1      35.137  12.624  17.866  0.00  0.00     0.001 C 
HETATM   31  C   UNK N   1      35.181  13.030  16.395  0.00  0.00     0.009 C 
ENDBRANCH  23  26
ENDBRANCH  19  20
ENDBRANCH  18  19
ENDBRANCH   1  18
TORSDOF 8
ENDMDL
MODEL 3
REMARK VINA RESULT:      -7.6      1.914      3.400
REMARK  8 active torsions:
REMARK  status: ('A' for Active; 'I' for Inactive)
REMARK    1  A    between atoms: C_7  and  N_8 
REMARK    2  A    between atoms: N_11  and  C_14 
REMARK    3  A    between atoms: C_14  and  C_15 
REMARK    4  A    between atoms: C_15  and  O_16 
REMARK    5  A    between atoms: C_15  and  C_17 
REMARK    6  A    between atoms: C_17  and  O_18 
REMARK    7  A    between atoms: O_18  and  C_19 
REMARK    8  A    between atoms: C_22  and  C_25 
ROOT
HETATM    1  C   UNK N   1      34.974  13.419  12.587  0.00  0.00     0.170 C 
ENDROOT
BRANCH   1   2
HETATM    2  C   UNK N   1      34.905  13.999  11.163  0.00  0.00     0.306 C 
BRANCH   2   3
HETATM    3  N   UNK N   1      36.029  14.852  10.710  0.00  0.00     0.094 N 
HETATM    4  C   UNK N   1      35.872  16.304  10.743  0.00  0.00     0.292 C 
HETATM    5  C   UNK N   1      34.803  16.807   9.779  0.00  0.00     0.154 C 
HETATM    6  N   UNK N   1      34.669  16.029   8.553  0.00  0.00    -0.364 N 
HETATM    7  C   UNK N   1      35.460  14.834   8.286  0.00  0.00     0.154 C 
HETATM    8  C   UNK N   1      36.476  14.472   9.376  0.00  0.00     0.292 C 
BRANCH   6   9
HETATM    9  C   UNK N   1      33.672  16.414   7.609  0.00  0.00     0.102 A 
HETATM   10  N   UNK N   1      32.348  16.251   7.906  0.00  0.00    -0.352 N 
HETATM   11  C   UNK N   1      31.369  16.607   7.031  0.00  0.00     0.089 A 
ATOM     12  HN  UNK N   1      32.088  15.851   8.807  1.00  0.00     0.166 HD
HETATM   13  C   UNK N   1      31.699  17.171   5.798  0.00  0.00     0.017 A 
HETATM   14  C   UNK N   1      33.041  17.357   5.470  0.00  0.00     0.005 A 
HETATM   15  C   UNK N   1      34.032  16.973   6.373  0.00  0.00     0.048 A 
ENDBRANCH   6   9
ENDBRANCH   2   3
ENDBRANCH   1   2
BRANCH   1  16
HETATM   16  O   UNK N   1      34.451  12.124  12.565  0.00  0.00    -0.392 OA
HETATM   17  H   UNK N   1      34.112  11.377  12.046  0.00  0.00     0.210 HD
ENDBRANCH   1  16
BRANCH   1  18
HETATM   18  C   UNK N   1      36.405  13.421  13.140  0.00  0.00     0.209 C 
BRANCH  18  19
HETATM   19  O   UNK N   1      36.441  13.791  14.465  0.00  0.00    -0.349 OA
BRANCH  19  20
HETATM   20  C   UNK N   1      36.217  12.937  15.487  0.00  0.00     0.068 A 
HETATM   21  C   UNK N   1      35.492  13.390  16.590  0.00  0.00     0.037 A 
HETATM   22  C   UNK N   1      35.203  12.527  17.647  0.00  0.00     0.010 A 
HETATM   23  C   UNK N   1      35.643  11.198  17.619  0.00  0.00    -0.054 A 
HETATM   24  C   UNK N   1      36.382  10.742  16.513  0.00  0.00     0.010 A 
HETATM   25  C   UNK N   1      36.666  11.605  15.452  0.00  0.00     0.037 A 
BRANCH  23  26
HETATM   26  C   UNK N   1      35.282  10.290  18.765  0.00  0.00     0.018 C 
HETATM   27  C   UNK N   1      34.181   9.311  18.354  0.00  0.00     0.009 C 
HETATM   28  C   UNK N   1      33.926   8.313  19.478  0.00  0.00     0.001 C 
HETATM   29  C   UNK N   1      33.509   9.051  20.747  0.00  0.00     0.000 C 
HETATM   30  C   UNK N   1      34.591  10.043  21.163  0.00  0.00     0.001 C 
HETATM   31  C   UNK N   1      34.861  11.038  20.037  0.00  0.00     0.009 C 
ENDBRANCH  23  26
ENDBRANCH  19  20
ENDBRANCH  18  19
ENDBRANCH   1  18
TORSDOF 8
ENDMDL
MODEL 4
REMARK VINA RESULT:      -7.5      3.035     10.039
REMARK  8 active torsions:
REMARK  status: ('A' for Active; 'I' for Inactive)
REMARK    1  A    between atoms: C_7  and  N_8 
REMARK    2  A    between atoms: N_11  and  C_14 
REMARK    3  A    between atoms: C_14  and  C_15 
REMARK    4  A    between atoms: C_15  and  O_16 
REMARK    5  A    between atoms: C_15  and  C_17 
REMARK    6  A    between atoms: C_17  and  O_18 
REMARK    7  A    between atoms: O_18  and  C_19 
REMARK    8  A    between atoms: C_22  and  C_25 
ROOT
HETATM    1  C   UNK N   1      37.013  14.372  11.069  0.00  0.00     0.170 C 
ENDROOT
BRANCH   1   2
HETATM    2  C   UNK N   1      36.452  13.666  12.316  0.00  0.00     0.306 C 
BRANCH   2   3
HETATM    3  N   UNK N   1      36.165  12.216  12.218  0.00  0.00     0.094 N 
HETATM    4  C   UNK N   1      34.848  11.728  12.620  0.00  0.00     0.292 C 
HETATM    5  C   UNK N   1      34.576  11.913  14.109  0.00  0.00     0.154 C 
HETATM    6  N   UNK N   1      35.751  11.801  14.965  0.00  0.00    -0.364 N 
HETATM    7  C   UNK N   1      37.092  11.578  14.440  0.00  0.00     0.154 C 
HETATM    8  C   UNK N   1      37.175  11.430  12.915  0.00  0.00     0.292 C 
BRANCH   6   9
HETATM    9  C   UNK N   1      35.589  11.991  16.369  0.00  0.00     0.102 A 
HETATM   10  N   UNK N   1      35.726  10.934  17.224  0.00  0.00    -0.352 N 
HETATM   11  C   UNK N   1      35.580  11.077  18.569  0.00  0.00     0.089 A 
ATOM     12  HN  UNK N   1      35.944  10.013  16.844  1.00  0.00     0.166 HD
HETATM   13  C   UNK N   1      35.297  12.330  19.116  0.00  0.00     0.017 A 
HETATM   14  C   UNK N   1      35.160  13.428  18.269  0.00  0.00     0.005 A 
HETATM   15  C   UNK N   1      35.299  13.261  16.893  0.00  0.00     0.048 A 
ENDBRANCH   6   9
ENDBRANCH   2   3
ENDBRANCH   1   2
BRANCH   1  16
HETATM   16  O   UNK N   1      38.191  13.728  10.684  0.00  0.00    -0.392 OA
HETATM   17  H   UNK N   1      38.819  13.506   9.979  0.00  0.00     0.210 HD
ENDBRANCH   1  16
BRANCH   1  18
HETATM   18  C   UNK N   1      36.000  14.393   9.917  0.00  0.00     0.209 C 
BRANCH  18  19
HETATM   19  O   UNK N   1      35.669  15.678   9.550  0.00  0.00    -0.349 OA
BRANCH  19  20
HETATM   20  C   UNK N   1      34.423  16.054   9.186  0.00  0.00     0.068 A 
HETATM   21  C   UNK N   1      33.386  15.128   9.301  0.00  0.00     0.037 A 
HETATM   22  C   UNK N   1      32.079  15.490   8.975  0.00  0.00     0.010 A 
HETATM   23  C   UNK N   1      31.792  16.784   8.523  0.00  0.00    -0.054 A 
HETATM   24  C   UNK N   1      32.837  17.716   8.397  0.00  0.00     0.010 A 
HETATM   25  C   UNK N   1      34.145  17.354   8.728  0.00  0.00     0.037 A 
BRANCH  23  26
HETATM   26  C   UNK N   1      30.363  17.145   8.213  0.00  0.00     0.018 C 
HETATM   27  C   UNK N   1      30.157  17.296   6.705  0.00  0.00     0.009 C 
HETATM   28  C   UNK N   1      28.681  17.524   6.402  0.00  0.00     0.001 C 
HETATM   29  C   UNK N   1      28.189  18.781   7.115  0.00  0.00     0.000 C 
HETATM   30  C   UNK N   1      28.400  18.653   8.621  0.00  0.00     0.001 C 
HETATM   31  C   UNK N   1      29.875  18.410   8.931  0.00  0.00     0.009 C 
ENDBRANCH  23  26
ENDBRANCH  19  20
ENDBRANCH  18  19
ENDBRANCH   1  18
TORSDOF 8
ENDMDL
MODEL 5
REMARK VINA RESULT:      -7.4      4.673      8.181
REMARK  8 active torsions:
REMARK  status: ('A' for Active; 'I' for Inactive)
REMARK    1  A    between atoms: C_7  and  N_8 
REMARK    2  A    between atoms: N_11  and  C_14 
REMARK    3  A    between atoms: C_14  and  C_15 
REMARK    4  A    between atoms: C_15  and  O_16 
REMARK    5  A    between atoms: C_15  and  C_17 
REMARK    6  A    between atoms: C_17  and  O_18 
REMARK    7  A    between atoms: O_18  and  C_19 
REMARK    8  A    between atoms: C_22  and  C_25 
ROOT
HETATM    1  C   UNK N   1      36.819  14.080  10.719  0.00  0.00     0.170 C 
ENDROOT
BRANCH   1   2
HETATM    2  C   UNK N   1      37.781  14.214   9.525  0.00  0.00     0.306 C 
BRANCH   2   3
HETATM    3  N   UNK N   1      37.924  13.051   8.620  0.00  0.00     0.094 N 
HETATM    4  C   UNK N   1      38.231  13.286   7.211  0.00  0.00     0.292 C 
HETATM    5  C   UNK N   1      37.111  14.011   6.472  0.00  0.00     0.154 C 
HETATM    6  N   UNK N   1      35.767  13.702   6.943  0.00  0.00    -0.364 N 
HETATM    7  C   UNK N   1      35.509  12.807   8.064  0.00  0.00     0.154 C 
HETATM    8  C   UNK N   1      36.759  12.178   8.693  0.00  0.00     0.292 C 
BRANCH   6   9
HETATM    9  C   UNK N   1      34.663  14.361   6.326  0.00  0.00     0.102 A 
HETATM   10  N   UNK N   1      34.847  15.552   5.684  0.00  0.00    -0.352 N 
HETATM   11  C   UNK N   1      33.818  16.209   5.083  0.00  0.00     0.089 A 
ATOM     12  HN  UNK N   1      35.781  15.961   5.655  1.00  0.00     0.166 HD
HETATM   13  C   UNK N   1      32.533  15.664   5.097  0.00  0.00     0.017 A 
HETATM   14  C   UNK N   1      32.316  14.445   5.737  0.00  0.00     0.005 A 
HETATM   15  C   UNK N   1      33.379  13.793   6.359  0.00  0.00     0.048 A 
ENDBRANCH   6   9
ENDBRANCH   2   3
ENDBRANCH   1   2
BRANCH   1  16
HETATM   16  O   UNK N   1      37.562  13.750  11.855  0.00  0.00    -0.392 OA
HETATM   17  H   UNK N   1      38.397  13.430  12.233  0.00  0.00     0.210 HD
ENDBRANCH   1  16
BRANCH   1  18
HETATM   18  C   UNK N   1      36.007  15.361  10.950  0.00  0.00     0.209 C 
BRANCH  18  19
HETATM   19  O   UNK N   1      35.725  16.008   9.768  0.00  0.00    -0.349 OA
BRANCH  19  20
HETATM   20  C   UNK N   1      34.473  16.319   9.366  0.00  0.00     0.068 A 
HETATM   21  C   UNK N   1      33.436  15.435   9.667  0.00  0.00     0.037 A 
HETATM   22  C   UNK N   1      32.124  15.739   9.307  0.00  0.00     0.010 A 
HETATM   23  C   UNK N   1      31.831  16.930   8.631  0.00  0.00    -0.054 A 
HETATM   24  C   UNK N   1      32.875  17.818   8.317  0.00  0.00     0.010 A 
HETATM   25  C   UNK N   1      34.189  17.515   8.684  0.00  0.00     0.037 A 
BRANCH  23  26
HETATM   26  C   UNK N   1      30.396  17.236   8.288  0.00  0.00     0.018 C 
HETATM   27  C   UNK N   1      30.248  17.533   6.795  0.00  0.00     0.009 C 
HETATM   28  C   UNK N   1      28.775  17.704   6.442  0.00  0.00     0.001 C 
HETATM   29  C   UNK N   1      28.173  18.847   7.255  0.00  0.00     0.000 C 
HETATM   30  C   UNK N   1      28.325  18.574   8.748  0.00  0.00     0.001 C 
HETATM   31  C   UNK N   1      29.798  18.388   9.106  0.00  0.00     0.009 C 
ENDBRANCH  23  26
ENDBRANCH  19  20
ENDBRANCH  18  19
ENDBRANCH   1  18
TORSDOF 8
ENDMDL
MODEL 6
REMARK VINA RESULT:      -7.3      2.980     11.076
REMARK  8 active torsions:
REMARK  status: ('A' for Active; 'I' for Inactive)
REMARK    1  A    between atoms: C_7  and  N_8 
REMARK    2  A    between atoms: N_11  and  C_14 
REMARK    3  A    between atoms: C_14  and  C_15 
REMARK    4  A    between atoms: C_15  and  O_16 
REMARK    5  A    between atoms: C_15  and  C_17 
REMARK    6  A    between atoms: C_17  and  O_18 
REMARK    7  A    between atoms: O_18  and  C_19 
REMARK    8  A    between atoms: C_22  and  C_25 
ROOT
HETATM    1  C   UNK N   1      33.586  14.434   8.276  0.00  0.00     0.170 C 
ENDROOT
BRANCH   1   2
HETATM    2  C   UNK N   1      34.383  14.311   9.587  0.00  0.00     0.306 C 
BRANCH   2   3
HETATM    3  N   UNK N   1      35.718  14.950   9.646  0.00  0.00     0.094 N 
HETATM    4  C   UNK N   1      36.906  14.101   9.694  0.00  0.00     0.292 C 
HETATM    5  C   UNK N   1      36.993  13.274  10.972  0.00  0.00     0.154 C 
HETATM    6  N   UNK N   1      36.439  13.917  12.157  0.00  0.00    -0.364 N 
HETATM    7  C   UNK N   1      35.805  15.229  12.119  0.00  0.00     0.154 C 
HETATM    8  C   UNK N   1      35.797  15.906  10.743  0.00  0.00     0.292 C 
BRANCH   6   9
HETATM    9  C   UNK N   1      36.453  13.200  13.389  0.00  0.00     0.102 A 
HETATM   10  N   UNK N   1      35.731  13.655  14.456  0.00  0.00    -0.352 N 
HETATM   11  C   UNK N   1      35.720  12.996  15.647  0.00  0.00     0.089 A 
ATOM     12  HN  UNK N   1      35.186  14.511  14.357  1.00  0.00     0.166 HD
HETATM   13  C   UNK N   1      36.446  11.814  15.803  0.00  0.00     0.017 A 
HETATM   14  C   UNK N   1      37.186  11.321  14.729  0.00  0.00     0.005 A 
HETATM   15  C   UNK N   1      37.197  12.016  13.521  0.00  0.00     0.048 A 
ENDBRANCH   6   9
ENDBRANCH   2   3
ENDBRANCH   1   2
BRANCH   1  16
HETATM   16  O   UNK N   1      32.425  13.665   8.385  0.00  0.00    -0.392 OA
HETATM   17  H   UNK N   1      31.726  13.301   8.950  0.00  0.00     0.210 HD
ENDBRANCH   1  16
BRANCH   1  18
HETATM   18  C   UNK N   1      33.246  15.894   7.946  0.00  0.00     0.209 C 
BRANCH  18  19
HETATM   19  O   UNK N   1      32.130  16.326   8.626  0.00  0.00    -0.349 OA
BRANCH  19  20
HETATM   20  C   UNK N   1      31.092  16.958   8.037  0.00  0.00     0.068 A 
HETATM   21  C   UNK N   1      30.924  16.822   6.658  0.00  0.00     0.037 A 
HETATM   22  C   UNK N   1      29.842  17.424   6.017  0.00  0.00     0.010 A 
HETATM   23  C   UNK N   1      28.915  18.178   6.746  0.00  0.00    -0.054 A 
HETATM   24  C   UNK N   1      29.087  18.324   8.134  0.00  0.00     0.010 A 
HETATM   25  C   UNK N   1      30.169  17.717   8.776  0.00  0.00     0.037 A 
BRANCH  23  26
HETATM   26  C   UNK N   1      27.742  18.785   6.022  0.00  0.00     0.018 C 
HETATM   27  C   UNK N   1      27.718  18.336   4.560  0.00  0.00     0.009 C 
HETATM   28  C   UNK N   1      26.452  18.846   3.879  0.00  0.00     0.001 C 
HETATM   29  C   UNK N   1      26.400  20.370   3.949  0.00  0.00     0.000 C 
HETATM   30  C   UNK N   1      26.438  20.836   5.402  0.00  0.00     0.001 C 
HETATM   31  C   UNK N   1      27.696  20.317   6.094  0.00  0.00     0.009 C 
ENDBRANCH  23  26
ENDBRANCH  19  20
ENDBRANCH  18  19
ENDBRANCH   1  18
TORSDOF 8
ENDMDL
MODEL 7
REMARK VINA RESULT:      -7.1      3.262     10.419
REMARK  8 active torsions:
REMARK  status: ('A' for Active; 'I' for Inactive)
REMARK    1  A    between atoms: C_7  and  N_8 
REMARK    2  A    between atoms: N_11  and  C_14 
REMARK    3  A    between atoms: C_14  and  C_15 
REMARK    4  A    between atoms: C_15  and  O_16 
REMARK    5  A    between atoms: C_15  and  C_17 
REMARK    6  A    between atoms: C_17  and  O_18 
REMARK    7  A    between atoms: O_18  and  C_19 
REMARK    8  A    between atoms: C_22  and  C_25 
ROOT
HETATM    1  C   UNK N   1      36.057  14.235  13.296  0.00  0.00     0.170 C 
ENDROOT
BRANCH   1   2
HETATM    2  C   UNK N   1      36.787  12.925  12.951  0.00  0.00     0.306 C 
BRANCH   2   3
HETATM    3  N   UNK N   1      35.983  11.683  12.887  0.00  0.00     0.094 N 
HETATM    4  C   UNK N   1      34.594  11.716  13.337  0.00  0.00     0.292 C 
HETATM    5  C   UNK N   1      34.461  11.995  14.830  0.00  0.00     0.154 C 
HETATM    6  N   UNK N   1      35.541  11.461  15.651  0.00  0.00    -0.364 N 
HETATM    7  C   UNK N   1      36.687  10.757  15.089  0.00  0.00     0.154 C 
HETATM    8  C   UNK N   1      36.656  10.583  13.565  0.00  0.00     0.292 C 
BRANCH   6   9
HETATM    9  C   UNK N   1      35.510  11.703  17.056  0.00  0.00     0.102 A 
HETATM   10  N   UNK N   1      35.176  12.939  17.532  0.00  0.00    -0.352 N 
HETATM   11  C   UNK N   1      35.135  13.207  18.865  0.00  0.00     0.089 A 
ATOM     12  HN  UNK N   1      34.953  13.682  16.869  1.00  0.00     0.166 HD
HETATM   13  C   UNK N   1      35.422  12.204  19.792  0.00  0.00     0.017 A 
HETATM   14  C   UNK N   1      35.757  10.930  19.337  0.00  0.00     0.005 A 
HETATM   15  C   UNK N   1      35.809  10.677  17.968  0.00  0.00     0.048 A 
ENDBRANCH   6   9
ENDBRANCH   2   3
ENDBRANCH   1   2
BRANCH   1  16
HETATM   16  O   UNK N   1      36.817  14.936  14.235  0.00  0.00    -0.392 OA
HETATM   17  H   UNK N   1      37.684  15.270  14.513  0.00  0.00     0.210 HD
ENDBRANCH   1  16
BRANCH   1  18
HETATM   18  C   UNK N   1      35.799  15.094  12.051  0.00  0.00     0.209 C 
BRANCH  18  19
HETATM   19  O   UNK N   1      34.913  14.491  11.187  0.00  0.00    -0.349 OA
BRANCH  19  20
HETATM   20  C   UNK N   1      34.389  15.104  10.103  0.00  0.00     0.068 A 
HETATM   21  C   UNK N   1      33.108  14.742   9.686  0.00  0.00     0.037 A 
HETATM   22  C   UNK N   1      32.514  15.380   8.597  0.00  0.00     0.010 A 
HETATM   23  C   UNK N   1      33.199  16.387   7.905  0.00  0.00    -0.054 A 
HETATM   24  C   UNK N   1      34.494  16.747   8.318  0.00  0.00     0.010 A 
HETATM   25  C   UNK N   1      35.086  16.110   9.411  0.00  0.00     0.037 A 
BRANCH  23  26
HETATM   26  C   UNK N   1      32.510  17.075   6.755  0.00  0.00     0.018 C 
HETATM   27  C   UNK N   1      31.071  16.576   6.610  0.00  0.00     0.009 C 
HETATM   28  C   UNK N   1      30.349  17.378   5.534  0.00  0.00     0.001 C 
HETATM   29  C   UNK N   1      31.077  17.238   4.200  0.00  0.00     0.000 C 
HETATM   30  C   UNK N   1      32.520  17.718   4.331  0.00  0.00     0.001 C 
HETATM   31  C   UNK N   1      33.246  16.928   5.417  0.00  0.00     0.009 C 
ENDBRANCH  23  26
ENDBRANCH  19  20
ENDBRANCH  18  19
ENDBRANCH   1  18
TORSDOF 8
ENDMDL
MODEL 8
REMARK VINA RESULT:      -7.1     11.415     14.136
REMARK  8 active torsions:
REMARK  status: ('A' for Active; 'I' for Inactive)
REMARK    1  A    between atoms: C_7  and  N_8 
REMARK    2  A    between atoms: N_11  and  C_14 
REMARK    3  A    between atoms: C_14  and  C_15 
REMARK    4  A    between atoms: C_15  and  O_16 
REMARK    5  A    between atoms: C_15  and  C_17 
REMARK    6  A    between atoms: C_17  and  O_18 
REMARK    7  A    between atoms: O_18  and  C_19 
REMARK    8  A    between atoms: C_22  and  C_25 
ROOT
HETATM    1  C   UNK N   1      20.119  15.760   1.979  0.00  0.00     0.170 C 
ENDROOT
BRANCH   1   2
HETATM    2  C   UNK N   1      21.097  16.787   2.577  0.00  0.00     0.306 C 
BRANCH   2   3
HETATM    3  N   UNK N   1      20.556  17.780   3.534  0.00  0.00     0.094 N 
HETATM    4  C   UNK N   1      20.697  19.203   3.232  0.00  0.00     0.292 C 
HETATM    5  C   UNK N   1      22.150  19.665   3.223  0.00  0.00     0.154 C 
HETATM    6  N   UNK N   1      23.020  18.971   4.165  0.00  0.00    -0.364 N 
HETATM    7  C   UNK N   1      22.553  17.885   5.018  0.00  0.00     0.154 C 
HETATM    8  C   UNK N   1      21.063  17.547   4.881  0.00  0.00     0.292 C 
BRANCH   6   9
HETATM    9  C   UNK N   1      24.401  19.323   4.200  0.00  0.00     0.102 A 
HETATM   10  N   UNK N   1      25.204  18.853   5.200  0.00  0.00    -0.352 N 
HETATM   11  C   UNK N   1      26.526  19.166   5.265  0.00  0.00     0.089 A 
ATOM     12  HN  UNK N   1      24.800  18.250   5.918  1.00  0.00     0.166 HD
HETATM   13  C   UNK N   1      27.105  19.976   4.287  0.00  0.00     0.017 A 
HETATM   14  C   UNK N   1      26.314  20.464   3.249  0.00  0.00     0.005 A 
HETATM   15  C   UNK N   1      24.958  20.144   3.206  0.00  0.00     0.048 A 
ENDBRANCH   6   9
ENDBRANCH   2   3
ENDBRANCH   1   2
BRANCH   1  16
HETATM   16  O   UNK N   1      20.330  15.695   0.600  0.00  0.00    -0.392 OA
HETATM   17  H   UNK N   1      19.954  15.678  -0.294  0.00  0.00     0.210 HD
ENDBRANCH   1  16
BRANCH   1  18
HETATM   18  C   UNK N   1      20.274  14.377   2.623  0.00  0.00     0.209 C 
BRANCH  18  19
HETATM   19  O   UNK N   1      21.483  14.243   3.266  0.00  0.00    -0.349 OA
BRANCH  19  20
HETATM   20  C   UNK N   1      21.609  13.825   4.544  0.00  0.00     0.068 A 
HETATM   21  C   UNK N   1      20.579  13.067   5.103  0.00  0.00     0.037 A 
HETATM   22  C   UNK N   1      20.688  12.580   6.405  0.00  0.00     0.010 A 
HETATM   23  C   UNK N   1      21.829  12.851   7.171  0.00  0.00    -0.054 A 
HETATM   24  C   UNK N   1      22.864  13.623   6.614  0.00  0.00     0.010 A 
HETATM   25  C   UNK N   1      22.756  14.106   5.307  0.00  0.00     0.037 A 
BRANCH  23  26
HETATM   26  C   UNK N   1      21.922  12.280   8.561  0.00  0.00     0.018 C 
HETATM   27  C   UNK N   1      21.114  13.123   9.549  0.00  0.00     0.009 C 
HETATM   28  C   UNK N   1      21.106  12.455  10.919  0.00  0.00     0.001 C 
HETATM   29  C   UNK N   1      22.536  12.296  11.430  0.00  0.00     0.000 C 
HETATM   30  C   UNK N   1      23.361  11.469  10.449  0.00  0.00     0.001 C 
HETATM   31  C   UNK N   1      23.361  12.125   9.070  0.00  0.00     0.009 C 
ENDBRANCH  23  26
ENDBRANCH  19  20
ENDBRANCH  18  19
ENDBRANCH   1  18
TORSDOF 8
ENDMDL
MODEL 9
REMARK VINA RESULT:      -6.9      3.112     10.576
REMARK  8 active torsions:
REMARK  status: ('A' for Active; 'I' for Inactive)
REMARK    1  A    between atoms: C_7  and  N_8 
REMARK    2  A    between atoms: N_11  and  C_14 
REMARK    3  A    between atoms: C_14  and  C_15 
REMARK    4  A    between atoms: C_15  and  O_16 
REMARK    5  A    between atoms: C_15  and  C_17 
REMARK    6  A    between atoms: C_17  and  O_18 
REMARK    7  A    between atoms: O_18  and  C_19 
REMARK    8  A    between atoms: C_22  and  C_25 
ROOT
HETATM    1  C   UNK N   1      34.623  15.206  10.505  0.00  0.00     0.170 C 
ENDROOT
BRANCH   1   2
HETATM    2  C   UNK N   1      35.771  14.434  11.179  0.00  0.00     0.306 C 
BRANCH   2   3
HETATM    3  N   UNK N   1      36.236  13.185  10.532  0.00  0.00     0.094 N 
HETATM    4  C   UNK N   1      35.324  12.046  10.459  0.00  0.00     0.292 C 
HETATM    5  C   UNK N   1      34.976  11.475  11.830  0.00  0.00     0.154 C 
HETATM    6  N   UNK N   1      36.043  11.567  12.820  0.00  0.00    -0.364 N 
HETATM    7  C   UNK N   1      37.327  12.197  12.541  0.00  0.00     0.154 C 
HETATM    8  C   UNK N   1      37.493  12.727  11.111  0.00  0.00     0.292 C 
BRANCH   6   9
HETATM    9  C   UNK N   1      35.790  11.084  14.137  0.00  0.00     0.102 A 
HETATM   10  N   UNK N   1      36.800  11.034  15.056  0.00  0.00    -0.352 N 
HETATM   11  C   UNK N   1      36.596  10.580  16.322  0.00  0.00     0.089 A 
ATOM     12  HN  UNK N   1      37.733  11.346  14.784  1.00  0.00     0.166 HD
HETATM   13  C   UNK N   1      35.326  10.162  16.722  0.00  0.00     0.017 A 
HETATM   14  C   UNK N   1      34.273  10.209  15.810  0.00  0.00     0.005 A 
HETATM   15  C   UNK N   1      34.503  10.664  14.513  0.00  0.00     0.048 A 
ENDBRANCH   6   9
ENDBRANCH   2   3
ENDBRANCH   1   2
BRANCH   1  16
HETATM   16  O   UNK N   1      33.444  14.958  11.211  0.00  0.00    -0.392 OA
HETATM   17  H   UNK N   1      32.959  14.399  11.839  0.00  0.00     0.210 HD
ENDBRANCH   1  16
BRANCH   1  18
HETATM   18  C   UNK N   1      34.909  16.712  10.431  0.00  0.00     0.209 C 
BRANCH  18  19
HETATM   19  O   UNK N   1      35.166  17.121   9.142  0.00  0.00    -0.349 OA
BRANCH  19  20
HETATM   20  C   UNK N   1      34.241  17.119   8.158  0.00  0.00     0.068 A 
HETATM   21  C   UNK N   1      32.940  17.524   8.463  0.00  0.00     0.037 A 
HETATM   22  C   UNK N   1      31.966  17.576   7.467  0.00  0.00     0.010 A 
HETATM   23  C   UNK N   1      32.278  17.216   6.150  0.00  0.00    -0.054 A 
HETATM   24  C   UNK N   1      33.585  16.799   5.841  0.00  0.00     0.010 A 
HETATM   25  C   UNK N   1      34.561  16.752   6.839  0.00  0.00     0.037 A 
BRANCH  23  26
HETATM   26  C   UNK N   1      31.205  17.318   5.096  0.00  0.00     0.018 C 
HETATM   27  C   UNK N   1      29.820  17.392   5.740  0.00  0.00     0.009 C 
HETATM   28  C   UNK N   1      28.761  17.632   4.670  0.00  0.00     0.001 C 
HETATM   29  C   UNK N   1      28.790  16.503   3.644  0.00  0.00     0.000 C 
HETATM   30  C   UNK N   1      30.171  16.405   3.002  0.00  0.00     0.001 C 
HETATM   31  C   UNK N   1      31.238  16.178   4.070  0.00  0.00     0.009 C 
ENDBRANCH  23  26
ENDBRANCH  19  20
ENDBRANCH  18  19
ENDBRANCH   1  18
TORSDOF 8
ENDMDL
