MODEL 1
REMARK VINA RESULT:      -5.1      0.000      0.000
REMARK  11 active torsions:
REMARK  status: ('A' for Active; 'I' for Inactive)
REMARK    1  A    between atoms: C_1  and  C_2 
REMARK    2  A    between atoms: C_1  and  O_12 
REMARK    3  A    between atoms: C_2  and  C_3 
REMARK    4  A    between atoms: C_3  and  C_4 
REMARK    5  A    between atoms: C_4  and  C_5 
REMARK    6  A    between atoms: C_5  and  C_6 
REMARK    7  A    between atoms: C_6  and  C_7 
REMARK    8  A    between atoms: C_7  and  C_8 
REMARK    9  A    between atoms: C_8  and  C_9 
REMARK   10  A    between atoms: C_9  and  C_10 
REMARK   11  A    between atoms: C_10  and  O_14 
ROOT
HETATM    1  C   UNK N   1      20.979  13.687   8.902  0.00  0.00     0.000 C 
ENDROOT
BRANCH   1   2
HETATM    2  C   UNK N   1      22.195  13.602   9.796  0.00  0.00     0.001 C 
BRANCH   2   3
HETATM    3  C   UNK N   1      22.337  12.169  10.247  0.00  0.00     0.010 C 
BRANCH   3   4
HETATM    4  C   UNK N   1      22.268  12.074  11.761  0.00  0.00     0.110 C 
BRANCH   4   5
HETATM    5  C   UNK N   1      23.636  12.065  12.378  0.00  0.00     0.139 C 
HETATM    6  O   UNK N   1      24.631  11.855  11.699  0.00  0.00    -0.650 OA
BRANCH   5   7
HETATM    7  O   UNK N   1      23.768  12.290  13.697  0.00  0.00    -0.776 OA
HETATM    8  H   UNK N   1      24.420  12.888  14.006  0.00  0.00     0.167 HD
ENDBRANCH   5   7
ENDBRANCH   4   5
ENDBRANCH   3   4
ENDBRANCH   2   3
ENDBRANCH   1   2
BRANCH   1   9
HETATM    9  C   UNK N   1      20.018  14.707   9.456  0.00  0.00     0.000 C 
BRANCH   9  10
HETATM   10  C   UNK N   1      19.977  15.909   8.541  0.00  0.00     0.001 C 
BRANCH  10  11
HETATM   11  C   UNK N   1      18.853  16.803   9.005  0.00  0.00     0.010 C 
BRANCH  11  12
HETATM   12  C   UNK N   1      19.359  18.210   9.263  0.00  0.00     0.110 C 
BRANCH  12  13
HETATM   13  C   UNK N   1      18.620  18.864  10.395  0.00  0.00     0.139 C 
HETATM   14  O   UNK N   1      17.458  18.575  10.639  0.00  0.00    -0.650 OA
BRANCH  13  15
HETATM   15  O   UNK N   1      19.249  19.781  11.153  0.00  0.00    -0.776 OA
HETATM   16  H   UNK N   1      19.278  20.676  10.876  0.00  0.00     0.167 HD
ENDBRANCH  13  15
ENDBRANCH  12  13
ENDBRANCH  11  12
ENDBRANCH  10  11
ENDBRANCH   9  10
ENDBRANCH   1   9
TORSDOF 11
ENDMDL
MODEL 2
REMARK VINA RESULT:      -5.0      1.433      6.974
REMARK  11 active torsions:
REMARK  status: ('A' for Active; 'I' for Inactive)
REMARK    1  A    between atoms: C_1  and  C_2 
REMARK    2  A    between atoms: C_1  and  O_12 
REMARK    3  A    between atoms: C_2  and  C_3 
REMARK    4  A    between atoms: C_3  and  C_4 
REMARK    5  A    between atoms: C_4  and  C_5 
REMARK    6  A    between atoms: C_5  and  C_6 
REMARK    7  A    between atoms: C_6  and  C_7 
REMARK    8  A    between atoms: C_7  and  C_8 
REMARK    9  A    between atoms: C_8  and  C_9 
REMARK   10  A    between atoms: C_9  and  C_10 
REMARK   11  A    between atoms: C_10  and  O_14 
ROOT
HETATM    1  C   UNK N   1      20.722  13.938   8.008  0.00  0.00     0.000 C 
ENDROOT
BRANCH   1   2
HETATM    2  C   UNK N   1      20.127  14.895   9.014  0.00  0.00     0.001 C 
BRANCH   2   3
HETATM    3  C   UNK N   1      20.139  16.275   8.402  0.00  0.00     0.010 C 
BRANCH   3   4
HETATM    4  C   UNK N   1      19.103  17.165   9.065  0.00  0.00     0.110 C 
BRANCH   4   5
HETATM    5  C   UNK N   1      19.576  18.586   9.162  0.00  0.00     0.139 C 
HETATM    6  O   UNK N   1      20.313  19.063   8.312  0.00  0.00    -0.650 OA
BRANCH   5   7
HETATM    7  O   UNK N   1      19.182  19.343  10.201  0.00  0.00    -0.776 OA
HETATM    8  H   UNK N   1      18.367  19.165  10.628  0.00  0.00     0.167 HD
ENDBRANCH   5   7
ENDBRANCH   4   5
ENDBRANCH   3   4
ENDBRANCH   2   3
ENDBRANCH   1   2
BRANCH   1   9
HETATM    9  C   UNK N   1      21.568  12.917   8.723  0.00  0.00     0.000 C 
BRANCH   9  10
HETATM   10  C   UNK N   1      21.444  13.117  10.217  0.00  0.00     0.001 C 
BRANCH  10  11
HETATM   11  C   UNK N   1      22.273  12.053  10.894  0.00  0.00     0.010 C 
BRANCH  11  12
HETATM   12  C   UNK N   1      23.499  11.721  10.064  0.00  0.00     0.110 C 
BRANCH  12  13
HETATM   13  C   UNK N   1      24.681  12.556  10.466  0.00  0.00     0.139 C 
HETATM   14  O   UNK N   1      25.187  13.349   9.685  0.00  0.00    -0.650 OA
BRANCH  13  15
HETATM   15  O   UNK N   1      25.189  12.429  11.705  0.00  0.00    -0.776 OA
HETATM   16  H   UNK N   1      24.706  12.743  12.444  0.00  0.00     0.167 HD
ENDBRANCH  13  15
ENDBRANCH  12  13
ENDBRANCH  11  12
ENDBRANCH  10  11
ENDBRANCH   9  10
ENDBRANCH   1   9
TORSDOF 11
ENDMDL
MODEL 3
REMARK VINA RESULT:      -4.9     17.980     20.083
REMARK  11 active torsions:
REMARK  status: ('A' for Active; 'I' for Inactive)
REMARK    1  A    between atoms: C_1  and  C_2 
REMARK    2  A    between atoms: C_1  and  O_12 
REMARK    3  A    between atoms: C_2  and  C_3 
REMARK    4  A    between atoms: C_3  and  C_4 
REMARK    5  A    between atoms: C_4  and  C_5 
REMARK    6  A    between atoms: C_5  and  C_6 
REMARK    7  A    between atoms: C_6  and  C_7 
REMARK    8  A    between atoms: C_7  and  C_8 
REMARK    9  A    between atoms: C_8  and  C_9 
REMARK   10  A    between atoms: C_9  and  C_10 
REMARK   11  A    between atoms: C_10  and  O_14 
ROOT
HETATM    1  C   UNK N   1      26.599  25.283  -5.404  0.00  0.00     0.000 C 
ENDROOT
BRANCH   1   2
HETATM    2  C   UNK N   1      25.164  25.641  -5.718  0.00  0.00     0.001 C 
BRANCH   2   3
HETATM    3  C   UNK N   1      25.065  27.146  -5.769  0.00  0.00     0.010 C 
BRANCH   3   4
HETATM    4  C   UNK N   1      26.262  27.787  -5.090  0.00  0.00     0.110 C 
BRANCH   4   5
HETATM    5  C   UNK N   1      25.878  28.444  -3.797  0.00  0.00     0.139 C 
HETATM    6  O   UNK N   1      25.509  27.780  -2.839  0.00  0.00    -0.650 OA
BRANCH   5   7
HETATM    7  O   UNK N   1      25.943  29.783  -3.691  0.00  0.00    -0.776 OA
HETATM    8  H   UNK N   1      26.227  30.297  -4.422  0.00  0.00     0.167 HD
ENDBRANCH   5   7
ENDBRANCH   4   5
ENDBRANCH   3   4
ENDBRANCH   2   3
ENDBRANCH   1   2
BRANCH   1   9
HETATM    9  C   UNK N   1      26.630  24.188  -4.370  0.00  0.00     0.000 C 
BRANCH   9  10
HETATM   10  C   UNK N   1      27.783  24.423  -3.421  0.00  0.00     0.001 C 
BRANCH  10  11
HETATM   11  C   UNK N   1      29.057  24.402  -4.230  0.00  0.00     0.010 C 
BRANCH  11  12
HETATM   12  C   UNK N   1      30.267  24.298  -3.320  0.00  0.00     0.110 C 
BRANCH  12  13
HETATM   13  C   UNK N   1      30.270  23.008  -2.551  0.00  0.00     0.139 C 
HETATM   14  O   UNK N   1      30.398  23.000  -1.335  0.00  0.00    -0.650 OA
BRANCH  13  15
HETATM   15  O   UNK N   1      30.131  21.845  -3.211  0.00  0.00    -0.776 OA
HETATM   16  H   UNK N   1      30.198  21.032  -2.748  0.00  0.00     0.167 HD
ENDBRANCH  13  15
ENDBRANCH  12  13
ENDBRANCH  11  12
ENDBRANCH  10  11
ENDBRANCH   9  10
ENDBRANCH   1   9
TORSDOF 11
ENDMDL
MODEL 4
REMARK VINA RESULT:      -4.9      1.458      1.958
REMARK  11 active torsions:
REMARK  status: ('A' for Active; 'I' for Inactive)
REMARK    1  A    between atoms: C_1  and  C_2 
REMARK    2  A    between atoms: C_1  and  O_12 
REMARK    3  A    between atoms: C_2  and  C_3 
REMARK    4  A    between atoms: C_3  and  C_4 
REMARK    5  A    between atoms: C_4  and  C_5 
REMARK    6  A    between atoms: C_5  and  C_6 
REMARK    7  A    between atoms: C_6  and  C_7 
REMARK    8  A    between atoms: C_7  and  C_8 
REMARK    9  A    between atoms: C_8  and  C_9 
REMARK   10  A    between atoms: C_9  and  C_10 
REMARK   11  A    between atoms: C_10  and  O_14 
ROOT
HETATM    1  C   UNK N   1      21.458  13.305   9.764  0.00  0.00     0.000 C 
ENDROOT
BRANCH   1   2
HETATM    2  C   UNK N   1      21.224  12.408  10.958  0.00  0.00     0.001 C 
BRANCH   2   3
HETATM    3  C   UNK N   1      22.572  11.971  11.477  0.00  0.00     0.010 C 
BRANCH   3   4
HETATM    4  C   UNK N   1      23.533  11.714  10.330  0.00  0.00     0.110 C 
BRANCH   4   5
HETATM    5  C   UNK N   1      24.753  12.583  10.426  0.00  0.00     0.139 C 
HETATM    6  O   UNK N   1      25.154  13.213   9.459  0.00  0.00    -0.650 OA
BRANCH   5   7
HETATM    7  O   UNK N   1      25.414  12.667  11.594  0.00  0.00    -0.776 OA
HETATM    8  H   UNK N   1      25.118  12.177  12.336  0.00  0.00     0.167 HD
ENDBRANCH   5   7
ENDBRANCH   4   5
ENDBRANCH   3   4
ENDBRANCH   2   3
ENDBRANCH   1   2
BRANCH   1   9
HETATM    9  C   UNK N   1      20.265  14.204   9.569  0.00  0.00     0.000 C 
BRANCH   9  10
HETATM   10  C   UNK N   1      20.468  15.050   8.332  0.00  0.00     0.001 C 
BRANCH  10  11
HETATM   11  C   UNK N   1      20.313  16.496   8.734  0.00  0.00     0.010 C 
BRANCH  11  12
HETATM   12  C   UNK N   1      19.079  17.101   8.090  0.00  0.00     0.110 C 
BRANCH  12  13
HETATM   13  C   UNK N   1      17.956  17.246   9.077  0.00  0.00     0.139 C 
HETATM   14  O   UNK N   1      17.082  16.395   9.166  0.00  0.00    -0.650 OA
BRANCH  13  15
HETATM   15  O   UNK N   1      17.913  18.327   9.875  0.00  0.00    -0.776 OA
HETATM   16  H   UNK N   1      17.313  19.023   9.689  0.00  0.00     0.167 HD
ENDBRANCH  13  15
ENDBRANCH  12  13
ENDBRANCH  11  12
ENDBRANCH  10  11
ENDBRANCH   9  10
ENDBRANCH   1   9
TORSDOF 11
ENDMDL
MODEL 5
REMARK VINA RESULT:      -4.8      8.825     11.304
REMARK  11 active torsions:
REMARK  status: ('A' for Active; 'I' for Inactive)
REMARK    1  A    between atoms: C_1  and  C_2 
REMARK    2  A    between atoms: C_1  and  O_12 
REMARK    3  A    between atoms: C_2  and  C_3 
REMARK    4  A    between atoms: C_3  and  C_4 
REMARK    5  A    between atoms: C_4  and  C_5 
REMARK    6  A    between atoms: C_5  and  C_6 
REMARK    7  A    between atoms: C_6  and  C_7 
REMARK    8  A    between atoms: C_7  and  C_8 
REMARK    9  A    between atoms: C_8  and  C_9 
REMARK   10  A    between atoms: C_9  and  C_10 
REMARK   11  A    between atoms: C_10  and  O_14 
ROOT
HETATM    1  C   UNK N   1      24.694  19.532   3.262  0.00  0.00     0.000 C 
ENDROOT
BRANCH   1   2
HETATM    2  C   UNK N   1      23.676  20.587   2.898  0.00  0.00     0.001 C 
BRANCH   2   3
HETATM    3  C   UNK N   1      22.303  19.987   3.084  0.00  0.00     0.010 C 
BRANCH   3   4
HETATM    4  C   UNK N   1      21.253  20.817   2.367  0.00  0.00     0.110 C 
BRANCH   4   5
HETATM    5  C   UNK N   1      20.877  20.213   1.046  0.00  0.00     0.139 C 
HETATM    6  O   UNK N   1      20.679  19.011   0.937  0.00  0.00    -0.650 OA
BRANCH   5   7
HETATM    7  O   UNK N   1      20.757  21.006  -0.033  0.00  0.00    -0.776 OA
HETATM    8  H   UNK N   1      20.064  20.860  -0.647  0.00  0.00     0.167 HD
ENDBRANCH   5   7
ENDBRANCH   4   5
ENDBRANCH   3   4
ENDBRANCH   2   3
ENDBRANCH   1   2
BRANCH   1   9
HETATM    9  C   UNK N   1      25.499  19.998   4.448  0.00  0.00     0.000 C 
BRANCH   9  10
HETATM   10  C   UNK N   1      26.863  20.455   3.983  0.00  0.00     0.001 C 
BRANCH  10  11
HETATM   11  C   UNK N   1      27.887  19.893   4.939  0.00  0.00     0.010 C 
BRANCH  11  12
HETATM   12  C   UNK N   1      27.523  20.231   6.373  0.00  0.00     0.110 C 
BRANCH  12  13
HETATM   13  C   UNK N   1      27.994  19.170   7.327  0.00  0.00     0.139 C 
HETATM   14  O   UNK N   1      28.809  18.328   6.979  0.00  0.00    -0.650 OA
BRANCH  13  15
HETATM   15  O   UNK N   1      27.512  19.149   8.582  0.00  0.00    -0.776 OA
HETATM   16  H   UNK N   1      27.112  18.371   8.916  0.00  0.00     0.167 HD
ENDBRANCH  13  15
ENDBRANCH  12  13
ENDBRANCH  11  12
ENDBRANCH  10  11
ENDBRANCH   9  10
ENDBRANCH   1   9
TORSDOF 11
ENDMDL
MODEL 6
REMARK VINA RESULT:      -4.8     10.478     11.553
REMARK  11 active torsions:
REMARK  status: ('A' for Active; 'I' for Inactive)
REMARK    1  A    between atoms: C_1  and  C_2 
REMARK    2  A    between atoms: C_1  and  O_12 
REMARK    3  A    between atoms: C_2  and  C_3 
REMARK    4  A    between atoms: C_3  and  C_4 
REMARK    5  A    between atoms: C_4  and  C_5 
REMARK    6  A    between atoms: C_5  and  C_6 
REMARK    7  A    between atoms: C_6  and  C_7 
REMARK    8  A    between atoms: C_7  and  C_8 
REMARK    9  A    between atoms: C_8  and  C_9 
REMARK   10  A    between atoms: C_9  and  C_10 
REMARK   11  A    between atoms: C_10  and  O_14 
ROOT
HETATM    1  C   UNK N   1      32.177  17.464   6.276  0.00  0.00     0.000 C 
ENDROOT
BRANCH   1   2
HETATM    2  C   UNK N   1      33.349  16.694   5.713  0.00  0.00     0.001 C 
BRANCH   2   3
HETATM    3  C   UNK N   1      34.403  16.605   6.789  0.00  0.00     0.010 C 
BRANCH   3   4
HETATM    4  C   UNK N   1      34.248  17.740   7.786  0.00  0.00     0.110 C 
BRANCH   4   5
HETATM    5  C   UNK N   1      34.460  17.270   9.196  0.00  0.00     0.139 C 
HETATM    6  O   UNK N   1      35.369  17.719   9.879  0.00  0.00    -0.650 OA
BRANCH   5   7
HETATM    7  O   UNK N   1      33.637  16.341   9.713  0.00  0.00    -0.776 OA
HETATM    8  H   UNK N   1      33.019  16.580  10.376  0.00  0.00     0.167 HD
ENDBRANCH   5   7
ENDBRANCH   4   5
ENDBRANCH   3   4
ENDBRANCH   2   3
ENDBRANCH   1   2
BRANCH   1   9
HETATM    9  C   UNK N   1      30.890  16.824   5.823  0.00  0.00     0.000 C 
BRANCH   9  10
HETATM   10  C   UNK N   1      29.806  17.097   6.841  0.00  0.00     0.001 C 
BRANCH  10  11
HETATM   11  C   UNK N   1      30.463  17.205   8.196  0.00  0.00     0.010 C 
BRANCH  11  12
HETATM   12  C   UNK N   1      29.824  18.312   9.014  0.00  0.00     0.110 C 
BRANCH  12  13
HETATM   13  C   UNK N   1      28.350  18.086   9.192  0.00  0.00     0.139 C 
HETATM   14  O   UNK N   1      27.930  17.078   9.741  0.00  0.00    -0.650 OA
BRANCH  13  15
HETATM   15  O   UNK N   1      27.481  19.008   8.741  0.00  0.00    -0.776 OA
HETATM   16  H   UNK N   1      27.592  19.909   8.973  0.00  0.00     0.167 HD
ENDBRANCH  13  15
ENDBRANCH  12  13
ENDBRANCH  11  12
ENDBRANCH  10  11
ENDBRANCH   9  10
ENDBRANCH   1   9
TORSDOF 11
ENDMDL
MODEL 7
REMARK VINA RESULT:      -4.6     10.833     12.608
REMARK  11 active torsions:
REMARK  status: ('A' for Active; 'I' for Inactive)
REMARK    1  A    between atoms: C_1  and  C_2 
REMARK    2  A    between atoms: C_1  and  O_12 
REMARK    3  A    between atoms: C_2  and  C_3 
REMARK    4  A    between atoms: C_3  and  C_4 
REMARK    5  A    between atoms: C_4  and  C_5 
REMARK    6  A    between atoms: C_5  and  C_6 
REMARK    7  A    between atoms: C_6  and  C_7 
REMARK    8  A    between atoms: C_7  and  C_8 
REMARK    9  A    between atoms: C_8  and  C_9 
REMARK   10  A    between atoms: C_9  and  C_10 
REMARK   11  A    between atoms: C_10  and  O_14 
ROOT
HETATM    1  C   UNK N   1      32.989  18.273   8.120  0.00  0.00     0.000 C 
ENDROOT
BRANCH   1   2
HETATM    2  C   UNK N   1      31.887  17.305   8.482  0.00  0.00     0.001 C 
BRANCH   2   3
HETATM    3  C   UNK N   1      30.646  18.109   8.783  0.00  0.00     0.010 C 
BRANCH   3   4
HETATM    4  C   UNK N   1      29.422  17.458   8.166  0.00  0.00     0.110 C 
BRANCH   4   5
HETATM    5  C   UNK N   1      28.176  17.778   8.938  0.00  0.00     0.139 C 
HETATM    6  O   UNK N   1      27.688  16.966   9.711  0.00  0.00    -0.650 OA
BRANCH   5   7
HETATM    7  O   UNK N   1      27.588  18.977   8.777  0.00  0.00    -0.776 OA
HETATM    8  H   UNK N   1      26.952  19.099   8.100  0.00  0.00     0.167 HD
ENDBRANCH   5   7
ENDBRANCH   4   5
ENDBRANCH   3   4
ENDBRANCH   2   3
ENDBRANCH   1   2
BRANCH   1   9
HETATM    9  C   UNK N   1      34.116  17.527   7.455  0.00  0.00     0.000 C 
BRANCH   9  10
HETATM   10  C   UNK N   1      33.562  16.659   6.349  0.00  0.00     0.001 C 
BRANCH  10  11
HETATM   11  C   UNK N   1      33.367  17.531   5.132  0.00  0.00     0.010 C 
BRANCH  11  12
HETATM   12  C   UNK N   1      31.957  17.385   4.590  0.00  0.00     0.110 C 
BRANCH  12  13
HETATM   13  C   UNK N   1      31.938  16.612   3.302  0.00  0.00     0.139 C 
HETATM   14  O   UNK N   1      32.068  15.397   3.295  0.00  0.00    -0.650 OA
BRANCH  13  15
HETATM   15  O   UNK N   1      31.777  17.269   2.139  0.00  0.00    -0.776 OA
HETATM   16  H   UNK N   1      31.805  18.206   2.123  0.00  0.00     0.167 HD
ENDBRANCH  13  15
ENDBRANCH  12  13
ENDBRANCH  11  12
ENDBRANCH  10  11
ENDBRANCH   9  10
ENDBRANCH   1   9
TORSDOF 11
ENDMDL
MODEL 8
REMARK VINA RESULT:      -4.6     18.150     18.785
REMARK  11 active torsions:
REMARK  status: ('A' for Active; 'I' for Inactive)
REMARK    1  A    between atoms: C_1  and  C_2 
REMARK    2  A    between atoms: C_1  and  O_12 
REMARK    3  A    between atoms: C_2  and  C_3 
REMARK    4  A    between atoms: C_3  and  C_4 
REMARK    5  A    between atoms: C_4  and  C_5 
REMARK    6  A    between atoms: C_5  and  C_6 
REMARK    7  A    between atoms: C_6  and  C_7 
REMARK    8  A    between atoms: C_7  and  C_8 
REMARK    9  A    between atoms: C_8  and  C_9 
REMARK   10  A    between atoms: C_9  and  C_10 
REMARK   11  A    between atoms: C_10  and  O_14 
ROOT
HETATM    1  C   UNK N   1      27.813  24.572  -4.573  0.00  0.00     0.000 C 
ENDROOT
BRANCH   1   2
HETATM    2  C   UNK N   1      28.502  24.038  -3.339  0.00  0.00     0.001 C 
BRANCH   2   3
HETATM    3  C   UNK N   1      29.520  23.017  -3.785  0.00  0.00     0.010 C 
BRANCH   3   4
HETATM    4  C   UNK N   1      30.777  23.107  -2.938  0.00  0.00     0.110 C 
BRANCH   4   5
HETATM    5  C   UNK N   1      31.452  21.773  -2.807  0.00  0.00     0.139 C 
HETATM    6  O   UNK N   1      32.477  21.648  -2.152  0.00  0.00    -0.650 OA
BRANCH   5   7
HETATM    7  O   UNK N   1      30.921  20.700  -3.419  0.00  0.00    -0.776 OA
HETATM    8  H   UNK N   1      31.364  20.309  -4.146  0.00  0.00     0.167 HD
ENDBRANCH   5   7
ENDBRANCH   4   5
ENDBRANCH   3   4
ENDBRANCH   2   3
ENDBRANCH   1   2
BRANCH   1   9
HETATM    9  C   UNK N   1      26.329  24.332  -4.464  0.00  0.00     0.000 C 
BRANCH   9  10
HETATM   10  C   UNK N   1      25.614  25.096  -5.555  0.00  0.00     0.001 C 
BRANCH  10  11
HETATM   11  C   UNK N   1      26.155  26.505  -5.560  0.00  0.00     0.010 C 
BRANCH  11  12
HETATM   12  C   UNK N   1      25.142  27.470  -4.971  0.00  0.00     0.110 C 
BRANCH  12  13
HETATM   13  C   UNK N   1      25.668  28.133  -3.730  0.00  0.00     0.139 C 
HETATM   14  O   UNK N   1      25.871  27.490  -2.711  0.00  0.00    -0.650 OA
BRANCH  13  15
HETATM   15  O   UNK N   1      25.918  29.454  -3.743  0.00  0.00    -0.776 OA
HETATM   16  H   UNK N   1      25.864  29.934  -4.546  0.00  0.00     0.167 HD
ENDBRANCH  13  15
ENDBRANCH  12  13
ENDBRANCH  11  12
ENDBRANCH  10  11
ENDBRANCH   9  10
ENDBRANCH   1   9
TORSDOF 11
ENDMDL
MODEL 9
REMARK VINA RESULT:      -4.6     10.592     13.194
REMARK  11 active torsions:
REMARK  status: ('A' for Active; 'I' for Inactive)
REMARK    1  A    between atoms: C_1  and  C_2 
REMARK    2  A    between atoms: C_1  and  O_12 
REMARK    3  A    between atoms: C_2  and  C_3 
REMARK    4  A    between atoms: C_3  and  C_4 
REMARK    5  A    between atoms: C_4  and  C_5 
REMARK    6  A    between atoms: C_5  and  C_6 
REMARK    7  A    between atoms: C_6  and  C_7 
REMARK    8  A    between atoms: C_7  and  C_8 
REMARK    9  A    between atoms: C_8  and  C_9 
REMARK   10  A    between atoms: C_9  and  C_10 
REMARK   11  A    between atoms: C_10  and  O_14 
ROOT
HETATM    1  C   UNK N   1      32.227  17.691   7.853  0.00  0.00     0.000 C 
ENDROOT
BRANCH   1   2
HETATM    2  C   UNK N   1      31.397  17.213   6.685  0.00  0.00     0.001 C 
BRANCH   2   3
HETATM    3  C   UNK N   1      30.017  16.886   7.203  0.00  0.00     0.010 C 
BRANCH   3   4
HETATM    4  C   UNK N   1      29.733  17.644   8.487  0.00  0.00     0.110 C 
BRANCH   4   5
HETATM    5  C   UNK N   1      28.475  18.455   8.384  0.00  0.00     0.139 C 
HETATM    6  O   UNK N   1      28.281  19.197   7.432  0.00  0.00    -0.650 OA
BRANCH   5   7
HETATM    7  O   UNK N   1      27.548  18.364   9.354  0.00  0.00    -0.776 OA
HETATM    8  H   UNK N   1      27.586  18.939  10.093  0.00  0.00     0.167 HD
ENDBRANCH   5   7
ENDBRANCH   4   5
ENDBRANCH   3   4
ENDBRANCH   2   3
ENDBRANCH   1   2
BRANCH   1   9
HETATM    9  C   UNK N   1      33.624  18.004   7.382  0.00  0.00     0.000 C 
BRANCH   9  10
HETATM   10  C   UNK N   1      34.578  17.935   8.553  0.00  0.00     0.001 C 
BRANCH  10  11
HETATM   11  C   UNK N   1      34.304  16.649   9.295  0.00  0.00     0.010 C 
BRANCH  11  12
HETATM   12  C   UNK N   1      35.195  16.536  10.518  0.00  0.00     0.110 C 
BRANCH  12  13
HETATM   13  C   UNK N   1      34.816  15.359  11.371  0.00  0.00     0.139 C 
HETATM   14  O   UNK N   1      35.624  14.846  12.132  0.00  0.00    -0.650 OA
BRANCH  13  15
HETATM   15  O   UNK N   1      33.568  14.864  11.296  0.00  0.00    -0.776 OA
HETATM   16  H   UNK N   1      32.831  15.438  11.371  0.00  0.00     0.167 HD
ENDBRANCH  13  15
ENDBRANCH  12  13
ENDBRANCH  11  12
ENDBRANCH  10  11
ENDBRANCH   9  10
ENDBRANCH   1   9
TORSDOF 11
ENDMDL
