REMARK  6 active torsions:
REMARK  status: ('A' for Active; 'I' for Inactive)
REMARK    1  A    between atoms: C_3  and  N_4 
REMARK    2  A    between atoms: C_3  and  C_5 
REMARK    3  A    between atoms: C_11  and  C_8 
REMARK    4  A    between atoms: C_14  and  O_30 
REMARK    5  A    between atoms: N_19  and  C_23 
REMARK    6  A    between atoms: C_23  and  C_24 
ROOT
HETATM    1  C   UNK N   1       0.867   1.135   0.268  0.00  0.00     0.270 C 
HETATM    2  N   UNK N   1       1.844   2.150   0.688  0.00  0.00     0.106 N 
HETATM    3  C   UNK N   1       1.922   3.291  -0.223  0.00  0.00     0.305 C 
HETATM    4  C   UNK N   1       3.316   3.814  -0.046  0.00  0.00     0.148 C 
HETATM    5  C   UNK N   1       4.132   2.551   0.027  0.00  0.00     0.070 C 
HETATM    6  C   UNK N   1       3.152   1.489   0.527  0.00  0.00     0.240 C 
HETATM    7  C   UNK N   1       2.983   0.376  -0.530  0.00  0.00     0.127 C 
HETATM    8  C   UNK N   1       3.088  -1.043  -0.039  0.00  0.00     0.234 C 
HETATM    9  N   UNK N   1       2.020  -1.783  -0.365  0.00  0.00    -0.283 N 
HETATM   10  C   UNK N   1       1.112  -1.004  -0.992  0.00  0.00     0.234 C 
HETATM   11  O   UNK N   1       0.049  -1.414  -1.433  0.00  0.00    -0.272 OA
HETATM   12  C   UNK N   1       1.496   0.443  -0.960  0.00  0.00     0.131 C 
HETATM   13  O   UNK N   1       4.077  -1.507   0.509  0.00  0.00    -0.272 OA
ENDROOT
BRANCH   1  14
HETATM   14  C   UNK N   1      -0.567   1.630   0.127  0.00  0.00    -0.024 A 
HETATM   15  C   UNK N   1      -0.896   2.977   0.345  0.00  0.00     0.010 A 
HETATM   16  C   UNK N   1      -2.219   3.411   0.275  0.00  0.00     0.016 A 
HETATM   17  C   UNK N   1      -3.248   2.503   0.001  0.00  0.00     0.007 A 
HETATM   18  C   UNK N   1      -2.930   1.152  -0.210  0.00  0.00     0.016 A 
HETATM   19  C   UNK N   1      -1.600   0.720  -0.146  0.00  0.00     0.010 A 
BRANCH  17  20
HETATM   20  C   UNK N   1      -4.650   2.973  -0.054  0.00  0.00     0.102 C 
HETATM   21  N   UNK N   1      -5.605   2.146  -0.276  0.00  0.00    -0.385 N 
HETATM   22  H   UNK N   1      -6.521   2.464  -0.446  0.00  0.00     0.157 HD
ATOM     23  HN  UNK N   1      -5.412   1.145  -0.276  1.00  0.00     0.157 HD
BRANCH  20  24
HETATM   24  N   UNK N   1      -4.950   4.341   0.149  0.00  0.00    -0.385 N 
HETATM   25  H   UNK N   1      -4.230   4.997   0.290  0.00  0.00     0.157 HD
HETATM   26  H   UNK N   1      -5.888   4.639   0.149  0.00  0.00     0.157 HD
ENDBRANCH  20  24
ENDBRANCH  17  20
ENDBRANCH   1  14
BRANCH   4  27
HETATM   27  O   UNK N   1       3.702   4.607  -1.125  0.00  0.00    -0.394 OA
HETATM   28  H   UNK N   1       4.314   4.651  -1.876  0.00  0.00     0.210 HD
ENDBRANCH   4  27
BRANCH   9  29
HETATM   29  C   UNK N   1       1.910  -3.206  -0.054  0.00  0.00     0.173 C 
BRANCH  29  30
HETATM   30  C   UNK N   1       0.493  -3.674   0.040  0.00  0.00    -0.037 A 
HETATM   31  C   UNK N   1       0.044  -4.717  -0.801  0.00  0.00     0.012 A 
HETATM   32  C   UNK N   1      -1.315  -5.082  -0.808  0.00  0.00     0.040 A 
HETATM   33  C   UNK N   1      -2.179  -4.366   0.017  0.00  0.00     0.105 A 
HETATM   34  O   UNK N   1      -3.497  -4.495   0.145  0.00  0.00    -0.323 OA
HETATM   35  C   UNK N   1      -1.753  -3.385   0.821  0.00  0.00     0.105 A 
HETATM   36  C   UNK N   1      -3.947  -3.544   1.068  0.00  0.00     0.352 A 
HETATM   37  O   UNK N   1      -2.791  -2.868   1.473  0.00  0.00    -0.323 OA
HETATM   38  C   UNK N   1      -0.419  -3.003   0.885  0.00  0.00     0.048 A 
ENDBRANCH  29  30
ENDBRANCH   9  29
TORSDOF 6
