MODEL 1
REMARK VINA RESULT:      -8.2      0.000      0.000
REMARK  6 active torsions:
REMARK  status: ('A' for Active; 'I' for Inactive)
REMARK    1  A    between atoms: C_3  and  N_4 
REMARK    2  A    between atoms: C_3  and  C_5 
REMARK    3  A    between atoms: C_11  and  C_8 
REMARK    4  A    between atoms: C_14  and  O_30 
REMARK    5  A    between atoms: N_19  and  C_23 
REMARK    6  A    between atoms: C_23  and  C_24 
ROOT
HETATM    1  C   UNK N   1      23.042  15.688   5.139  0.00  0.00     0.270 C 
HETATM    2  N   UNK N   1      23.129  14.708   4.047  0.00  0.00     0.106 N 
HETATM    3  C   UNK N   1      23.029  15.310   2.719  0.00  0.00     0.305 C 
HETATM    4  C   UNK N   1      22.475  14.217   1.855  0.00  0.00     0.148 C 
HETATM    5  C   UNK N   1      21.426  13.600   2.741  0.00  0.00     0.070 C 
HETATM    6  C   UNK N   1      21.889  13.918   4.163  0.00  0.00     0.240 C 
HETATM    7  C   UNK N   1      20.843  14.799   4.882  0.00  0.00     0.127 C 
HETATM    8  C   UNK N   1      20.441  14.372   6.268  0.00  0.00     0.234 C 
HETATM    9  N   UNK N   1      20.594  15.347   7.174  0.00  0.00    -0.283 N 
HETATM   10  C   UNK N   1      21.143  16.428   6.577  0.00  0.00     0.234 C 
HETATM   11  O   UNK N   1      21.371  17.482   7.150  0.00  0.00    -0.272 OA
HETATM   12  C   UNK N   1      21.566  16.138   5.170  0.00  0.00     0.131 C 
HETATM   13  O   UNK N   1      19.933  13.292   6.533  0.00  0.00    -0.272 OA
ENDROOT
BRANCH   1  14
HETATM   14  C   UNK N   1      24.102  16.782   5.118  0.00  0.00    -0.024 A 
HETATM   15  C   UNK N   1      23.783  18.096   4.743  0.00  0.00     0.010 A 
HETATM   16  C   UNK N   1      24.769  19.078   4.666  0.00  0.00     0.016 A 
HETATM   17  C   UNK N   1      26.103  18.764   4.948  0.00  0.00     0.007 A 
HETATM   18  C   UNK N   1      26.434  17.451   5.317  0.00  0.00     0.016 A 
HETATM   19  C   UNK N   1      25.440  16.468   5.399  0.00  0.00     0.010 A 
BRANCH  17  20
HETATM   20  C   UNK N   1      27.144  19.812   4.847  0.00  0.00     0.102 C 
HETATM   21  N   UNK N   1      26.940  20.980   5.335  0.00  0.00    -0.385 N 
HETATM   22  H   UNK N   1      27.566  21.719   5.158  0.00  0.00     0.157 HD
ATOM     23  HN  UNK N   1      26.117  21.146   5.914  1.00  0.00     0.157 HD
BRANCH  20  24
HETATM   24  N   UNK N   1      28.379  19.528   4.218  0.00  0.00    -0.385 N 
HETATM   25  H   UNK N   1      29.093  19.056   4.704  0.00  0.00     0.157 HD
HETATM   26  H   UNK N   1      28.527  19.807   3.286  0.00  0.00     0.157 HD
ENDBRANCH  20  24
ENDBRANCH  17  20
ENDBRANCH   1  14
BRANCH   4  27
HETATM   27  O   UNK N   1      21.916  14.728   0.685  0.00  0.00    -0.394 OA
HETATM   28  H   UNK N   1      21.663  15.552   0.241  0.00  0.00     0.210 HD
ENDBRANCH   4  27
BRANCH   9  29
HETATM   29  C   UNK N   1      20.217  15.200   8.577  0.00  0.00     0.173 C 
BRANCH  29  30
HETATM   30  C   UNK N   1      21.022  14.161   9.291  0.00  0.00    -0.037 A 
HETATM   31  C   UNK N   1      20.396  13.321  10.239  0.00  0.00     0.012 A 
HETATM   32  C   UNK N   1      21.165  12.425  11.004  0.00  0.00     0.040 A 
HETATM   33  C   UNK N   1      22.543  12.423  10.802  0.00  0.00     0.105 A 
HETATM   34  O   UNK N   1      23.470  11.706  11.432  0.00  0.00    -0.323 OA
HETATM   35  C   UNK N   1      23.135  13.210   9.897  0.00  0.00     0.105 A 
HETATM   36  C   UNK N   1      24.724  12.055  10.918  0.00  0.00     0.352 A 
HETATM   37  O   UNK N   1      24.451  13.014   9.936  0.00  0.00    -0.323 OA
HETATM   38  C   UNK N   1      22.420  14.094   9.099  0.00  0.00     0.048 A 
ENDBRANCH  29  30
ENDBRANCH   9  29
TORSDOF 6
ENDMDL
MODEL 2
REMARK VINA RESULT:      -8.0      5.351      9.157
REMARK  6 active torsions:
REMARK  status: ('A' for Active; 'I' for Inactive)
REMARK    1  A    between atoms: C_3  and  N_4 
REMARK    2  A    between atoms: C_3  and  C_5 
REMARK    3  A    between atoms: C_11  and  C_8 
REMARK    4  A    between atoms: C_14  and  O_30 
REMARK    5  A    between atoms: N_19  and  C_23 
REMARK    6  A    between atoms: C_23  and  C_24 
ROOT
HETATM    1  C   UNK N   1      29.999  17.708   6.060  0.00  0.00     0.270 C 
HETATM    2  N   UNK N   1      30.258  18.098   7.454  0.00  0.00     0.106 N 
HETATM    3  C   UNK N   1      30.373  16.958   8.362  0.00  0.00     0.305 C 
HETATM    4  C   UNK N   1      29.963  17.503   9.698  0.00  0.00     0.148 C 
HETATM    5  C   UNK N   1      28.784  18.371   9.348  0.00  0.00     0.070 C 
HETATM    6  C   UNK N   1      29.013  18.760   7.887  0.00  0.00     0.240 C 
HETATM    7  C   UNK N   1      27.868  18.220   7.002  0.00  0.00     0.127 C 
HETATM    8  C   UNK N   1      27.247  19.191   6.034  0.00  0.00     0.234 C 
HETATM    9  N   UNK N   1      27.256  18.740   4.773  0.00  0.00    -0.283 N 
HETATM   10  C   UNK N   1      27.896  17.551   4.729  0.00  0.00     0.234 C 
HETATM   11  O   UNK N   1      28.031  16.886   3.713  0.00  0.00    -0.272 OA
HETATM   12  C   UNK N   1      28.539  17.210   6.037  0.00  0.00     0.131 C 
HETATM   13  O   UNK N   1      26.701  20.233   6.364  0.00  0.00    -0.272 OA
ENDROOT
BRANCH   1  14
HETATM   14  C   UNK N   1      31.051  16.804   5.431  0.00  0.00    -0.024 A 
HETATM   15  C   UNK N   1      32.231  17.332   4.884  0.00  0.00     0.010 A 
HETATM   16  C   UNK N   1      33.161  16.505   4.254  0.00  0.00     0.016 A 
HETATM   17  C   UNK N   1      32.924  15.131   4.143  0.00  0.00     0.007 A 
HETATM   18  C   UNK N   1      31.743  14.594   4.680  0.00  0.00     0.016 A 
HETATM   19  C   UNK N   1      30.814  15.425   5.317  0.00  0.00     0.010 A 
BRANCH  17  20
HETATM   20  C   UNK N   1      33.910  14.266   3.458  0.00  0.00     0.102 C 
HETATM   21  N   UNK N   1      34.512  13.332   4.098  0.00  0.00    -0.385 N 
HETATM   22  H   UNK N   1      35.262  12.841   3.691  0.00  0.00     0.157 HD
ATOM     23  HN  UNK N   1      34.209  13.095   5.042  1.00  0.00     0.157 HD
BRANCH  20  24
HETATM   24  N   UNK N   1      34.191  14.458   2.084  0.00  0.00    -0.385 N 
HETATM   25  H   UNK N   1      33.524  14.224   1.399  0.00  0.00     0.157 HD
HETATM   26  H   UNK N   1      35.061  14.829   1.812  0.00  0.00     0.157 HD
ENDBRANCH  20  24
ENDBRANCH  17  20
ENDBRANCH   1  14
BRANCH   4  27
HETATM   27  O   UNK N   1      29.600  16.482  10.573  0.00  0.00    -0.394 OA
HETATM   28  H   UNK N   1      28.951  15.775  10.716  0.00  0.00     0.210 HD
ENDBRANCH   4  27
BRANCH   9  29
HETATM   29  C   UNK N   1      26.659  19.472   3.659  0.00  0.00     0.173 C 
BRANCH  29  30
HETATM   30  C   UNK N   1      25.164  19.440   3.676  0.00  0.00    -0.037 A 
HETATM   31  C   UNK N   1      24.494  18.264   4.082  0.00  0.00     0.012 A 
HETATM   32  C   UNK N   1      23.093  18.181   3.986  0.00  0.00     0.040 A 
HETATM   33  C   UNK N   1      22.417  19.280   3.462  0.00  0.00     0.105 A 
HETATM   34  O   UNK N   1      21.113  19.417   3.232  0.00  0.00    -0.323 OA
HETATM   35  C   UNK N   1      23.049  20.398   3.087  0.00  0.00     0.105 A 
HETATM   36  C   UNK N   1      20.893  20.681   2.671  0.00  0.00     0.352 A 
HETATM   37  O   UNK N   1      22.162  21.267   2.608  0.00  0.00    -0.323 OA
HETATM   38  C   UNK N   1      24.427  20.541   3.185  0.00  0.00     0.048 A 
ENDBRANCH  29  30
ENDBRANCH   9  29
TORSDOF 6
ENDMDL
MODEL 3
REMARK VINA RESULT:      -7.9      5.496      8.815
REMARK  6 active torsions:
REMARK  status: ('A' for Active; 'I' for Inactive)
REMARK    1  A    between atoms: C_3  and  N_4 
REMARK    2  A    between atoms: C_3  and  C_5 
REMARK    3  A    between atoms: C_11  and  C_8 
REMARK    4  A    between atoms: C_14  and  O_30 
REMARK    5  A    between atoms: N_19  and  C_23 
REMARK    6  A    between atoms: C_23  and  C_24 
ROOT
HETATM    1  C   UNK N   1      30.289  15.536   5.436  0.00  0.00     0.270 C 
HETATM    2  N   UNK N   1      30.596  14.284   4.729  0.00  0.00     0.106 N 
HETATM    3  C   UNK N   1      31.775  14.378   3.869  0.00  0.00     0.305 C 
HETATM    4  C   UNK N   1      31.539  13.353   2.801  0.00  0.00     0.148 C 
HETATM    5  C   UNK N   1      30.076  13.531   2.494  0.00  0.00     0.070 C 
HETATM    6  C   UNK N   1      29.484  14.120   3.775  0.00  0.00     0.240 C 
HETATM    7  C   UNK N   1      28.899  15.522   3.498  0.00  0.00     0.127 C 
HETATM    8  C   UNK N   1      27.513  15.791   4.022  0.00  0.00     0.234 C 
HETATM    9  N   UNK N   1      27.457  16.882   4.797  0.00  0.00    -0.283 N 
HETATM   10  C   UNK N   1      28.699  17.393   4.940  0.00  0.00     0.234 C 
HETATM   11  O   UNK N   1      28.951  18.409   5.570  0.00  0.00    -0.272 OA
HETATM   12  C   UNK N   1      29.746  16.495   4.356  0.00  0.00     0.131 C 
HETATM   13  O   UNK N   1      26.523  15.150   3.701  0.00  0.00    -0.272 OA
ENDROOT
BRANCH   1  14
HETATM   14  C   UNK N   1      31.398  16.063   6.338  0.00  0.00    -0.024 A 
HETATM   15  C   UNK N   1      31.499  15.660   7.679  0.00  0.00     0.010 A 
HETATM   16  C   UNK N   1      32.478  16.193   8.515  0.00  0.00     0.016 A 
HETATM   17  C   UNK N   1      33.372  17.157   8.034  0.00  0.00     0.007 A 
HETATM   18  C   UNK N   1      33.274  17.573   6.697  0.00  0.00     0.016 A 
HETATM   19  C   UNK N   1      32.294  17.031   5.857  0.00  0.00     0.010 A 
BRANCH  17  20
HETATM   20  C   UNK N   1      34.396  17.728   8.936  0.00  0.00     0.102 C 
HETATM   21  N   UNK N   1      34.697  17.138  10.035  0.00  0.00    -0.385 N 
HETATM   22  H   UNK N   1      35.276  17.573  10.702  0.00  0.00     0.157 HD
ATOM     23  HN  UNK N   1      34.331  16.204  10.220  1.00  0.00     0.157 HD
BRANCH  20  24
HETATM   24  N   UNK N   1      35.062  18.927   8.588  0.00  0.00    -0.385 N 
HETATM   25  H   UNK N   1      36.044  18.956   8.525  0.00  0.00     0.157 HD
HETATM   26  H   UNK N   1      34.538  19.740   8.407  0.00  0.00     0.157 HD
ENDBRANCH  20  24
ENDBRANCH  17  20
ENDBRANCH   1  14
BRANCH   4  27
HETATM   27  O   UNK N   1      32.328  13.598   1.679  0.00  0.00    -0.394 OA
HETATM   28  H   UNK N   1      32.301  13.666   0.712  0.00  0.00     0.210 HD
ENDBRANCH   4  27
BRANCH   9  29
HETATM   29  C   UNK N   1      26.214  17.386   5.376  0.00  0.00     0.173 C 
BRANCH  29  30
HETATM   30  C   UNK N   1      25.492  18.333   4.472  0.00  0.00    -0.037 A 
HETATM   31  C   UNK N   1      26.210  19.360   3.819  0.00  0.00     0.012 A 
HETATM   32  C   UNK N   1      25.524  20.330   3.064  0.00  0.00     0.040 A 
HETATM   33  C   UNK N   1      24.135  20.244   3.014  0.00  0.00     0.105 A 
HETATM   34  O   UNK N   1      23.277  21.063   2.411  0.00  0.00    -0.323 OA
HETATM   35  C   UNK N   1      23.455  19.267   3.624  0.00  0.00     0.105 A 
HETATM   36  C   UNK N   1      21.979  20.599   2.652  0.00  0.00     0.352 A 
HETATM   37  O   UNK N   1      22.152  19.446   3.425  0.00  0.00    -0.323 OA
HETATM   38  C   UNK N   1      24.085  18.271   4.359  0.00  0.00     0.048 A 
ENDBRANCH  29  30
ENDBRANCH   9  29
TORSDOF 6
ENDMDL
MODEL 4
REMARK VINA RESULT:      -7.8     11.066     14.897
REMARK  6 active torsions:
REMARK  status: ('A' for Active; 'I' for Inactive)
REMARK    1  A    between atoms: C_3  and  N_4 
REMARK    2  A    between atoms: C_3  and  C_5 
REMARK    3  A    between atoms: C_11  and  C_8 
REMARK    4  A    between atoms: C_14  and  O_30 
REMARK    5  A    between atoms: N_19  and  C_23 
REMARK    6  A    between atoms: C_23  and  C_24 
ROOT
HETATM    1  C   UNK N   1      35.014  12.278  12.483  0.00  0.00     0.270 C 
HETATM    2  N   UNK N   1      35.424  10.899  12.185  0.00  0.00     0.106 N 
HETATM    3  C   UNK N   1      36.840  10.645  12.450  0.00  0.00     0.305 C 
HETATM    4  C   UNK N   1      37.199   9.528  11.517  0.00  0.00     0.148 C 
HETATM    5  C   UNK N   1      36.485   9.919  10.250  0.00  0.00     0.070 C 
HETATM    6  C   UNK N   1      35.323  10.794  10.718  0.00  0.00     0.240 C 
HETATM    7  C   UNK N   1      35.460  12.220  10.140  0.00  0.00     0.127 C 
HETATM    8  C   UNK N   1      34.230  12.812   9.504  0.00  0.00     0.234 C 
HETATM    9  N   UNK N   1      33.900  14.001  10.026  0.00  0.00    -0.283 N 
HETATM   10  C   UNK N   1      34.745  14.294  11.038  0.00  0.00     0.234 C 
HETATM   11  O   UNK N   1      34.705  15.332  11.682  0.00  0.00    -0.272 OA
HETATM   12  C   UNK N   1      35.644  13.144  11.371  0.00  0.00     0.131 C 
HETATM   13  O   UNK N   1      33.649  12.319   8.549  0.00  0.00    -0.272 OA
ENDROOT
BRANCH   1  14
HETATM   14  C   UNK N   1      35.236  12.728  13.922  0.00  0.00    -0.024 A 
HETATM   15  C   UNK N   1      34.373  12.322  14.952  0.00  0.00     0.010 A 
HETATM   16  C   UNK N   1      34.545  12.787  16.255  0.00  0.00     0.016 A 
HETATM   17  C   UNK N   1      35.577  13.683  16.556  0.00  0.00     0.007 A 
HETATM   18  C   UNK N   1      36.440  14.101  15.531  0.00  0.00     0.016 A 
HETATM   19  C   UNK N   1      36.269  13.628  14.224  0.00  0.00     0.010 A 
BRANCH  17  20
HETATM   20  C   UNK N   1      35.740  14.182  17.939  0.00  0.00     0.102 C 
HETATM   21  N   UNK N   1      35.333  13.483  18.935  0.00  0.00    -0.385 N 
HETATM   22  H   UNK N   1      35.315  13.859  19.844  0.00  0.00     0.157 HD
ATOM     23  HN  UNK N   1      35.025  12.523  18.781  1.00  0.00     0.157 HD
BRANCH  20  24
HETATM   24  N   UNK N   1      36.356  15.434  18.176  0.00  0.00    -0.385 N 
HETATM   25  H   UNK N   1      36.787  15.625  19.040  0.00  0.00     0.157 HD
HETATM   26  H   UNK N   1      36.354  16.119  17.470  0.00  0.00     0.157 HD
ENDBRANCH  20  24
ENDBRANCH  17  20
ENDBRANCH   1  14
BRANCH   4  27
HETATM   27  O   UNK N   1      38.577   9.452  11.322  0.00  0.00    -0.394 OA
HETATM   28  H   UNK N   1      39.333   8.846  11.354  0.00  0.00     0.210 HD
ENDBRANCH   4  27
BRANCH   9  29
HETATM   29  C   UNK N   1      32.782  14.803   9.537  0.00  0.00     0.173 C 
BRANCH  29  30
HETATM   30  C   UNK N   1      33.143  15.648   8.357  0.00  0.00    -0.037 A 
HETATM   31  C   UNK N   1      33.939  16.801   8.540  0.00  0.00     0.012 A 
HETATM   32  C   UNK N   1      34.182  17.669   7.459  0.00  0.00     0.040 A 
HETATM   33  C   UNK N   1      33.594  17.356   6.236  0.00  0.00     0.105 A 
HETATM   34  O   UNK N   1      33.641  18.041   5.096  0.00  0.00    -0.323 OA
HETATM   35  C   UNK N   1      32.849  16.259   6.060  0.00  0.00     0.105 A 
HETATM   36  C   UNK N   1      32.879  17.360   4.140  0.00  0.00     0.352 A 
HETATM   37  O   UNK N   1      32.403  16.226   4.807  0.00  0.00    -0.323 OA
HETATM   38  C   UNK N   1      32.599  15.357   7.086  0.00  0.00     0.048 A 
ENDBRANCH  29  30
ENDBRANCH   9  29
TORSDOF 6
ENDMDL
MODEL 5
REMARK VINA RESULT:      -7.7      2.222      2.962
REMARK  6 active torsions:
REMARK  status: ('A' for Active; 'I' for Inactive)
REMARK    1  A    between atoms: C_3  and  N_4 
REMARK    2  A    between atoms: C_3  and  C_5 
REMARK    3  A    between atoms: C_11  and  C_8 
REMARK    4  A    between atoms: C_14  and  O_30 
REMARK    5  A    between atoms: N_19  and  C_23 
REMARK    6  A    between atoms: C_23  and  C_24 
ROOT
HETATM    1  C   UNK N   1      22.700  16.935   3.882  0.00  0.00     0.270 C 
HETATM    2  N   UNK N   1      21.913  17.817   3.008  0.00  0.00     0.106 N 
HETATM    3  C   UNK N   1      22.104  19.238   3.294  0.00  0.00     0.305 C 
HETATM    4  C   UNK N   1      20.828  19.883   2.845  0.00  0.00     0.148 C 
HETATM    5  C   UNK N   1      19.783  18.912   3.326  0.00  0.00     0.070 C 
HETATM    6  C   UNK N   1      20.514  17.570   3.403  0.00  0.00     0.240 C 
HETATM    7  C   UNK N   1      20.527  17.051   4.857  0.00  0.00     0.127 C 
HETATM    8  C   UNK N   1      20.126  15.615   5.065  0.00  0.00     0.234 C 
HETATM    9  N   UNK N   1      21.050  14.912   5.733  0.00  0.00    -0.283 N 
HETATM   10  C   UNK N   1      22.123  15.697   5.969  0.00  0.00     0.234 C 
HETATM   11  O   UNK N   1      23.112  15.334   6.589  0.00  0.00    -0.272 OA
HETATM   12  C   UNK N   1      22.021  17.015   5.265  0.00  0.00     0.131 C 
HETATM   13  O   UNK N   1      19.038  15.155   4.752  0.00  0.00    -0.272 OA
ENDROOT
BRANCH   1  14
HETATM   14  C   UNK N   1      24.208  17.150   3.836  0.00  0.00    -0.024 A 
HETATM   15  C   UNK N   1      25.031  16.359   3.019  0.00  0.00     0.010 A 
HETATM   16  C   UNK N   1      26.415  16.520   3.028  0.00  0.00     0.016 A 
HETATM   17  C   UNK N   1      27.012  17.466   3.868  0.00  0.00     0.007 A 
HETATM   18  C   UNK N   1      26.199  18.257   4.695  0.00  0.00     0.016 A 
HETATM   19  C   UNK N   1      24.808  18.099   4.679  0.00  0.00     0.010 A 
BRANCH  17  20
HETATM   20  C   UNK N   1      28.484  17.616   3.881  0.00  0.00     0.102 C 
HETATM   21  N   UNK N   1      29.047  18.453   4.674  0.00  0.00    -0.385 N 
HETATM   22  H   UNK N   1      30.007  18.655   4.598  0.00  0.00     0.157 HD
ATOM     23  HN  UNK N   1      28.490  18.914   5.393  1.00  0.00     0.157 HD
BRANCH  20  24
HETATM   24  N   UNK N   1      29.287  16.827   3.022  0.00  0.00    -0.385 N 
HETATM   25  H   UNK N   1      30.088  17.207   2.595  0.00  0.00     0.157 HD
HETATM   26  H   UNK N   1      29.041  15.889   2.852  0.00  0.00     0.157 HD
ENDBRANCH  20  24
ENDBRANCH  17  20
ENDBRANCH   1  14
BRANCH   4  27
HETATM   27  O   UNK N   1      20.661  21.138   3.427  0.00  0.00    -0.394 OA
HETATM   28  H   UNK N   1      21.060  22.019   3.500  0.00  0.00     0.210 HD
ENDBRANCH   4  27
BRANCH   9  29
HETATM   29  C   UNK N   1      20.870  13.512   6.110  0.00  0.00     0.173 C 
BRANCH  29  30
HETATM   30  C   UNK N   1      21.128  13.262   7.562  0.00  0.00    -0.037 A 
HETATM   31  C   UNK N   1      20.535  14.100   8.532  0.00  0.00     0.012 A 
HETATM   32  C   UNK N   1      20.867  13.951   9.891  0.00  0.00     0.040 A 
HETATM   33  C   UNK N   1      21.806  12.977  10.222  0.00  0.00     0.105 A 
HETATM   34  O   UNK N   1      22.308  12.685  11.419  0.00  0.00    -0.323 OA
HETATM   35  C   UNK N   1      22.361  12.176   9.305  0.00  0.00     0.105 A 
HETATM   36  C   UNK N   1      23.242  11.653  11.267  0.00  0.00     0.352 A 
HETATM   37  O   UNK N   1      23.230  11.362   9.899  0.00  0.00    -0.323 OA
HETATM   38  C   UNK N   1      22.048  12.264   7.955  0.00  0.00     0.048 A 
ENDBRANCH  29  30
ENDBRANCH   9  29
TORSDOF 6
ENDMDL
MODEL 6
REMARK VINA RESULT:      -7.6     15.037     16.675
REMARK  6 active torsions:
REMARK  status: ('A' for Active; 'I' for Inactive)
REMARK    1  A    between atoms: C_3  and  N_4 
REMARK    2  A    between atoms: C_3  and  C_5 
REMARK    3  A    between atoms: C_11  and  C_8 
REMARK    4  A    between atoms: C_14  and  O_30 
REMARK    5  A    between atoms: N_19  and  C_23 
REMARK    6  A    between atoms: C_23  and  C_24 
ROOT
HETATM    1  C   UNK N   1      29.229  21.516  -6.519  0.00  0.00     0.270 C 
HETATM    2  N   UNK N   1      28.890  20.668  -7.671  0.00  0.00     0.106 N 
HETATM    3  C   UNK N   1      29.771  20.873  -8.820  0.00  0.00     0.305 C 
HETATM    4  C   UNK N   1      28.931  20.498 -10.005  0.00  0.00     0.148 C 
HETATM    5  C   UNK N   1      27.596  21.104  -9.664  0.00  0.00     0.070 C 
HETATM    6  C   UNK N   1      27.590  21.185  -8.137  0.00  0.00     0.240 C 
HETATM    7  C   UNK N   1      27.483  22.655  -7.678  0.00  0.00     0.127 C 
HETATM    8  C   UNK N   1      26.459  22.960  -6.618  0.00  0.00     0.234 C 
HETATM    9  N   UNK N   1      26.984  23.584  -5.556  0.00  0.00    -0.283 N 
HETATM   10  C   UNK N   1      28.320  23.697  -5.720  0.00  0.00     0.234 C 
HETATM   11  O   UNK N   1      29.061  24.252  -4.924  0.00  0.00    -0.272 OA
HETATM   12  C   UNK N   1      28.804  22.944  -6.921  0.00  0.00     0.131 C 
HETATM   13  O   UNK N   1      25.260  22.756  -6.745  0.00  0.00    -0.272 OA
ENDROOT
BRANCH   1  14
HETATM   14  C   UNK N   1      30.641  21.340  -5.974  0.00  0.00    -0.024 A 
HETATM   15  C   UNK N   1      31.658  22.259  -6.279  0.00  0.00     0.010 A 
HETATM   16  C   UNK N   1      32.962  22.058  -5.828  0.00  0.00     0.016 A 
HETATM   17  C   UNK N   1      33.284  20.924  -5.074  0.00  0.00     0.007 A 
HETATM   18  C   UNK N   1      32.275  19.995  -4.771  0.00  0.00     0.016 A 
HETATM   19  C   UNK N   1      30.965  20.202  -5.220  0.00  0.00     0.010 A 
BRANCH  17  20
HETATM   20  C   UNK N   1      34.675  20.715  -4.615  0.00  0.00     0.102 C 
HETATM   21  N   UNK N   1      35.463  21.713  -4.451  0.00  0.00    -0.385 N 
HETATM   22  H   UNK N   1      36.422  21.578  -4.276  0.00  0.00     0.157 HD
ATOM     23  HN  UNK N   1      35.090  22.661  -4.503  1.00  0.00     0.157 HD
BRANCH  20  24
HETATM   24  N   UNK N   1      35.145  19.408  -4.343  0.00  0.00    -0.385 N 
HETATM   25  H   UNK N   1      35.516  18.848  -5.063  0.00  0.00     0.157 HD
HETATM   26  H   UNK N   1      35.100  19.056  -3.426  0.00  0.00     0.157 HD
ENDBRANCH  20  24
ENDBRANCH  17  20
ENDBRANCH   1  14
BRANCH   4  27
HETATM   27  O   UNK N   1      29.447  21.033 -11.183  0.00  0.00    -0.394 OA
HETATM   28  H   UNK N   1      30.027  21.728 -11.531  0.00  0.00     0.210 HD
ENDBRANCH   4  27
BRANCH   9  29
HETATM   29  C   UNK N   1      26.184  24.038  -4.421  0.00  0.00     0.173 C 
BRANCH  29  30
HETATM   30  C   UNK N   1      26.020  25.524  -4.381  0.00  0.00    -0.037 A 
HETATM   31  C   UNK N   1      25.403  26.188  -5.465  0.00  0.00     0.012 A 
HETATM   32  C   UNK N   1      25.353  27.594  -5.495  0.00  0.00     0.040 A 
HETATM   33  C   UNK N   1      25.949  28.282  -4.441  0.00  0.00     0.105 A 
HETATM   34  O   UNK N   1      26.068  29.597  -4.274  0.00  0.00    -0.323 OA
HETATM   35  C   UNK N   1      26.524  27.654  -3.409  0.00  0.00     0.105 A 
HETATM   36  C   UNK N   1      26.764  29.830  -3.082  0.00  0.00     0.352 A 
HETATM   37  O   UNK N   1      27.024  28.555  -2.568  0.00  0.00    -0.323 OA
HETATM   38  C   UNK N   1      26.578  26.269  -3.319  0.00  0.00     0.048 A 
ENDBRANCH  29  30
ENDBRANCH   9  29
TORSDOF 6
ENDMDL
MODEL 7
REMARK VINA RESULT:      -7.5      6.961      9.792
REMARK  6 active torsions:
REMARK  status: ('A' for Active; 'I' for Inactive)
REMARK    1  A    between atoms: C_3  and  N_4 
REMARK    2  A    between atoms: C_3  and  C_5 
REMARK    3  A    between atoms: C_11  and  C_8 
REMARK    4  A    between atoms: C_14  and  O_30 
REMARK    5  A    between atoms: N_19  and  C_23 
REMARK    6  A    between atoms: C_23  and  C_24 
ROOT
HETATM    1  C   UNK N   1      29.845  16.733   5.502  0.00  0.00     0.270 C 
HETATM    2  N   UNK N   1      29.187  15.782   4.595  0.00  0.00     0.106 N 
HETATM    3  C   UNK N   1      27.955  15.217   5.142  0.00  0.00     0.305 C 
HETATM    4  C   UNK N   1      27.823  13.886   4.465  0.00  0.00     0.148 C 
HETATM    5  C   UNK N   1      29.237  13.370   4.480  0.00  0.00     0.070 C 
HETATM    6  C   UNK N   1      30.104  14.628   4.544  0.00  0.00     0.240 C 
HETATM    7  C   UNK N   1      30.936  14.639   5.845  0.00  0.00     0.127 C 
HETATM    8  C   UNK N   1      32.403  14.947   5.705  0.00  0.00     0.234 C 
HETATM    9  N   UNK N   1      32.794  15.965   6.484  0.00  0.00    -0.283 N 
HETATM   10  C   UNK N   1      31.720  16.472   7.127  0.00  0.00     0.234 C 
HETATM   11  O   UNK N   1      31.777  17.391   7.931  0.00  0.00    -0.272 OA
HETATM   12  C   UNK N   1      30.438  15.873   6.639  0.00  0.00     0.131 C 
HETATM   13  O   UNK N   1      33.181  14.284   5.036  0.00  0.00    -0.272 OA
ENDROOT
BRANCH   1  14
HETATM   14  C   UNK N   1      29.003  17.935   5.909  0.00  0.00    -0.024 A 
HETATM   15  C   UNK N   1      28.601  18.125   7.240  0.00  0.00     0.010 A 
HETATM   16  C   UNK N   1      27.779  19.194   7.594  0.00  0.00     0.016 A 
HETATM   17  C   UNK N   1      27.325  20.090   6.620  0.00  0.00     0.007 A 
HETATM   18  C   UNK N   1      27.715  19.904   5.285  0.00  0.00     0.016 A 
HETATM   19  C   UNK N   1      28.546  18.834   4.933  0.00  0.00     0.010 A 
BRANCH  17  20
HETATM   20  C   UNK N   1      26.439  21.211   7.006  0.00  0.00     0.102 C 
HETATM   21  N   UNK N   1      26.265  22.205   6.214  0.00  0.00    -0.385 N 
HETATM   22  H   UNK N   1      25.787  23.012   6.512  0.00  0.00     0.157 HD
ATOM     23  HN  UNK N   1      26.626  22.157   5.262  1.00  0.00     0.157 HD
BRANCH  20  24
HETATM   24  N   UNK N   1      25.767  21.190   8.251  0.00  0.00    -0.385 N 
HETATM   25  H   UNK N   1      25.521  20.336   8.674  0.00  0.00     0.157 HD
HETATM   26  H   UNK N   1      25.543  22.038   8.698  0.00  0.00     0.157 HD
ENDBRANCH  20  24
ENDBRANCH  17  20
ENDBRANCH   1  14
BRANCH   4  27
HETATM   27  O   UNK N   1      26.966  13.041   5.169  0.00  0.00    -0.394 OA
HETATM   28  H   UNK N   1      26.723  12.110   5.292  0.00  0.00     0.210 HD
ENDBRANCH   4  27
BRANCH   9  29
HETATM   29  C   UNK N   1      34.180  16.416   6.572  0.00  0.00     0.173 C 
BRANCH  29  30
HETATM   30  C   UNK N   1      34.901  15.856   7.757  0.00  0.00    -0.037 A 
HETATM   31  C   UNK N   1      35.598  14.633   7.638  0.00  0.00     0.012 A 
HETATM   32  C   UNK N   1      36.175  14.036   8.774  0.00  0.00     0.040 A 
HETATM   33  C   UNK N   1      36.009  14.683   9.996  0.00  0.00     0.105 A 
HETATM   34  O   UNK N   1      36.418  14.294  11.200  0.00  0.00    -0.323 OA
HETATM   35  C   UNK N   1      35.358  15.847  10.108  0.00  0.00     0.105 A 
HETATM   36  C   UNK N   1      36.002  15.246  12.138  0.00  0.00     0.352 A 
HETATM   37  O   UNK N   1      35.337  16.219  11.385  0.00  0.00    -0.323 OA
HETATM   38  C   UNK N   1      34.792  16.490   9.014  0.00  0.00     0.048 A 
ENDBRANCH  29  30
ENDBRANCH   9  29
TORSDOF 6
ENDMDL
MODEL 8
REMARK VINA RESULT:      -7.4      9.161     12.001
REMARK  6 active torsions:
REMARK  status: ('A' for Active; 'I' for Inactive)
REMARK    1  A    between atoms: C_3  and  N_4 
REMARK    2  A    between atoms: C_3  and  C_5 
REMARK    3  A    between atoms: C_11  and  C_8 
REMARK    4  A    between atoms: C_14  and  O_30 
REMARK    5  A    between atoms: N_19  and  C_23 
REMARK    6  A    between atoms: C_23  and  C_24 
ROOT
HETATM    1  C   UNK N   1      33.512  15.927   7.237  0.00  0.00     0.270 C 
HETATM    2  N   UNK N   1      33.881  15.691   5.834  0.00  0.00     0.106 N 
HETATM    3  C   UNK N   1      32.899  14.890   5.104  0.00  0.00     0.305 C 
HETATM    4  C   UNK N   1      33.695  14.220   4.023  0.00  0.00     0.148 C 
HETATM    5  C   UNK N   1      34.955  13.822   4.745  0.00  0.00     0.070 C 
HETATM    6  C   UNK N   1      35.060  14.810   5.907  0.00  0.00     0.240 C 
HETATM    7  C   UNK N   1      34.996  14.059   7.255  0.00  0.00     0.127 C 
HETATM    8  C   UNK N   1      36.043  14.415   8.277  0.00  0.00     0.234 C 
HETATM    9  N   UNK N   1      35.515  14.777   9.453  0.00  0.00    -0.283 N 
HETATM   10  C   UNK N   1      34.168  14.783   9.355  0.00  0.00     0.234 C 
HETATM   11  O   UNK N   1      33.416  15.044  10.282  0.00  0.00    -0.272 OA
HETATM   12  C   UNK N   1      33.707  14.570   7.946  0.00  0.00     0.131 C 
HETATM   13  O   UNK N   1      37.246  14.295   8.096  0.00  0.00    -0.272 OA
ENDROOT
BRANCH   1  14
HETATM   14  C   UNK N   1      32.181  16.637   7.451  0.00  0.00    -0.024 A 
HETATM   15  C   UNK N   1      32.046  17.658   8.404  0.00  0.00     0.010 A 
HETATM   16  C   UNK N   1      30.811  18.261   8.637  0.00  0.00     0.016 A 
HETATM   17  C   UNK N   1      29.676  17.844   7.933  0.00  0.00     0.007 A 
HETATM   18  C   UNK N   1      29.799  16.817   6.984  0.00  0.00     0.016 A 
HETATM   19  C   UNK N   1      31.041  16.218   6.747  0.00  0.00     0.010 A 
BRANCH  17  20
HETATM   20  C   UNK N   1      28.367  18.480   8.203  0.00  0.00     0.102 C 
HETATM   21  N   UNK N   1      27.740  18.240   9.295  0.00  0.00    -0.385 N 
HETATM   22  H   UNK N   1      26.815  18.550   9.426  0.00  0.00     0.157 HD
ATOM     23  HN  UNK N   1      28.206  17.720  10.038  1.00  0.00     0.157 HD
BRANCH  20  24
HETATM   24  N   UNK N   1      27.801  19.370   7.259  0.00  0.00    -0.385 N 
HETATM   25  H   UNK N   1      28.359  20.045   6.808  0.00  0.00     0.157 HD
HETATM   26  H   UNK N   1      26.841  19.313   7.050  0.00  0.00     0.157 HD
ENDBRANCH  20  24
ENDBRANCH  17  20
ENDBRANCH   1  14
BRANCH   4  27
HETATM   27  O   UNK N   1      33.027  13.108   3.515  0.00  0.00    -0.394 OA
HETATM   28  H   UNK N   1      32.146  12.763   3.299  0.00  0.00     0.210 HD
ENDBRANCH   4  27
BRANCH   9  29
HETATM   29  C   UNK N   1      36.324  15.111  10.623  0.00  0.00     0.173 C 
BRANCH  29  30
HETATM   30  C   UNK N   1      36.297  14.048  11.673  0.00  0.00    -0.037 A 
HETATM   31  C   UNK N   1      36.961  12.822  11.444  0.00  0.00     0.012 A 
HETATM   32  C   UNK N   1      36.840  11.770  12.371  0.00  0.00     0.040 A 
HETATM   33  C   UNK N   1      36.035  11.983  13.487  0.00  0.00     0.105 A 
HETATM   34  O   UNK N   1      35.733  11.133  14.464  0.00  0.00    -0.323 OA
HETATM   35  C   UNK N   1      35.414  13.148  13.710  0.00  0.00     0.105 A 
HETATM   36  C   UNK N   1      34.867  11.774  15.357  0.00  0.00     0.352 A 
HETATM   37  O   UNK N   1      34.703  13.060  14.831  0.00  0.00    -0.323 OA
HETATM   38  C   UNK N   1      35.521  14.225  12.840  0.00  0.00     0.048 A 
ENDBRANCH  29  30
ENDBRANCH   9  29
TORSDOF 6
ENDMDL
MODEL 9
REMARK VINA RESULT:      -7.4      3.368      7.425
REMARK  6 active torsions:
REMARK  status: ('A' for Active; 'I' for Inactive)
REMARK    1  A    between atoms: C_3  and  N_4 
REMARK    2  A    between atoms: C_3  and  C_5 
REMARK    3  A    between atoms: C_11  and  C_8 
REMARK    4  A    between atoms: C_14  and  O_30 
REMARK    5  A    between atoms: N_19  and  C_23 
REMARK    6  A    between atoms: C_23  and  C_24 
ROOT
HETATM    1  C   UNK N   1      21.941  15.880   6.377  0.00  0.00     0.270 C 
HETATM    2  N   UNK N   1      20.638  16.089   5.729  0.00  0.00     0.106 N 
HETATM    3  C   UNK N   1      20.038  14.854   5.225  0.00  0.00     0.305 C 
HETATM    4  C   UNK N   1      19.163  15.301   4.092  0.00  0.00     0.148 C 
HETATM    5  C   UNK N   1      20.017  16.335   3.408  0.00  0.00     0.070 C 
HETATM    6  C   UNK N   1      20.955  16.845   4.504  0.00  0.00     0.240 C 
HETATM    7  C   UNK N   1      22.423  16.540   4.136  0.00  0.00     0.127 C 
HETATM    8  C   UNK N   1      23.404  17.674   4.276  0.00  0.00     0.234 C 
HETATM    9  N   UNK N   1      24.451  17.359   5.050  0.00  0.00    -0.283 N 
HETATM   10  C   UNK N   1      24.281  16.114   5.545  0.00  0.00     0.234 C 
HETATM   11  O   UNK N   1      25.094  15.547   6.260  0.00  0.00    -0.272 OA
HETATM   12  C   UNK N   1      22.925  15.564   5.230  0.00  0.00     0.131 C 
HETATM   13  O   UNK N   1      23.316  18.733   3.673  0.00  0.00    -0.272 OA
ENDROOT
BRANCH   1  14
HETATM   14  C   UNK N   1      21.933  14.928   7.566  0.00  0.00    -0.024 A 
HETATM   15  C   UNK N   1      22.678  13.739   7.551  0.00  0.00     0.010 A 
HETATM   16  C   UNK N   1      22.617  12.842   8.616  0.00  0.00     0.016 A 
HETATM   17  C   UNK N   1      21.795  13.106   9.718  0.00  0.00     0.007 A 
HETATM   18  C   UNK N   1      21.039  14.289   9.739  0.00  0.00     0.016 A 
HETATM   19  C   UNK N   1      21.107  15.191   8.670  0.00  0.00     0.010 A 
BRANCH  17  20
HETATM   20  C   UNK N   1      21.726  12.138  10.835  0.00  0.00     0.102 C 
HETATM   21  N   UNK N   1      20.675  12.063  11.566  0.00  0.00    -0.385 N 
HETATM   22  H   UNK N   1      20.668  11.521  12.388  0.00  0.00     0.157 HD
ATOM     23  HN  UNK N   1      19.836  12.572  11.292  1.00  0.00     0.157 HD
BRANCH  20  24
HETATM   24  N   UNK N   1      22.818  11.278  11.099  0.00  0.00    -0.385 N 
HETATM   25  H   UNK N   1      23.123  10.632  10.422  0.00  0.00     0.157 HD
HETATM   26  H   UNK N   1      23.277  11.326  11.968  0.00  0.00     0.157 HD
ENDBRANCH  20  24
ENDBRANCH  17  20
ENDBRANCH   1  14
BRANCH   4  27
HETATM   27  O   UNK N   1      18.861  14.244   3.236  0.00  0.00    -0.394 OA
HETATM   28  H   UNK N   1      18.131  13.697   2.907  0.00  0.00     0.210 HD
ENDBRANCH   4  27
BRANCH   9  29
HETATM   29  C   UNK N   1      25.567  18.270   5.291  0.00  0.00     0.173 C 
BRANCH  29  30
HETATM   30  C   UNK N   1      26.853  17.784   4.701  0.00  0.00    -0.037 A 
HETATM   31  C   UNK N   1      26.828  16.968   3.548  0.00  0.00     0.012 A 
HETATM   32  C   UNK N   1      28.021  16.406   3.056  0.00  0.00     0.040 A 
HETATM   33  C   UNK N   1      29.195  16.667   3.760  0.00  0.00     0.105 A 
HETATM   34  O   UNK N   1      30.422  16.214   3.518  0.00  0.00    -0.323 OA
HETATM   35  C   UNK N   1      29.220  17.448   4.846  0.00  0.00     0.105 A 
HETATM   36  C   UNK N   1      31.281  16.716   4.503  0.00  0.00     0.352 A 
HETATM   37  O   UNK N   1      30.462  17.503   5.319  0.00  0.00    -0.323 OA
HETATM   38  C   UNK N   1      28.076  18.048   5.357  0.00  0.00     0.048 A 
ENDBRANCH  29  30
ENDBRANCH   9  29
TORSDOF 6
ENDMDL
