MODEL 1
REMARK VINA RESULT:      -8.1      0.000      0.000
REMARK  7 active torsions:
REMARK  status: ('A' for Active; 'I' for Inactive)
REMARK    1  A    between atoms: C_12  and  O_13 
REMARK    2  A    between atoms: O_13  and  C_25 
REMARK    3  A    between atoms: C_19  and  C_22 
REMARK    4  A    between atoms: C_25  and  C_27 
REMARK    5  A    between atoms: C_27  and  C_28 
REMARK    6  A    between atoms: C_28  and  C_29 
REMARK    7  A    between atoms: C_29  and  O_31 
ROOT
HETATM    1  C   UNK N   1      29.566  21.286  -5.975  0.00  0.00     0.022 C 
HETATM    2  C   UNK N   1      30.266  20.263  -6.860  0.00  0.00     0.084 C 
HETATM    3  C   UNK N   1      29.256  19.573  -7.720  0.00  0.00     0.149 C 
HETATM    4  O   UNK N   1      29.469  18.439  -8.116  0.00  0.00    -0.293 OA
HETATM    5  C   UNK N   1      28.029  20.279  -8.134  0.00  0.00     0.053 C 
HETATM    6  C   UNK N   1      27.770  21.535  -7.732  0.00  0.00    -0.068 C 
HETATM    7  C   UNK N   1      26.512  22.189  -8.229  0.00  0.00     0.035 C 
HETATM    8  C   UNK N   1      26.560  23.693  -8.005  0.00  0.00     0.010 C 
HETATM    9  C   UNK N   1      26.806  24.096  -6.540  0.00  0.00    -0.002 C 
HETATM   10  C   UNK N   1      27.816  23.129  -5.795  0.00  0.00     0.032 C 
HETATM   11  C   UNK N   1      28.703  22.287  -6.774  0.00  0.00    -0.014 C 
HETATM   12  C   UNK N   1      28.644  23.874  -4.692  0.00  0.00     0.138 C 
HETATM   13  C   UNK N   1      27.748  24.916  -4.022  0.00  0.00     0.043 C 
HETATM   14  C   UNK N   1      27.416  26.052  -5.013  0.00  0.00    -0.027 C 
HETATM   15  C   UNK N   1      27.287  25.563  -6.477  0.00  0.00    -0.001 C 
HETATM   16  C   UNK N   1      26.298  26.539  -7.130  0.00  0.00     0.006 C 
HETATM   17  C   UNK N   1      25.698  27.388  -6.010  0.00  0.00     0.013 C 
HETATM   18  C   UNK N   1      26.042  26.665  -4.715  0.00  0.00     0.063 C 
HETATM   19  C   UNK N   1      28.510  27.127  -4.956  0.00  0.00     0.016 C 
HETATM   20  C   UNK N   1      29.625  23.195  -7.587  0.00  0.00     0.020 C 
ENDROOT
BRANCH  12  21
HETATM   21  O   UNK N   1      29.173  22.952  -3.799  0.00  0.00    -0.316 OA
BRANCH  21  22
HETATM   22  C   UNK N   1      30.111  23.200  -2.846  0.00  0.00     0.259 C 
HETATM   23  O   UNK N   1      29.787  23.163  -1.670  0.00  0.00    -0.265 OA
BRANCH  22  24
HETATM   24  C   UNK N   1      31.497  23.637  -3.204  0.00  0.00     0.121 C 
BRANCH  24  25
HETATM   25  C   UNK N   1      32.246  22.593  -4.002  0.00  0.00     0.119 C 
BRANCH  25  26
HETATM   26  C   UNK N   1      32.353  21.355  -3.176  0.00  0.00     0.139 C 
HETATM   27  O   UNK N   1      32.874  21.400  -2.074  0.00  0.00    -0.650 OA
BRANCH  26  28
HETATM   28  O   UNK N   1      31.865  20.189  -3.640  0.00  0.00    -0.776 OA
HETATM   29  H   UNK N   1      31.307  19.935  -4.348  0.00  0.00     0.167 HD
ENDBRANCH  26  28
ENDBRANCH  25  26
ENDBRANCH  24  25
ENDBRANCH  22  24
ENDBRANCH  21  22
ENDBRANCH  12  21
BRANCH  18  30
HETATM   30  C   UNK N   1      26.005  27.566  -3.495  0.00  0.00     0.128 C 
HETATM   31  O   UNK N   1      25.912  27.091  -2.374  0.00  0.00    -0.298 OA
HETATM   32  C   UNK N   1      26.075  29.049  -3.650  0.00  0.00     0.091 C 
ENDBRANCH  18  30
TORSDOF 7
ENDMDL
MODEL 2
REMARK VINA RESULT:      -7.5     14.851     17.040
REMARK  7 active torsions:
REMARK  status: ('A' for Active; 'I' for Inactive)
REMARK    1  A    between atoms: C_12  and  O_13 
REMARK    2  A    between atoms: O_13  and  C_25 
REMARK    3  A    between atoms: C_19  and  C_22 
REMARK    4  A    between atoms: C_25  and  C_27 
REMARK    5  A    between atoms: C_27  and  C_28 
REMARK    6  A    between atoms: C_28  and  C_29 
REMARK    7  A    between atoms: C_29  and  O_31 
ROOT
HETATM    1  C   UNK N   1      21.072  18.245   4.864  0.00  0.00     0.022 C 
HETATM    2  C   UNK N   1      20.941  19.093   3.605  0.00  0.00     0.084 C 
HETATM    3  C   UNK N   1      22.240  19.777   3.328  0.00  0.00     0.149 C 
HETATM    4  O   UNK N   1      22.252  20.835   2.720  0.00  0.00    -0.293 OA
HETATM    5  C   UNK N   1      23.510  19.151   3.739  0.00  0.00     0.053 C 
HETATM    6  C   UNK N   1      23.537  17.977   4.393  0.00  0.00    -0.068 C 
HETATM    7  C   UNK N   1      24.877  17.395   4.744  0.00  0.00     0.035 C 
HETATM    8  C   UNK N   1      24.747  15.928   5.122  0.00  0.00     0.010 C 
HETATM    9  C   UNK N   1      23.756  15.667   6.270  0.00  0.00    -0.002 C 
HETATM   10  C   UNK N   1      22.483  16.608   6.213  0.00  0.00     0.032 C 
HETATM   11  C   UNK N   1      22.250  17.249   4.802  0.00  0.00    -0.014 C 
HETATM   12  C   UNK N   1      21.206  15.914   6.798  0.00  0.00     0.138 C 
HETATM   13  C   UNK N   1      21.618  15.042   7.985  0.00  0.00     0.043 C 
HETATM   14  C   UNK N   1      22.458  13.841   7.500  0.00  0.00    -0.027 C 
HETATM   15  C   UNK N   1      23.348  14.176   6.278  0.00  0.00    -0.001 C 
HETATM   16  C   UNK N   1      24.554  13.234   6.403  0.00  0.00     0.006 C 
HETATM   17  C   UNK N   1      24.469  12.574   7.778  0.00  0.00     0.013 C 
HETATM   18  C   UNK N   1      23.464  13.399   8.570  0.00  0.00     0.063 C 
HETATM   19  C   UNK N   1      21.530  12.680   7.119  0.00  0.00     0.016 C 
HETATM   20  C   UNK N   1      21.934  16.173   3.764  0.00  0.00     0.020 C 
ENDROOT
BRANCH  12  21
HETATM   21  O   UNK N   1      20.258  16.873   7.127  0.00  0.00    -0.316 OA
BRANCH  21  22
HETATM   22  C   UNK N   1      19.087  16.657   7.785  0.00  0.00     0.259 C 
HETATM   23  O   UNK N   1      18.079  16.418   7.138  0.00  0.00    -0.265 OA
BRANCH  22  24
HETATM   24  C   UNK N   1      18.976  16.826   9.267  0.00  0.00     0.121 C 
BRANCH  24  25
HETATM   25  C   UNK N   1      18.197  18.065   9.652  0.00  0.00     0.119 C 
BRANCH  25  26
HETATM   26  C   UNK N   1      19.150  19.065  10.215  0.00  0.00     0.139 C 
HETATM   27  O   UNK N   1      20.178  19.332   9.617  0.00  0.00    -0.650 OA
BRANCH  26  28
HETATM   28  O   UNK N   1      18.871  19.682  11.379  0.00  0.00    -0.776 OA
HETATM   29  H   UNK N   1      18.088  19.923  11.834  0.00  0.00     0.167 HD
ENDBRANCH  26  28
ENDBRANCH  25  26
ENDBRANCH  24  25
ENDBRANCH  22  24
ENDBRANCH  21  22
ENDBRANCH  12  21
BRANCH  18  30
HETATM   30  C   UNK N   1      22.853  12.645   9.736  0.00  0.00     0.128 C 
HETATM   31  O   UNK N   1      22.095  13.207  10.511  0.00  0.00    -0.298 OA
HETATM   32  C   UNK N   1      23.178  11.205   9.957  0.00  0.00     0.091 C 
ENDBRANCH  18  30
TORSDOF 7
ENDMDL
MODEL 3
REMARK VINA RESULT:      -7.5     17.785     22.389
REMARK  7 active torsions:
REMARK  status: ('A' for Active; 'I' for Inactive)
REMARK    1  A    between atoms: C_12  and  O_13 
REMARK    2  A    between atoms: O_13  and  C_25 
REMARK    3  A    between atoms: C_19  and  C_22 
REMARK    4  A    between atoms: C_25  and  C_27 
REMARK    5  A    between atoms: C_27  and  C_28 
REMARK    6  A    between atoms: C_28  and  C_29 
REMARK    7  A    between atoms: C_29  and  O_31 
ROOT
HETATM    1  C   UNK N   1      36.477  14.668  14.632  0.00  0.00     0.022 C 
HETATM    2  C   UNK N   1      37.193  15.003  15.934  0.00  0.00     0.084 C 
HETATM    3  C   UNK N   1      36.322  14.635  17.091  0.00  0.00     0.149 C 
HETATM    4  O   UNK N   1      36.437  15.229  18.151  0.00  0.00    -0.293 OA
HETATM    5  C   UNK N   1      35.363  13.521  16.973  0.00  0.00     0.053 C 
HETATM    6  C   UNK N   1      35.222  12.832  15.827  0.00  0.00    -0.068 C 
HETATM    7  C   UNK N   1      34.245  11.691  15.806  0.00  0.00     0.035 C 
HETATM    8  C   UNK N   1      34.482  10.800  14.597  0.00  0.00     0.010 C 
HETATM    9  C   UNK N   1      34.429  11.548  13.253  0.00  0.00    -0.002 C 
HETATM   10  C   UNK N   1      35.059  12.999  13.330  0.00  0.00     0.032 C 
HETATM   11  C   UNK N   1      36.007  13.199  14.561  0.00  0.00    -0.014 C 
HETATM   12  C   UNK N   1      35.707  13.437  11.971  0.00  0.00     0.138 C 
HETATM   13  C   UNK N   1      34.857  12.893  10.822  0.00  0.00     0.043 C 
HETATM   14  C   UNK N   1      34.963  11.354  10.761  0.00  0.00    -0.027 C 
HETATM   15  C   UNK N   1      35.114  10.700  12.157  0.00  0.00    -0.001 C 
HETATM   16  C   UNK N   1      34.482   9.308  12.006  0.00  0.00     0.006 C 
HETATM   17  C   UNK N   1      33.777   9.277  10.651  0.00  0.00     0.013 C 
HETATM   18  C   UNK N   1      33.676  10.730  10.206  0.00  0.00     0.063 C 
HETATM   19  C   UNK N   1      36.171  10.950   9.905  0.00  0.00     0.016 C 
HETATM   20  C   UNK N   1      37.233  12.293  14.454  0.00  0.00     0.020 C 
ENDROOT
BRANCH  12  21
HETATM   21  O   UNK N   1      35.848  14.817  11.940  0.00  0.00    -0.316 OA
BRANCH  21  22
HETATM   22  C   UNK N   1      36.066  15.581  10.836  0.00  0.00     0.259 C 
HETATM   23  O   UNK N   1      37.033  15.340  10.130  0.00  0.00    -0.265 OA
BRANCH  22  24
HETATM   24  C   UNK N   1      35.226  16.781  10.532  0.00  0.00     0.121 C 
BRANCH  24  25
HETATM   25  C   UNK N   1      34.566  16.697   9.173  0.00  0.00     0.119 C 
BRANCH  25  26
HETATM   26  C   UNK N   1      34.854  17.958   8.430  0.00  0.00     0.139 C 
HETATM   27  O   UNK N   1      34.486  18.083   7.274  0.00  0.00    -0.650 OA
BRANCH  26  28
HETATM   28  O   UNK N   1      35.511  18.964   9.037  0.00  0.00    -0.776 OA
HETATM   29  H   UNK N   1      35.752  19.166   9.920  0.00  0.00     0.167 HD
ENDBRANCH  26  28
ENDBRANCH  25  26
ENDBRANCH  24  25
ENDBRANCH  22  24
ENDBRANCH  21  22
ENDBRANCH  12  21
BRANCH  18  30
HETATM   30  C   UNK N   1      33.494  10.888   8.709  0.00  0.00     0.128 C 
HETATM   31  O   UNK N   1      33.118  11.951   8.237  0.00  0.00    -0.298 OA
HETATM   32  C   UNK N   1      33.764   9.744   7.790  0.00  0.00     0.091 C 
ENDBRANCH  18  30
TORSDOF 7
ENDMDL
MODEL 4
REMARK VINA RESULT:      -7.5      1.583      6.096
REMARK  7 active torsions:
REMARK  status: ('A' for Active; 'I' for Inactive)
REMARK    1  A    between atoms: C_12  and  O_13 
REMARK    2  A    between atoms: O_13  and  C_25 
REMARK    3  A    between atoms: C_19  and  C_22 
REMARK    4  A    between atoms: C_25  and  C_27 
REMARK    5  A    between atoms: C_27  and  C_28 
REMARK    6  A    between atoms: C_28  and  C_29 
REMARK    7  A    between atoms: C_29  and  O_31 
ROOT
HETATM    1  C   UNK N   1      26.565  27.227  -3.769  0.00  0.00     0.022 C 
HETATM    2  C   UNK N   1      25.920  28.536  -3.333  0.00  0.00     0.084 C 
HETATM    3  C   UNK N   1      26.644  29.682  -3.963  0.00  0.00     0.149 C 
HETATM    4  O   UNK N   1      26.652  30.771  -3.413  0.00  0.00    -0.293 OA
HETATM    5  C   UNK N   1      27.301  29.515  -5.272  0.00  0.00     0.053 C 
HETATM    6  C   UNK N   1      27.296  28.335  -5.916  0.00  0.00    -0.068 C 
HETATM    7  C   UNK N   1      27.961  28.262  -7.261  0.00  0.00     0.035 C 
HETATM    8  C   UNK N   1      27.543  27.004  -8.005  0.00  0.00     0.010 C 
HETATM    9  C   UNK N   1      27.812  25.704  -7.227  0.00  0.00    -0.002 C 
HETATM   10  C   UNK N   1      27.559  25.852  -5.670  0.00  0.00     0.032 C 
HETATM   11  C   UNK N   1      26.659  27.081  -5.304  0.00  0.00    -0.014 C 
HETATM   12  C   UNK N   1      27.074  24.512  -5.019  0.00  0.00     0.138 C 
HETATM   13  C   UNK N   1      27.791  23.345  -5.698  0.00  0.00     0.043 C 
HETATM   14  C   UNK N   1      27.311  23.199  -7.157  0.00  0.00    -0.027 C 
HETATM   15  C   UNK N   1      26.968  24.554  -7.823  0.00  0.00    -0.001 C 
HETATM   16  C   UNK N   1      27.239  24.336  -9.318  0.00  0.00     0.006 C 
HETATM   17  C   UNK N   1      27.949  22.990  -9.455  0.00  0.00     0.013 C 
HETATM   18  C   UNK N   1      28.417  22.626  -8.052  0.00  0.00     0.063 C 
HETATM   19  C   UNK N   1      26.062  22.307  -7.206  0.00  0.00     0.016 C 
HETATM   20  C   UNK N   1      25.250  26.909  -5.871  0.00  0.00     0.020 C 
ENDROOT
BRANCH  12  21
HETATM   21  O   UNK N   1      27.279  24.555  -3.646  0.00  0.00    -0.316 OA
BRANCH  21  22
HETATM   22  C   UNK N   1      28.120  23.760  -2.932  0.00  0.00     0.259 C 
HETATM   23  O   UNK N   1      27.678  23.126  -1.987  0.00  0.00    -0.265 OA
BRANCH  22  24
HETATM   24  C   UNK N   1      29.593  23.736  -3.196  0.00  0.00     0.121 C 
BRANCH  24  25
HETATM   25  C   UNK N   1      30.354  22.939  -2.159  0.00  0.00     0.119 C 
BRANCH  25  26
HETATM   26  C   UNK N   1      31.415  22.154  -2.855  0.00  0.00     0.139 C 
HETATM   27  O   UNK N   1      31.500  22.186  -4.071  0.00  0.00    -0.650 OA
BRANCH  26  28
HETATM   28  O   UNK N   1      32.287  21.417  -2.141  0.00  0.00    -0.776 OA
HETATM   29  H   UNK N   1      32.328  20.527  -1.851  0.00  0.00     0.167 HD
ENDBRANCH  26  28
ENDBRANCH  25  26
ENDBRANCH  24  25
ENDBRANCH  22  24
ENDBRANCH  21  22
ENDBRANCH  12  21
BRANCH  18  30
HETATM   30  C   UNK N   1      28.671  21.142  -7.869  0.00  0.00     0.128 C 
HETATM   31  O   UNK N   1      28.058  20.320  -8.534  0.00  0.00    -0.298 OA
HETATM   32  C   UNK N   1      29.670  20.664  -6.869  0.00  0.00     0.091 C 
ENDBRANCH  18  30
TORSDOF 7
ENDMDL
MODEL 5
REMARK VINA RESULT:      -7.3     12.965     14.791
REMARK  7 active torsions:
REMARK  status: ('A' for Active; 'I' for Inactive)
REMARK    1  A    between atoms: C_12  and  O_13 
REMARK    2  A    between atoms: O_13  and  C_25 
REMARK    3  A    between atoms: C_19  and  C_22 
REMARK    4  A    between atoms: C_25  and  C_27 
REMARK    5  A    between atoms: C_27  and  C_28 
REMARK    6  A    between atoms: C_28  and  C_29 
REMARK    7  A    between atoms: C_29  and  O_31 
ROOT
HETATM    1  C   UNK N   1      25.087  16.629   3.473  0.00  0.00     0.022 C 
HETATM    2  C   UNK N   1      26.015  16.035   2.422  0.00  0.00     0.084 C 
HETATM    3  C   UNK N   1      27.059  15.202   3.093  0.00  0.00     0.149 C 
HETATM    4  O   UNK N   1      28.146  15.047   2.562  0.00  0.00    -0.293 OA
HETATM    5  C   UNK N   1      26.761  14.524   4.368  0.00  0.00     0.053 C 
HETATM    6  C   UNK N   1      25.567  14.656   4.973  0.00  0.00    -0.068 C 
HETATM    7  C   UNK N   1      25.338  13.903   6.252  0.00  0.00     0.035 C 
HETATM    8  C   UNK N   1      23.856  13.853   6.592  0.00  0.00     0.010 C 
HETATM    9  C   UNK N   1      23.193  15.238   6.684  0.00  0.00    -0.002 C 
HETATM   10  C   UNK N   1      23.747  16.261   5.609  0.00  0.00     0.032 C 
HETATM   11  C   UNK N   1      24.469  15.564   4.406  0.00  0.00    -0.014 C 
HETATM   12  C   UNK N   1      22.661  17.300   5.165  0.00  0.00     0.138 C 
HETATM   13  C   UNK N   1      21.797  17.659   6.374  0.00  0.00     0.043 C 
HETATM   14  C   UNK N   1      20.943  16.445   6.798  0.00  0.00    -0.027 C 
HETATM   15  C   UNK N   1      21.658  15.090   6.574  0.00  0.00    -0.001 C 
HETATM   16  C   UNK N   1      21.076  14.158   7.646  0.00  0.00     0.006 C 
HETATM   17  C   UNK N   1      20.253  15.025   8.598  0.00  0.00     0.013 C 
HETATM   18  C   UNK N   1      20.665  16.461   8.307  0.00  0.00     0.063 C 
HETATM   19  C   UNK N   1      19.627  16.434   6.008  0.00  0.00     0.016 C 
HETATM   20  C   UNK N   1      23.485  14.715   3.602  0.00  0.00     0.020 C 
ENDROOT
BRANCH  12  21
HETATM   21  O   UNK N   1      23.275  18.403   4.586  0.00  0.00    -0.316 OA
BRANCH  21  22
HETATM   22  C   UNK N   1      22.706  19.273   3.709  0.00  0.00     0.259 C 
HETATM   23  O   UNK N   1      23.418  20.072   3.119  0.00  0.00    -0.265 OA
BRANCH  22  24
HETATM   24  C   UNK N   1      21.222  19.362   3.540  0.00  0.00     0.121 C 
BRANCH  24  25
HETATM   25  C   UNK N   1      20.785  19.104   2.115  0.00  0.00     0.119 C 
BRANCH  25  26
HETATM   26  C   UNK N   1      20.908  20.377   1.347  0.00  0.00     0.139 C 
HETATM   27  O   UNK N   1      20.956  20.351   0.128  0.00  0.00    -0.650 OA
BRANCH  26  28
HETATM   28  O   UNK N   1      20.954  21.555   1.996  0.00  0.00    -0.776 OA
HETATM   29  H   UNK N   1      21.384  22.376   1.857  0.00  0.00     0.167 HD
ENDBRANCH  26  28
ENDBRANCH  25  26
ENDBRANCH  24  25
ENDBRANCH  22  24
ENDBRANCH  21  22
ENDBRANCH  12  21
BRANCH  18  30
HETATM   30  C   UNK N   1      19.634  17.483   8.747  0.00  0.00     0.128 C 
HETATM   31  O   UNK N   1      19.927  18.666   8.832  0.00  0.00    -0.298 OA
HETATM   32  C   UNK N   1      18.245  17.055   9.089  0.00  0.00     0.091 C 
ENDBRANCH  18  30
TORSDOF 7
ENDMDL
MODEL 6
REMARK VINA RESULT:      -7.0     11.731     13.487
REMARK  7 active torsions:
REMARK  status: ('A' for Active; 'I' for Inactive)
REMARK    1  A    between atoms: C_12  and  O_13 
REMARK    2  A    between atoms: O_13  and  C_25 
REMARK    3  A    between atoms: C_19  and  C_22 
REMARK    4  A    between atoms: C_25  and  C_27 
REMARK    5  A    between atoms: C_27  and  C_28 
REMARK    6  A    between atoms: C_28  and  C_29 
REMARK    7  A    between atoms: C_29  and  O_31 
ROOT
HETATM    1  C   UNK N   1      20.255  15.164   3.579  0.00  0.00     0.022 C 
HETATM    2  C   UNK N   1      19.178  14.097   3.435  0.00  0.00     0.084 C 
HETATM    3  C   UNK N   1      19.137  13.618   2.020  0.00  0.00     0.149 C 
HETATM    4  O   UNK N   1      18.099  13.171   1.560  0.00  0.00    -0.293 OA
HETATM    5  C   UNK N   1      20.360  13.632   1.197  0.00  0.00     0.053 C 
HETATM    6  C   UNK N   1      21.526  14.099   1.677  0.00  0.00    -0.068 C 
HETATM    7  C   UNK N   1      22.730  14.045   0.780  0.00  0.00     0.035 C 
HETATM    8  C   UNK N   1      24.009  14.243   1.579  0.00  0.00     0.010 C 
HETATM    9  C   UNK N   1      24.035  15.545   2.399  0.00  0.00    -0.002 C 
HETATM   10  C   UNK N   1      22.624  15.914   3.017  0.00  0.00     0.032 C 
HETATM   11  C   UNK N   1      21.641  14.696   3.085  0.00  0.00    -0.014 C 
HETATM   12  C   UNK N   1      22.755  16.682   4.376  0.00  0.00     0.138 C 
HETATM   13  C   UNK N   1      23.967  17.612   4.302  0.00  0.00     0.043 C 
HETATM   14  C   UNK N   1      25.271  16.788   4.258  0.00  0.00    -0.027 C 
HETATM   15  C   UNK N   1      25.118  15.448   3.498  0.00  0.00    -0.001 C 
HETATM   16  C   UNK N   1      26.514  15.159   2.928  0.00  0.00     0.006 C 
HETATM   17  C   UNK N   1      27.357  16.415   3.144  0.00  0.00     0.013 C 
HETATM   18  C   UNK N   1      26.367  17.524   3.477  0.00  0.00     0.063 C 
HETATM   19  C   UNK N   1      25.740  16.482   5.687  0.00  0.00     0.016 C 
HETATM   20  C   UNK N   1      22.169  13.626   4.039  0.00  0.00     0.020 C 
ENDROOT
BRANCH  12  21
HETATM   21  O   UNK N   1      21.571  17.350   4.655  0.00  0.00    -0.316 OA
BRANCH  21  22
HETATM   22  C   UNK N   1      21.240  18.607   4.254  0.00  0.00     0.259 C 
HETATM   23  O   UNK N   1      21.099  19.480   5.096  0.00  0.00    -0.265 OA
BRANCH  22  24
HETATM   24  C   UNK N   1      20.925  18.918   2.825  0.00  0.00     0.121 C 
BRANCH  24  25
HETATM   25  C   UNK N   1      21.598  20.187   2.347  0.00  0.00     0.119 C 
BRANCH  25  26
HETATM   26  C   UNK N   1      20.933  20.626   1.086  0.00  0.00     0.139 C 
HETATM   27  O   UNK N   1      20.670  21.805   0.914  0.00  0.00    -0.650 OA
BRANCH  26  28
HETATM   28  O   UNK N   1      20.632  19.725   0.131  0.00  0.00    -0.776 OA
HETATM   29  H   UNK N   1      20.313  18.845   0.123  0.00  0.00     0.167 HD
ENDBRANCH  26  28
ENDBRANCH  25  26
ENDBRANCH  24  25
ENDBRANCH  22  24
ENDBRANCH  21  22
ENDBRANCH  12  21
BRANCH  18  30
HETATM   30  C   UNK N   1      26.996  18.688   4.218  0.00  0.00     0.128 C 
HETATM   31  O   UNK N   1      28.002  18.525   4.893  0.00  0.00    -0.298 OA
HETATM   32  C   UNK N   1      26.390  20.050   4.139  0.00  0.00     0.091 C 
ENDBRANCH  18  30
TORSDOF 7
ENDMDL
MODEL 7
REMARK VINA RESULT:      -6.9     12.110     15.462
REMARK  7 active torsions:
REMARK  status: ('A' for Active; 'I' for Inactive)
REMARK    1  A    between atoms: C_12  and  O_13 
REMARK    2  A    between atoms: O_13  and  C_25 
REMARK    3  A    between atoms: C_19  and  C_22 
REMARK    4  A    between atoms: C_25  and  C_27 
REMARK    5  A    between atoms: C_27  and  C_28 
REMARK    6  A    between atoms: C_28  and  C_29 
REMARK    7  A    between atoms: C_29  and  O_31 
ROOT
HETATM    1  C   UNK N   1      32.483  17.936   7.848  0.00  0.00     0.022 C 
HETATM    2  C   UNK N   1      33.866  18.398   8.287  0.00  0.00     0.084 C 
HETATM    3  C   UNK N   1      34.553  17.290   9.018  0.00  0.00     0.149 C 
HETATM    4  O   UNK N   1      35.401  17.549   9.855  0.00  0.00    -0.293 OA
HETATM    5  C   UNK N   1      34.249  15.885   8.691  0.00  0.00     0.053 C 
HETATM    6  C   UNK N   1      33.334  15.561   7.760  0.00  0.00    -0.068 C 
HETATM    7  C   UNK N   1      33.111  14.105   7.467  0.00  0.00     0.035 C 
HETATM    8  C   UNK N   1      32.354  13.926   6.160  0.00  0.00     0.010 C 
HETATM    9  C   UNK N   1      31.009  14.672   6.114  0.00  0.00    -0.002 C 
HETATM   10  C   UNK N   1      31.058  16.079   6.840  0.00  0.00     0.032 C 
HETATM   11  C   UNK N   1      32.514  16.629   7.026  0.00  0.00    -0.014 C 
HETATM   12  C   UNK N   1      30.081  17.117   6.188  0.00  0.00     0.138 C 
HETATM   13  C   UNK N   1      28.813  16.388   5.742  0.00  0.00     0.043 C 
HETATM   14  C   UNK N   1      29.128  15.442   4.564  0.00  0.00    -0.027 C 
HETATM   15  C   UNK N   1      30.543  14.817   4.647  0.00  0.00    -0.001 C 
HETATM   16  C   UNK N   1      30.416  13.465   3.931  0.00  0.00     0.006 C 
HETATM   17  C   UNK N   1      28.928  13.226   3.679  0.00  0.00     0.013 C 
HETATM   18  C   UNK N   1      28.195  14.224   4.565  0.00  0.00     0.063 C 
HETATM   19  C   UNK N   1      29.014  16.207   3.239  0.00  0.00     0.016 C 
HETATM   20  C   UNK N   1      33.162  16.914   5.672  0.00  0.00     0.020 C 
ENDROOT
BRANCH  12  21
HETATM   21  O   UNK N   1      29.832  18.152   7.080  0.00  0.00    -0.316 OA
BRANCH  21  22
HETATM   22  C   UNK N   1      28.619  18.508   7.582  0.00  0.00     0.259 C 
HETATM   23  O   UNK N   1      27.905  19.257   6.933  0.00  0.00    -0.265 OA
BRANCH  22  24
HETATM   24  C   UNK N   1      28.189  18.107   8.958  0.00  0.00     0.121 C 
BRANCH  24  25
HETATM   25  C   UNK N   1      29.361  17.771   9.855  0.00  0.00     0.119 C 
BRANCH  25  26
HETATM   26  C   UNK N   1      29.014  16.556  10.647  0.00  0.00     0.139 C 
HETATM   27  O   UNK N   1      27.879  16.110  10.616  0.00  0.00    -0.650 OA
BRANCH  26  28
HETATM   28  O   UNK N   1      29.955  15.942  11.389  0.00  0.00    -0.776 OA
HETATM   29  H   UNK N   1      30.381  16.118  12.205  0.00  0.00     0.167 HD
ENDBRANCH  26  28
ENDBRANCH  25  26
ENDBRANCH  24  25
ENDBRANCH  22  24
ENDBRANCH  21  22
ENDBRANCH  12  21
BRANCH  18  30
HETATM   30  C   UNK N   1      26.780  14.514   4.101  0.00  0.00     0.128 C 
HETATM   31  O   UNK N   1      26.436  14.253   2.958  0.00  0.00    -0.298 OA
HETATM   32  C   UNK N   1      25.790  15.128   5.033  0.00  0.00     0.091 C 
ENDBRANCH  18  30
TORSDOF 7
ENDMDL
MODEL 8
REMARK VINA RESULT:      -6.8     12.083     14.421
REMARK  7 active torsions:
REMARK  status: ('A' for Active; 'I' for Inactive)
REMARK    1  A    between atoms: C_12  and  O_13 
REMARK    2  A    between atoms: O_13  and  C_25 
REMARK    3  A    between atoms: C_19  and  C_22 
REMARK    4  A    between atoms: C_25  and  C_27 
REMARK    5  A    between atoms: C_27  and  C_28 
REMARK    6  A    between atoms: C_28  and  C_29 
REMARK    7  A    between atoms: C_29  and  O_31 
ROOT
HETATM    1  C   UNK N   1      25.183  19.021   3.947  0.00  0.00     0.022 C 
HETATM    2  C   UNK N   1      26.512  19.688   3.618  0.00  0.00     0.084 C 
HETATM    3  C   UNK N   1      27.465  19.485   4.751  0.00  0.00     0.149 C 
HETATM    4  O   UNK N   1      28.357  20.294   4.947  0.00  0.00    -0.293 OA
HETATM    5  C   UNK N   1      27.365  18.283   5.599  0.00  0.00     0.053 C 
HETATM    6  C   UNK N   1      26.407  17.360   5.400  0.00  0.00    -0.068 C 
HETATM    7  C   UNK N   1      26.399  16.149   6.290  0.00  0.00     0.035 C 
HETATM    8  C   UNK N   1      25.523  15.053   5.704  0.00  0.00     0.010 C 
HETATM    9  C   UNK N   1      24.076  15.497   5.425  0.00  0.00    -0.002 C 
HETATM   10  C   UNK N   1      23.978  16.987   4.897  0.00  0.00     0.032 C 
HETATM   11  C   UNK N   1      25.330  17.530   4.322  0.00  0.00    -0.014 C 
HETATM   12  C   UNK N   1      22.763  17.194   3.928  0.00  0.00     0.138 C 
HETATM   13  C   UNK N   1      21.591  16.343   4.418  0.00  0.00     0.043 C 
HETATM   14  C   UNK N   1      21.909  14.843   4.238  0.00  0.00    -0.027 C 
HETATM   15  C   UNK N   1      23.408  14.511   4.440  0.00  0.00    -0.001 C 
HETATM   16  C   UNK N   1      23.423  13.063   4.952  0.00  0.00     0.006 C 
HETATM   17  C   UNK N   1      21.977  12.682   5.268  0.00  0.00     0.013 C 
HETATM   18  C   UNK N   1      21.205  13.994   5.304  0.00  0.00     0.063 C 
HETATM   19  C   UNK N   1      21.499  14.390   2.830  0.00  0.00     0.016 C 
HETATM   20  C   UNK N   1      25.742  16.747   3.076  0.00  0.00     0.020 C 
ENDROOT
BRANCH  12  21
HETATM   21  O   UNK N   1      22.458  18.545   3.840  0.00  0.00    -0.316 OA
BRANCH  21  22
HETATM   22  C   UNK N   1      21.318  19.144   4.280  0.00  0.00     0.259 C 
HETATM   23  O   UNK N   1      21.139  19.268   5.481  0.00  0.00    -0.265 OA
BRANCH  22  24
HETATM   24  C   UNK N   1      20.226  19.542   3.337  0.00  0.00     0.121 C 
BRANCH  24  25
HETATM   25  C   UNK N   1      20.549  19.201   1.899  0.00  0.00     0.119 C 
BRANCH  25  26
HETATM   26  C   UNK N   1      20.858  20.467   1.173  0.00  0.00     0.139 C 
HETATM   27  O   UNK N   1      21.348  21.410   1.771  0.00  0.00    -0.650 OA
BRANCH  26  28
HETATM   28  O   UNK N   1      20.607  20.567  -0.146  0.00  0.00    -0.776 OA
HETATM   29  H   UNK N   1      19.921  20.935  -0.668  0.00  0.00     0.167 HD
ENDBRANCH  26  28
ENDBRANCH  25  26
ENDBRANCH  24  25
ENDBRANCH  22  24
ENDBRANCH  21  22
ENDBRANCH  12  21
BRANCH  18  30
HETATM   30  C   UNK N   1      19.714  13.819   5.086  0.00  0.00     0.128 C 
HETATM   31  O   UNK N   1      18.933  14.708   5.390  0.00  0.00    -0.298 OA
HETATM   32  C   UNK N   1      19.179  12.553   4.503  0.00  0.00     0.091 C 
ENDBRANCH  18  30
TORSDOF 7
ENDMDL
MODEL 9
REMARK VINA RESULT:      -6.7      2.566      5.862
REMARK  7 active torsions:
REMARK  status: ('A' for Active; 'I' for Inactive)
REMARK    1  A    between atoms: C_12  and  O_13 
REMARK    2  A    between atoms: O_13  and  C_25 
REMARK    3  A    between atoms: C_19  and  C_22 
REMARK    4  A    between atoms: C_25  and  C_27 
REMARK    5  A    between atoms: C_27  and  C_28 
REMARK    6  A    between atoms: C_28  and  C_29 
REMARK    7  A    between atoms: C_29  and  O_31 
ROOT
HETATM    1  C   UNK N   1      30.967  27.600  -3.017  0.00  0.00     0.022 C 
HETATM    2  C   UNK N   1      31.528  28.789  -2.249  0.00  0.00     0.084 C 
HETATM    3  C   UNK N   1      31.883  29.879  -3.208  0.00  0.00     0.149 C 
HETATM    4  O   UNK N   1      32.762  30.676  -2.923  0.00  0.00    -0.293 OA
HETATM    5  C   UNK N   1      31.140  30.025  -4.472  0.00  0.00     0.053 C 
HETATM    6  C   UNK N   1      30.153  29.177  -4.811  0.00  0.00    -0.068 C 
HETATM    7  C   UNK N   1      29.426  29.421  -6.103  0.00  0.00     0.035 C 
HETATM    8  C   UNK N   1      28.127  28.632  -6.149  0.00  0.00     0.010 C 
HETATM    9  C   UNK N   1      28.311  27.118  -5.940  0.00  0.00    -0.002 C 
HETATM   10  C   UNK N   1      29.435  26.774  -4.878  0.00  0.00     0.032 C 
HETATM   11  C   UNK N   1      29.782  27.975  -3.933  0.00  0.00    -0.014 C 
HETATM   12  C   UNK N   1      29.133  25.445  -4.105  0.00  0.00     0.138 C 
HETATM   13  C   UNK N   1      28.482  24.451  -5.068  0.00  0.00     0.043 C 
HETATM   14  C   UNK N   1      27.070  24.935  -5.463  0.00  0.00    -0.027 C 
HETATM   15  C   UNK N   1      26.959  26.478  -5.550  0.00  0.00    -0.001 C 
HETATM   16  C   UNK N   1      25.862  26.732  -6.593  0.00  0.00     0.006 C 
HETATM   17  C   UNK N   1      25.546  25.390  -7.252  0.00  0.00     0.013 C 
HETATM   18  C   UNK N   1      26.696  24.466  -6.874  0.00  0.00     0.063 C 
HETATM   19  C   UNK N   1      26.044  24.434  -4.437  0.00  0.00     0.016 C 
HETATM   20  C   UNK N   1      28.582  28.345  -3.062  0.00  0.00     0.020 C 
ENDROOT
BRANCH  12  21
HETATM   21  O   UNK N   1      30.298  24.962  -3.527  0.00  0.00    -0.316 OA
BRANCH  21  22
HETATM   22  C   UNK N   1      30.504  23.700  -3.061  0.00  0.00     0.259 C 
HETATM   23  O   UNK N   1      30.459  23.497  -1.858  0.00  0.00    -0.265 OA
BRANCH  22  24
HETATM   24  C   UNK N   1      30.907  22.583  -3.971  0.00  0.00     0.121 C 
BRANCH  24  25
HETATM   25  C   UNK N   1      32.408  22.466  -4.117  0.00  0.00     0.119 C 
BRANCH  25  26
HETATM   26  C   UNK N   1      32.870  21.298  -3.313  0.00  0.00     0.139 C 
HETATM   27  O   UNK N   1      33.486  20.392  -3.851  0.00  0.00    -0.650 OA
BRANCH  26  28
HETATM   28  O   UNK N   1      32.620  21.246  -1.991  0.00  0.00    -0.776 OA
HETATM   29  H   UNK N   1      32.260  20.610  -1.405  0.00  0.00     0.167 HD
ENDBRANCH  26  28
ENDBRANCH  25  26
ENDBRANCH  24  25
ENDBRANCH  22  24
ENDBRANCH  21  22
ENDBRANCH  12  21
BRANCH  18  30
HETATM   30  C   UNK N   1      26.341  22.994  -6.975  0.00  0.00     0.128 C 
HETATM   31  O   UNK N   1      25.214  22.607  -6.708  0.00  0.00    -0.298 OA
HETATM   32  C   UNK N   1      27.369  21.997  -7.396  0.00  0.00     0.091 C 
ENDBRANCH  18  30
TORSDOF 7
ENDMDL
