MODEL 1
REMARK VINA RESULT:      -7.4      0.000      0.000
REMARK  7 active torsions:
REMARK  status: ('A' for Active; 'I' for Inactive)
REMARK    1  A    between atoms: O_1  and  S_2 
REMARK    2  A    between atoms: S_2  and  N_5 
REMARK    3  A    between atoms: N_5  and  C_6 
REMARK       I    between atoms: N_11  and  C_20 
REMARK    4  A    between atoms: C_12  and  C_13 
REMARK       I    between atoms: C_13  and  N_15 
REMARK    5  A    between atoms: C_20  and  O_22 
REMARK    6  A    between atoms: O_22  and  C_23 
REMARK    7  A    between atoms: C_23  and  C_24 
ROOT
HETATM    1  C   UNK N   1      35.658  13.082  14.755  0.00  0.00     0.044 A 
HETATM    2  C   UNK N   1      34.958  12.019  14.169  0.00  0.00     0.031 A 
HETATM    3  C   UNK N   1      36.039  14.176  13.971  0.00  0.00     0.039 A 
HETATM    4  C   UNK N   1      35.738  14.206  12.606  0.00  0.00    -0.032 A 
HETATM    5  C   UNK N   1      36.175  15.392  11.787  0.00  0.00     0.168 C 
HETATM    6  N   UNK N   1      35.695  15.321  10.413  0.00  0.00    -0.310 N 
HETATM    7  C   UNK N   1      35.751  13.995   9.780  0.00  0.00     0.186 C 
HETATM    8  C   UNK N   1      34.803  13.065  10.537  0.00  0.00     0.074 C 
HETATM    9  C   UNK N   1      35.067  13.112  12.014  0.00  0.00    -0.048 A 
HETATM   10  C   UNK N   1      34.670  12.033  12.803  0.00  0.00     0.010 A 
HETATM   11  C   UNK N   1      35.255  16.478   9.820  0.00  0.00     0.364 C 
HETATM   12  O   UNK N   1      35.297  17.532  10.448  0.00  0.00    -0.238 OA
ENDROOT
BRANCH   7  13
HETATM   13  C   UNK N   1      35.508  13.874   8.287  0.00  0.00     0.240 C 
HETATM   14  O   UNK N   1      36.473  13.797   7.537  0.00  0.00    -0.271 OA
HETATM   15  N   UNK N   1      34.252  13.776   7.787  0.00  0.00    -0.364 N 
HETATM   16  C   UNK N   1      34.014  13.625   6.373  0.00  0.00     0.149 C 
HETATM   17  H   UNK N   1      33.485  13.809   8.404  0.00  0.00     0.161 HD
ENDBRANCH   7  13
BRANCH  11  18
HETATM   18  O   UNK N   1      34.763  16.483   8.561  0.00  0.00    -0.299 OA
BRANCH  18  19
HETATM   19  C   UNK N   1      34.498  17.647   7.875  0.00  0.00     0.219 C 
BRANCH  19  20
HETATM   20  C   UNK N   1      33.336  17.444   6.964  0.00  0.00    -0.034 A 
HETATM   21  C   UNK N   1      32.064  17.216   7.499  0.00  0.00     0.009 A 
HETATM   22  C   UNK N   1      30.970  17.036   6.647  0.00  0.00     0.001 A 
HETATM   23  C   UNK N   1      31.148  17.074   5.260  0.00  0.00     0.000 A 
HETATM   24  C   UNK N   1      32.419  17.299   4.724  0.00  0.00     0.001 A 
HETATM   25  C   UNK N   1      33.510  17.492   5.574  0.00  0.00     0.009 A 
ENDBRANCH  19  20
ENDBRANCH  18  19
ENDBRANCH  11  18
BRANCH   1  26
HETATM   26  N   UNK N   1      36.011  13.049  16.130  0.00  0.00    -0.273 N 
HETATM   27  H   UNK N   1      36.938  12.821  16.374  0.00  0.00     0.180 HD
BRANCH  26  28
HETATM   28  S   UNK N   1      34.861  13.397  17.418  0.00  0.00     0.199 S 
HETATM   29  O   UNK N   1      35.498  12.060  17.829  0.00  0.00    -0.585 OA
HETATM   30  O   UNK N   1      35.977  14.446  17.527  0.00  0.00    -0.585 OA
BRANCH  28  31
HETATM   31  O   UNK N   1      35.389  13.509  19.046  0.00  0.00    -0.279 OA
HETATM   32  H   UNK N   1      34.990  13.966  19.804  0.00  0.00     0.234 HD
ENDBRANCH  28  31
ENDBRANCH  26  28
ENDBRANCH   1  26
TORSDOF 7
ENDMDL
MODEL 2
REMARK VINA RESULT:      -7.4     11.396     13.471
REMARK  7 active torsions:
REMARK  status: ('A' for Active; 'I' for Inactive)
REMARK    1  A    between atoms: O_1  and  S_2 
REMARK    2  A    between atoms: S_2  and  N_5 
REMARK    3  A    between atoms: N_5  and  C_6 
REMARK       I    between atoms: N_11  and  C_20 
REMARK    4  A    between atoms: C_12  and  C_13 
REMARK       I    between atoms: C_13  and  N_15 
REMARK    5  A    between atoms: C_20  and  O_22 
REMARK    6  A    between atoms: O_22  and  C_23 
REMARK    7  A    between atoms: C_23  and  C_24 
ROOT
HETATM    1  C   UNK N   1      21.558  14.074   8.598  0.00  0.00     0.044 A 
HETATM    2  C   UNK N   1      20.735  15.100   9.080  0.00  0.00     0.031 A 
HETATM    3  C   UNK N   1      22.275  14.262   7.412  0.00  0.00     0.039 A 
HETATM    4  C   UNK N   1      22.164  15.461   6.700  0.00  0.00    -0.032 A 
HETATM    5  C   UNK N   1      22.939  15.626   5.420  0.00  0.00     0.168 C 
HETATM    6  N   UNK N   1      22.798  16.963   4.858  0.00  0.00    -0.310 N 
HETATM    7  C   UNK N   1      21.451  17.549   4.923  0.00  0.00     0.186 C 
HETATM    8  C   UNK N   1      21.084  17.741   6.395  0.00  0.00     0.074 C 
HETATM    9  C   UNK N   1      21.301  16.476   7.173  0.00  0.00    -0.048 A 
HETATM   10  C   UNK N   1      20.604  16.293   8.367  0.00  0.00     0.010 A 
HETATM   11  C   UNK N   1      23.907  17.554   4.305  0.00  0.00     0.364 C 
HETATM   12  O   UNK N   1      24.968  16.938   4.280  0.00  0.00    -0.238 OA
ENDROOT
BRANCH   7  13
HETATM   13  C   UNK N   1      21.156  18.821   4.150  0.00  0.00     0.240 C 
HETATM   14  O   UNK N   1      20.998  19.865   4.768  0.00  0.00    -0.271 OA
HETATM   15  N   UNK N   1      21.141  18.829   2.794  0.00  0.00    -0.364 N 
HETATM   16  C   UNK N   1      20.898  20.040   2.051  0.00  0.00     0.149 C 
HETATM   17  H   UNK N   1      21.300  17.988   2.306  0.00  0.00     0.161 HD
ENDBRANCH   7  13
BRANCH  11  18
HETATM   18  O   UNK N   1      23.861  18.805   3.797  0.00  0.00    -0.299 OA
BRANCH  18  19
HETATM   19  C   UNK N   1      24.922  19.371   3.127  0.00  0.00     0.219 C 
BRANCH  19  20
HETATM   20  C   UNK N   1      25.924  19.884   4.105  0.00  0.00    -0.034 A 
HETATM   21  C   UNK N   1      27.281  19.601   3.922  0.00  0.00     0.009 A 
HETATM   22  C   UNK N   1      28.225  20.090   4.831  0.00  0.00     0.001 A 
HETATM   23  C   UNK N   1      27.811  20.852   5.928  0.00  0.00     0.000 A 
HETATM   24  C   UNK N   1      26.454  21.132   6.114  0.00  0.00     0.001 A 
HETATM   25  C   UNK N   1      25.513  20.656   5.199  0.00  0.00     0.009 A 
ENDBRANCH  19  20
ENDBRANCH  18  19
ENDBRANCH  11  18
BRANCH   1  26
HETATM   26  N   UNK N   1      21.650  12.834   9.282  0.00  0.00    -0.273 N 
HETATM   27  H   UNK N   1      21.086  12.085   8.981  0.00  0.00     0.180 HD
BRANCH  26  28
HETATM   28  S   UNK N   1      22.731  12.578  10.650  0.00  0.00     0.199 S 
HETATM   29  O   UNK N   1      21.336  12.232  11.198  0.00  0.00    -0.585 OA
HETATM   30  O   UNK N   1      23.059  11.489   9.618  0.00  0.00    -0.585 OA
BRANCH  28  31
HETATM   31  O   UNK N   1      22.800  11.050  11.428  0.00  0.00    -0.279 OA
HETATM   32  H   UNK N   1      22.132  10.586  11.956  0.00  0.00     0.234 HD
ENDBRANCH  28  31
ENDBRANCH  26  28
ENDBRANCH   1  26
TORSDOF 7
ENDMDL
MODEL 3
REMARK VINA RESULT:      -7.3      3.778      8.830
REMARK  7 active torsions:
REMARK  status: ('A' for Active; 'I' for Inactive)
REMARK    1  A    between atoms: O_1  and  S_2 
REMARK    2  A    between atoms: S_2  and  N_5 
REMARK    3  A    between atoms: N_5  and  C_6 
REMARK       I    between atoms: N_11  and  C_20 
REMARK    4  A    between atoms: C_12  and  C_13 
REMARK       I    between atoms: C_13  and  N_15 
REMARK    5  A    between atoms: C_20  and  O_22 
REMARK    6  A    between atoms: O_22  and  C_23 
REMARK    7  A    between atoms: C_23  and  C_24 
ROOT
HETATM    1  C   UNK N   1      34.527  16.058   9.782  0.00  0.00     0.044 A 
HETATM    2  C   UNK N   1      35.276  16.714  10.769  0.00  0.00     0.031 A 
HETATM    3  C   UNK N   1      34.365  14.671   9.846  0.00  0.00     0.039 A 
HETATM    4  C   UNK N   1      34.955  13.936  10.878  0.00  0.00    -0.032 A 
HETATM    5  C   UNK N   1      34.771  12.442  10.910  0.00  0.00     0.168 C 
HETATM    6  N   UNK N   1      35.357  11.839  12.100  0.00  0.00    -0.310 N 
HETATM    7  C   UNK N   1      36.659  12.377  12.520  0.00  0.00     0.186 C 
HETATM    8  C   UNK N   1      36.464  13.840  12.920  0.00  0.00     0.074 C 
HETATM    9  C   UNK N   1      35.741  14.600  11.847  0.00  0.00    -0.048 A 
HETATM   10  C   UNK N   1      35.883  15.986  11.793  0.00  0.00     0.010 A 
HETATM   11  C   UNK N   1      34.670  10.821  12.715  0.00  0.00     0.364 C 
HETATM   12  O   UNK N   1      33.606  10.438  12.239  0.00  0.00    -0.238 OA
ENDROOT
BRANCH   7  13
HETATM   13  C   UNK N   1      37.452  11.651  13.590  0.00  0.00     0.240 C 
HETATM   14  O   UNK N   1      37.608  12.191  14.678  0.00  0.00    -0.271 OA
HETATM   15  N   UNK N   1      37.920  10.396  13.385  0.00  0.00    -0.364 N 
HETATM   16  C   UNK N   1      38.644   9.685  14.410  0.00  0.00     0.149 C 
HETATM   17  H   UNK N   1      37.762   9.959  12.517  0.00  0.00     0.161 HD
ENDBRANCH   7  13
BRANCH  11  18
HETATM   18  O   UNK N   1      35.133  10.239  13.843  0.00  0.00    -0.299 OA
BRANCH  18  19
HETATM   19  C   UNK N   1      34.346  10.059  14.959  0.00  0.00     0.219 C 
BRANCH  19  20
HETATM   20  C   UNK N   1      34.661  11.105  15.974  0.00  0.00    -0.034 A 
HETATM   21  C   UNK N   1      35.210  10.735  17.206  0.00  0.00     0.009 A 
HETATM   22  C   UNK N   1      35.517  11.714  18.156  0.00  0.00     0.001 A 
HETATM   23  C   UNK N   1      35.265  13.062  17.880  0.00  0.00     0.000 A 
HETATM   24  C   UNK N   1      34.712  13.432  16.651  0.00  0.00     0.001 A 
HETATM   25  C   UNK N   1      34.418  12.456  15.696  0.00  0.00     0.009 A 
ENDBRANCH  19  20
ENDBRANCH  18  19
ENDBRANCH  11  18
BRANCH   1  26
HETATM   26  N   UNK N   1      33.957  16.782   8.702  0.00  0.00    -0.273 N 
HETATM   27  H   UNK N   1      33.193  17.376   8.883  0.00  0.00     0.180 HD
BRANCH  26  28
HETATM   28  S   UNK N   1      34.559  16.661   7.050  0.00  0.00     0.199 S 
HETATM   29  O   UNK N   1      33.034  16.522   6.910  0.00  0.00    -0.585 OA
HETATM   30  O   UNK N   1      34.809  18.106   7.507  0.00  0.00    -0.585 OA
BRANCH  28  31
HETATM   31  O   UNK N   1      34.009  17.750   5.844  0.00  0.00    -0.279 OA
HETATM   32  H   UNK N   1      33.881  17.616   4.891  0.00  0.00     0.234 HD
ENDBRANCH  28  31
ENDBRANCH  26  28
ENDBRANCH   1  26
TORSDOF 7
ENDMDL
MODEL 4
REMARK VINA RESULT:      -7.2     12.528     16.476
REMARK  7 active torsions:
REMARK  status: ('A' for Active; 'I' for Inactive)
REMARK    1  A    between atoms: O_1  and  S_2 
REMARK    2  A    between atoms: S_2  and  N_5 
REMARK    3  A    between atoms: N_5  and  C_6 
REMARK       I    between atoms: N_11  and  C_20 
REMARK    4  A    between atoms: C_12  and  C_13 
REMARK       I    between atoms: C_13  and  N_15 
REMARK    5  A    between atoms: C_20  and  O_22 
REMARK    6  A    between atoms: O_22  and  C_23 
REMARK    7  A    between atoms: C_23  and  C_24 
ROOT
HETATM    1  C   UNK N   1      20.509  17.644   1.868  0.00  0.00     0.044 A 
HETATM    2  C   UNK N   1      20.338  16.494   1.085  0.00  0.00     0.031 A 
HETATM    3  C   UNK N   1      20.940  17.522   3.192  0.00  0.00     0.039 A 
HETATM    4  C   UNK N   1      21.187  16.261   3.742  0.00  0.00    -0.032 A 
HETATM    5  C   UNK N   1      21.637  16.163   5.176  0.00  0.00     0.168 C 
HETATM    6  N   UNK N   1      21.951  14.794   5.564  0.00  0.00    -0.310 N 
HETATM    7  C   UNK N   1      21.038  13.757   5.061  0.00  0.00     0.186 C 
HETATM    8  C   UNK N   1      21.141  13.728   3.536  0.00  0.00     0.074 C 
HETATM    9  C   UNK N   1      20.974  15.103   2.959  0.00  0.00    -0.048 A 
HETATM   10  C   UNK N   1      20.565  15.230   1.631  0.00  0.00     0.010 A 
HETATM   11  C   UNK N   1      23.044  14.583   6.369  0.00  0.00     0.364 C 
HETATM   12  O   UNK N   1      23.704  15.544   6.752  0.00  0.00    -0.238 OA
ENDROOT
BRANCH   7  13
HETATM   13  C   UNK N   1      21.141  12.347   5.611  0.00  0.00     0.240 C 
HETATM   14  O   UNK N   1      20.385  12.008   6.512  0.00  0.00    -0.271 OA
HETATM   15  N   UNK N   1      21.999  11.446   5.073  0.00  0.00    -0.364 N 
HETATM   16  C   UNK N   1      22.078  10.093   5.566  0.00  0.00     0.149 C 
HETATM   17  H   UNK N   1      22.581  11.722   4.328  0.00  0.00     0.161 HD
ENDBRANCH   7  13
BRANCH  11  18
HETATM   18  O   UNK N   1      23.417  13.339   6.739  0.00  0.00    -0.299 OA
BRANCH  18  19
HETATM   19  C   UNK N   1      24.418  13.110   7.657  0.00  0.00     0.219 C 
BRANCH  19  20
HETATM   20  C   UNK N   1      23.823  12.741   8.973  0.00  0.00    -0.034 A 
HETATM   21  C   UNK N   1      22.434  12.747   9.134  0.00  0.00     0.009 A 
HETATM   22  C   UNK N   1      21.871  12.390  10.364  0.00  0.00     0.001 A 
HETATM   23  C   UNK N   1      22.697  12.039  11.436  0.00  0.00     0.000 A 
HETATM   24  C   UNK N   1      24.086  12.036  11.278  0.00  0.00     0.001 A 
HETATM   25  C   UNK N   1      24.648  12.378  10.046  0.00  0.00     0.009 A 
ENDBRANCH  19  20
ENDBRANCH  18  19
ENDBRANCH  11  18
BRANCH   1  26
HETATM   26  N   UNK N   1      20.222  18.931   1.340  0.00  0.00    -0.273 N 
HETATM   27  H   UNK N   1      19.390  19.056   0.828  0.00  0.00     0.180 HD
BRANCH  26  28
HETATM   28  S   UNK N   1      21.290  20.314   1.565  0.00  0.00     0.199 S 
HETATM   29  O   UNK N   1      20.910  20.365   0.076  0.00  0.00    -0.585 OA
HETATM   30  O   UNK N   1      20.000  20.622   2.339  0.00  0.00    -0.585 OA
BRANCH  28  31
HETATM   31  O   UNK N   1      20.753  21.897   1.180  0.00  0.00    -0.279 OA
HETATM   32  H   UNK N   1      20.791  22.714   1.702  0.00  0.00     0.234 HD
ENDBRANCH  28  31
ENDBRANCH  26  28
ENDBRANCH   1  26
TORSDOF 7
ENDMDL
MODEL 5
REMARK VINA RESULT:      -7.2      3.110      4.754
REMARK  7 active torsions:
REMARK  status: ('A' for Active; 'I' for Inactive)
REMARK    1  A    between atoms: O_1  and  S_2 
REMARK    2  A    between atoms: S_2  and  N_5 
REMARK    3  A    between atoms: N_5  and  C_6 
REMARK       I    between atoms: N_11  and  C_20 
REMARK    4  A    between atoms: C_12  and  C_13 
REMARK       I    between atoms: C_13  and  N_15 
REMARK    5  A    between atoms: C_20  and  O_22 
REMARK    6  A    between atoms: O_22  and  C_23 
REMARK    7  A    between atoms: C_23  and  C_24 
ROOT
HETATM    1  C   UNK N   1      36.162  14.599  10.425  0.00  0.00     0.044 A 
HETATM    2  C   UNK N   1      36.479  13.832   9.296  0.00  0.00     0.031 A 
HETATM    3  C   UNK N   1      35.199  15.608  10.329  0.00  0.00     0.039 A 
HETATM    4  C   UNK N   1      34.561  15.863   9.112  0.00  0.00    -0.032 A 
HETATM    5  C   UNK N   1      33.538  16.965   9.039  0.00  0.00     0.168 C 
HETATM    6  N   UNK N   1      32.893  17.034   7.734  0.00  0.00    -0.310 N 
HETATM    7  C   UNK N   1      33.771  16.838   6.571  0.00  0.00     0.186 C 
HETATM    8  C   UNK N   1      34.320  15.412   6.623  0.00  0.00     0.074 C 
HETATM    9  C   UNK N   1      34.914  15.111   7.967  0.00  0.00    -0.048 A 
HETATM   10  C   UNK N   1      35.860  14.092   8.072  0.00  0.00     0.010 A 
HETATM   11  C   UNK N   1      31.545  17.292   7.691  0.00  0.00     0.364 C 
HETATM   12  O   UNK N   1      30.932  17.475   8.738  0.00  0.00    -0.238 OA
ENDROOT
BRANCH   7  13
HETATM   13  C   UNK N   1      33.240  17.136   5.182  0.00  0.00     0.240 C 
HETATM   14  O   UNK N   1      33.432  18.246   4.701  0.00  0.00    -0.271 OA
HETATM   15  N   UNK N   1      32.629  16.177   4.444  0.00  0.00    -0.364 N 
HETATM   16  C   UNK N   1      32.154  16.441   3.109  0.00  0.00     0.149 C 
HETATM   17  H   UNK N   1      32.507  15.279   4.830  0.00  0.00     0.161 HD
ENDBRANCH   7  13
BRANCH  11  18
HETATM   18  O   UNK N   1      30.872  17.335   6.520  0.00  0.00    -0.299 OA
BRANCH  18  19
HETATM   19  C   UNK N   1      29.533  17.029   6.425  0.00  0.00     0.219 C 
BRANCH  19  20
HETATM   20  C   UNK N   1      28.754  18.258   6.101  0.00  0.00    -0.034 A 
HETATM   21  C   UNK N   1      28.156  18.992   7.130  0.00  0.00     0.009 A 
HETATM   22  C   UNK N   1      27.434  20.153   6.832  0.00  0.00     0.001 A 
HETATM   23  C   UNK N   1      27.301  20.573   5.505  0.00  0.00     0.000 A 
HETATM   24  C   UNK N   1      27.895  19.838   4.475  0.00  0.00     0.001 A 
HETATM   25  C   UNK N   1      28.628  18.687   4.773  0.00  0.00     0.009 A 
ENDBRANCH  19  20
ENDBRANCH  18  19
ENDBRANCH  11  18
BRANCH   1  26
HETATM   26  N   UNK N   1      36.830  14.383  11.660  0.00  0.00    -0.273 N 
HETATM   27  H   UNK N   1      37.785  14.615  11.726  0.00  0.00     0.180 HD
BRANCH  26  28
HETATM   28  S   UNK N   1      36.023  13.718  13.077  0.00  0.00     0.199 S 
HETATM   29  O   UNK N   1      37.233  12.794  12.862  0.00  0.00    -0.585 OA
HETATM   30  O   UNK N   1      36.601  15.078  13.496  0.00  0.00    -0.585 OA
BRANCH  28  31
HETATM   31  O   UNK N   1      36.869  13.552  14.560  0.00  0.00    -0.279 OA
HETATM   32  H   UNK N   1      37.648  14.025  14.893  0.00  0.00     0.234 HD
ENDBRANCH  28  31
ENDBRANCH  26  28
ENDBRANCH   1  26
TORSDOF 7
ENDMDL
MODEL 6
REMARK VINA RESULT:      -6.9      4.010      5.957
REMARK  7 active torsions:
REMARK  status: ('A' for Active; 'I' for Inactive)
REMARK    1  A    between atoms: O_1  and  S_2 
REMARK    2  A    between atoms: S_2  and  N_5 
REMARK    3  A    between atoms: N_5  and  C_6 
REMARK       I    between atoms: N_11  and  C_20 
REMARK    4  A    between atoms: C_12  and  C_13 
REMARK       I    between atoms: C_13  and  N_15 
REMARK    5  A    between atoms: C_20  and  O_22 
REMARK    6  A    between atoms: O_22  and  C_23 
REMARK    7  A    between atoms: C_23  and  C_24 
ROOT
HETATM    1  C   UNK N   1      33.932  13.812   9.891  0.00  0.00     0.044 A 
HETATM    2  C   UNK N   1      33.899  12.931   8.802  0.00  0.00     0.031 A 
HETATM    3  C   UNK N   1      33.267  15.039   9.810  0.00  0.00     0.039 A 
HETATM    4  C   UNK N   1      32.582  15.396   8.644  0.00  0.00    -0.032 A 
HETATM    5  C   UNK N   1      31.887  16.730   8.584  0.00  0.00     0.168 C 
HETATM    6  N   UNK N   1      31.135  16.906   7.348  0.00  0.00    -0.310 N 
HETATM    7  C   UNK N   1      31.787  16.418   6.124  0.00  0.00     0.186 C 
HETATM    8  C   UNK N   1      31.939  14.901   6.236  0.00  0.00     0.074 C 
HETATM    9  C   UNK N   1      32.585  14.519   7.535  0.00  0.00    -0.048 A 
HETATM   10  C   UNK N   1      33.232  13.287   7.629  0.00  0.00     0.010 A 
HETATM   11  C   UNK N   1      29.908  17.519   7.418  0.00  0.00     0.364 C 
HETATM   12  O   UNK N   1      29.494  17.916   8.502  0.00  0.00    -0.238 OA
ENDROOT
BRANCH   7  13
HETATM   13  C   UNK N   1      31.195  16.778   4.774  0.00  0.00     0.240 C 
HETATM   14  O   UNK N   1      31.625  17.760   4.183  0.00  0.00    -0.271 OA
HETATM   15  N   UNK N   1      30.260  15.992   4.187  0.00  0.00    -0.364 N 
HETATM   16  C   UNK N   1      29.718  16.307   2.888  0.00  0.00     0.149 C 
HETATM   17  H   UNK N   1      29.942  15.187   4.659  0.00  0.00     0.161 HD
ENDBRANCH   7  13
BRANCH  11  18
HETATM   18  O   UNK N   1      29.139  17.684   6.319  0.00  0.00    -0.299 OA
BRANCH  18  19
HETATM   19  C   UNK N   1      27.775  17.494   6.337  0.00  0.00     0.219 C 
BRANCH  19  20
HETATM   20  C   UNK N   1      27.135  18.316   5.270  0.00  0.00    -0.034 A 
HETATM   21  C   UNK N   1      26.030  17.816   4.576  0.00  0.00     0.009 A 
HETATM   22  C   UNK N   1      25.420  18.589   3.583  0.00  0.00     0.001 A 
HETATM   23  C   UNK N   1      25.922  19.858   3.276  0.00  0.00     0.000 A 
HETATM   24  C   UNK N   1      27.029  20.358   3.967  0.00  0.00     0.001 A 
HETATM   25  C   UNK N   1      27.630  19.592   4.968  0.00  0.00     0.009 A 
ENDBRANCH  19  20
ENDBRANCH  18  19
ENDBRANCH  11  18
BRANCH   1  26
HETATM   26  N   UNK N   1      34.659  13.486  11.067  0.00  0.00    -0.273 N 
HETATM   27  H   UNK N   1      34.636  12.557  11.394  0.00  0.00     0.180 HD
BRANCH  26  28
HETATM   28  S   UNK N   1      35.599  14.674  11.966  0.00  0.00     0.199 S 
HETATM   29  O   UNK N   1      34.950  13.802  13.054  0.00  0.00    -0.585 OA
HETATM   30  O   UNK N   1      36.607  13.767  11.246  0.00  0.00    -0.585 OA
BRANCH  28  31
HETATM   31  O   UNK N   1      36.809  14.167  13.071  0.00  0.00    -0.279 OA
HETATM   32  H   UNK N   1      37.760  14.027  12.937  0.00  0.00     0.234 HD
ENDBRANCH  28  31
ENDBRANCH  26  28
ENDBRANCH   1  26
TORSDOF 7
ENDMDL
MODEL 7
REMARK VINA RESULT:      -6.8      4.493      6.829
REMARK  7 active torsions:
REMARK  status: ('A' for Active; 'I' for Inactive)
REMARK    1  A    between atoms: O_1  and  S_2 
REMARK    2  A    between atoms: S_2  and  N_5 
REMARK    3  A    between atoms: N_5  and  C_6 
REMARK       I    between atoms: N_11  and  C_20 
REMARK    4  A    between atoms: C_12  and  C_13 
REMARK       I    between atoms: C_13  and  N_15 
REMARK    5  A    between atoms: C_20  and  O_22 
REMARK    6  A    between atoms: O_22  and  C_23 
REMARK    7  A    between atoms: C_23  and  C_24 
ROOT
HETATM    1  C   UNK N   1      34.872  11.096  20.023  0.00  0.00     0.044 A 
HETATM    2  C   UNK N   1      34.912  12.497  20.025  0.00  0.00     0.031 A 
HETATM    3  C   UNK N   1      35.090  10.399  18.831  0.00  0.00     0.039 A 
HETATM    4  C   UNK N   1      35.335  11.092  17.641  0.00  0.00    -0.032 A 
HETATM    5  C   UNK N   1      35.554  10.311  16.372  0.00  0.00     0.168 C 
HETATM    6  N   UNK N   1      35.898  11.171  15.248  0.00  0.00    -0.310 N 
HETATM    7  C   UNK N   1      35.155  12.437  15.153  0.00  0.00     0.186 C 
HETATM    8  C   UNK N   1      35.506  13.288  16.374  0.00  0.00     0.074 C 
HETATM    9  C   UNK N   1      35.336  12.505  17.643  0.00  0.00    -0.048 A 
HETATM   10  C   UNK N   1      35.138  13.197  18.839  0.00  0.00     0.010 A 
HETATM   11  C   UNK N   1      36.858  10.734  14.369  0.00  0.00     0.364 C 
HETATM   12  O   UNK N   1      37.377   9.635  14.540  0.00  0.00    -0.238 OA
ENDROOT
BRANCH   7  13
HETATM   13  C   UNK N   1      35.270  13.272  13.892  0.00  0.00     0.240 C 
HETATM   14  O   UNK N   1      34.501  13.051  12.965  0.00  0.00    -0.271 OA
HETATM   15  N   UNK N   1      36.151  14.299  13.810  0.00  0.00    -0.364 N 
HETATM   16  C   UNK N   1      36.241  15.121  12.628  0.00  0.00     0.149 C 
HETATM   17  H   UNK N   1      36.744  14.486  14.573  0.00  0.00     0.161 HD
ENDBRANCH   7  13
BRANCH  11  18
HETATM   18  O   UNK N   1      37.256  11.493  13.324  0.00  0.00    -0.299 OA
BRANCH  18  19
HETATM   19  C   UNK N   1      37.589  10.952  12.102  0.00  0.00     0.219 C 
BRANCH  19  20
HETATM   20  C   UNK N   1      37.428  11.979  11.033  0.00  0.00    -0.034 A 
HETATM   21  C   UNK N   1      38.464  12.881  10.774  0.00  0.00     0.009 A 
HETATM   22  C   UNK N   1      38.321  13.839   9.764  0.00  0.00     0.001 A 
HETATM   23  C   UNK N   1      37.138  13.902   9.021  0.00  0.00     0.000 A 
HETATM   24  C   UNK N   1      36.100  13.003   9.282  0.00  0.00     0.001 A 
HETATM   25  C   UNK N   1      36.247  12.038  10.280  0.00  0.00     0.009 A 
ENDBRANCH  19  20
ENDBRANCH  18  19
ENDBRANCH  11  18
BRANCH   1  26
HETATM   26  N   UNK N   1      34.581  10.377  21.212  0.00  0.00    -0.273 N 
HETATM   27  H   UNK N   1      35.250   9.738  21.553  0.00  0.00     0.180 HD
BRANCH  26  28
HETATM   28  S   UNK N   1      33.075  10.577  22.103  0.00  0.00     0.199 S 
HETATM   29  O   UNK N   1      32.767   9.470  21.082  0.00  0.00    -0.585 OA
HETATM   30  O   UNK N   1      34.091   9.974  23.084  0.00  0.00    -0.585 OA
BRANCH  28  31
HETATM   31  O   UNK N   1      32.366   9.245  22.920  0.00  0.00    -0.279 OA
HETATM   32  H   UNK N   1      32.010   8.413  22.570  0.00  0.00     0.234 HD
ENDBRANCH  28  31
ENDBRANCH  26  28
ENDBRANCH   1  26
TORSDOF 7
ENDMDL
MODEL 8
REMARK VINA RESULT:      -6.7      5.099      9.442
REMARK  7 active torsions:
REMARK  status: ('A' for Active; 'I' for Inactive)
REMARK    1  A    between atoms: O_1  and  S_2 
REMARK    2  A    between atoms: S_2  and  N_5 
REMARK    3  A    between atoms: N_5  and  C_6 
REMARK       I    between atoms: N_11  and  C_20 
REMARK    4  A    between atoms: C_12  and  C_13 
REMARK       I    between atoms: C_13  and  N_15 
REMARK    5  A    between atoms: C_20  and  O_22 
REMARK    6  A    between atoms: O_22  and  C_23 
REMARK    7  A    between atoms: C_23  and  C_24 
ROOT
HETATM    1  C   UNK N   1      28.382  17.651   6.046  0.00  0.00     0.044 A 
HETATM    2  C   UNK N   1      28.243  17.625   7.440  0.00  0.00     0.031 A 
HETATM    3  C   UNK N   1      29.650  17.505   5.474  0.00  0.00     0.039 A 
HETATM    4  C   UNK N   1      30.777  17.347   6.285  0.00  0.00    -0.032 A 
HETATM    5  C   UNK N   1      32.130  17.205   5.639  0.00  0.00     0.168 C 
HETATM    6  N   UNK N   1      33.183  16.945   6.612  0.00  0.00    -0.310 N 
HETATM    7  C   UNK N   1      33.101  17.706   7.867  0.00  0.00     0.186 C 
HETATM    8  C   UNK N   1      31.827  17.285   8.599  0.00  0.00     0.074 C 
HETATM    9  C   UNK N   1      30.634  17.362   7.692  0.00  0.00    -0.048 A 
HETATM   10  C   UNK N   1      29.365  17.487   8.257  0.00  0.00     0.010 A 
HETATM   11  C   UNK N   1      34.162  16.041   6.281  0.00  0.00     0.364 C 
HETATM   12  O   UNK N   1      34.135  15.500   5.179  0.00  0.00    -0.238 OA
ENDROOT
BRANCH   7  13
HETATM   13  C   UNK N   1      34.277  17.685   8.825  0.00  0.00     0.240 C 
HETATM   14  O   UNK N   1      35.162  18.521   8.693  0.00  0.00    -0.271 OA
HETATM   15  N   UNK N   1      34.321  16.811   9.860  0.00  0.00    -0.364 N 
HETATM   16  C   UNK N   1      35.418  16.809  10.797  0.00  0.00     0.149 C 
HETATM   17  H   UNK N   1      33.589  16.163   9.975  0.00  0.00     0.161 HD
ENDBRANCH   7  13
BRANCH  11  18
HETATM   18  O   UNK N   1      35.149  15.722   7.146  0.00  0.00    -0.299 OA
BRANCH  18  19
HETATM   19  C   UNK N   1      35.813  14.516   7.099  0.00  0.00     0.219 C 
BRANCH  19  20
HETATM   20  C   UNK N   1      35.971  13.971   8.477  0.00  0.00    -0.034 A 
HETATM   21  C   UNK N   1      34.879  13.377   9.119  0.00  0.00     0.009 A 
HETATM   22  C   UNK N   1      35.027  12.855  10.408  0.00  0.00     0.001 A 
HETATM   23  C   UNK N   1      36.261  12.935  11.060  0.00  0.00     0.000 A 
HETATM   24  C   UNK N   1      37.352  13.531  10.421  0.00  0.00     0.001 A 
HETATM   25  C   UNK N   1      37.210  14.041   9.129  0.00  0.00     0.009 A 
ENDBRANCH  19  20
ENDBRANCH  18  19
ENDBRANCH  11  18
BRANCH   1  26
HETATM   26  N   UNK N   1      27.255  17.854   5.207  0.00  0.00    -0.273 N 
HETATM   27  H   UNK N   1      27.033  18.772   4.927  0.00  0.00     0.180 HD
BRANCH  26  28
HETATM   28  S   UNK N   1      26.234  16.532   4.645  0.00  0.00     0.199 S 
HETATM   29  O   UNK N   1      25.239  17.619   5.086  0.00  0.00    -0.585 OA
HETATM   30  O   UNK N   1      26.950  17.094   3.408  0.00  0.00    -0.585 OA
BRANCH  28  31
HETATM   31  O   UNK N   1      25.095  16.789   3.388  0.00  0.00    -0.279 OA
HETATM   32  H   UNK N   1      24.149  16.574   3.347  0.00  0.00     0.234 HD
ENDBRANCH  28  31
ENDBRANCH  26  28
ENDBRANCH   1  26
TORSDOF 7
ENDMDL
MODEL 9
REMARK VINA RESULT:      -6.5      3.921      9.056
REMARK  7 active torsions:
REMARK  status: ('A' for Active; 'I' for Inactive)
REMARK    1  A    between atoms: O_1  and  S_2 
REMARK    2  A    between atoms: S_2  and  N_5 
REMARK    3  A    between atoms: N_5  and  C_6 
REMARK       I    between atoms: N_11  and  C_20 
REMARK    4  A    between atoms: C_12  and  C_13 
REMARK       I    between atoms: C_13  and  N_15 
REMARK    5  A    between atoms: C_20  and  O_22 
REMARK    6  A    between atoms: O_22  and  C_23 
REMARK    7  A    between atoms: C_23  and  C_24 
ROOT
HETATM    1  C   UNK N   1      35.274  14.923   6.647  0.00  0.00     0.044 A 
HETATM    2  C   UNK N   1      36.377  14.123   6.323  0.00  0.00     0.031 A 
HETATM    3  C   UNK N   1      34.685  14.812   7.911  0.00  0.00     0.039 A 
HETATM    4  C   UNK N   1      35.183  13.898   8.845  0.00  0.00    -0.032 A 
HETATM    5  C   UNK N   1      34.518  13.794  10.192  0.00  0.00     0.168 C 
HETATM    6  N   UNK N   1      35.217  12.877  11.083  0.00  0.00    -0.310 N 
HETATM    7  C   UNK N   1      35.716  11.638  10.468  0.00  0.00     0.186 C 
HETATM    8  C   UNK N   1      36.780  12.012   9.436  0.00  0.00     0.074 C 
HETATM    9  C   UNK N   1      36.272  13.067   8.497  0.00  0.00    -0.048 A 
HETATM   10  C   UNK N   1      36.869  13.196   7.243  0.00  0.00     0.010 A 
HETATM   11  C   UNK N   1      35.336  13.225  12.406  0.00  0.00     0.364 C 
HETATM   12  O   UNK N   1      34.839  14.275  12.800  0.00  0.00    -0.238 OA
ENDROOT
BRANCH   7  13
HETATM   13  C   UNK N   1      36.232  10.524  11.359  0.00  0.00     0.240 C 
HETATM   14  O   UNK N   1      35.466   9.626  11.686  0.00  0.00    -0.271 OA
HETATM   15  N   UNK N   1      37.534  10.470  11.730  0.00  0.00    -0.364 N 
HETATM   16  C   UNK N   1      38.041   9.394  12.547  0.00  0.00     0.149 C 
HETATM   17  H   UNK N   1      38.149  11.181  11.436  0.00  0.00     0.161 HD
ENDBRANCH   7  13
BRANCH  11  18
HETATM   18  O   UNK N   1      36.002  12.442  13.283  0.00  0.00    -0.299 OA
BRANCH  18  19
HETATM   19  C   UNK N   1      36.762  12.961  14.308  0.00  0.00     0.219 C 
BRANCH  19  20
HETATM   20  C   UNK N   1      36.244  12.475  15.619  0.00  0.00    -0.034 A 
HETATM   21  C   UNK N   1      35.593  13.362  16.481  0.00  0.00     0.009 A 
HETATM   22  C   UNK N   1      35.096  12.907  17.706  0.00  0.00     0.001 A 
HETATM   23  C   UNK N   1      35.259  11.568  18.075  0.00  0.00     0.000 A 
HETATM   24  C   UNK N   1      35.913  10.681  17.216  0.00  0.00     0.001 A 
HETATM   25  C   UNK N   1      36.398  11.131  15.986  0.00  0.00     0.009 A 
ENDBRANCH  19  20
ENDBRANCH  18  19
ENDBRANCH  11  18
BRANCH   1  26
HETATM   26  N   UNK N   1      34.727  15.825   5.696  0.00  0.00    -0.273 N 
HETATM   27  H   UNK N   1      35.261  16.054   4.901  0.00  0.00     0.180 HD
BRANCH  26  28
HETATM   28  S   UNK N   1      33.133  16.553   5.880  0.00  0.00     0.199 S 
HETATM   29  O   UNK N   1      34.108  17.736   6.006  0.00  0.00    -0.585 OA
HETATM   30  O   UNK N   1      33.236  16.077   4.424  0.00  0.00    -0.585 OA
BRANCH  28  31
HETATM   31  O   UNK N   1      32.626  17.809   4.827  0.00  0.00    -0.279 OA
HETATM   32  H   UNK N   1      32.946  18.720   4.740  0.00  0.00     0.234 HD
ENDBRANCH  28  31
ENDBRANCH  26  28
ENDBRANCH   1  26
TORSDOF 7
ENDMDL
