REMARK  0 active torsions:
REMARK  status: ('A' for Active; 'I' for Inactive)
ROOT
HETATM    1 Cl   UNK N   1      -0.130   3.202   0.061  0.00  0.00    -0.082 Cl
HETATM    2  C   UNK N   1      -0.136   1.437   0.041  0.00  0.00     0.064 A 
HETATM    3  C   UNK N   1       1.080   0.724   0.028  0.00  0.00    -0.011 A 
HETATM    4  C   UNK N   1       2.398   1.461   0.044  0.00  0.00     0.155 C 
HETATM    5  N   UNK N   1       3.514   0.619  -0.395  0.00  0.00    -0.417 N 
HETATM    6  C   UNK N   1       3.530  -0.609   0.390  0.00  0.00     0.118 C 
HETATM    7  C   UNK N   1       2.335  -1.480   0.015  0.00  0.00     0.058 C 
HETATM    8  C   UNK N   1       1.061  -0.688   0.009  0.00  0.00    -0.047 A 
HETATM    9  C   UNK N   1      -0.157  -1.368  -0.007  0.00  0.00     0.009 A 
HETATM   10  C   UNK N   1      -1.359  -0.661   0.008  0.00  0.00     0.026 A 
HETATM   11  C   UNK N   1      -1.356   0.736   0.033  0.00  0.00     0.056 A 
HETATM   12 Cl   UNK N   1      -2.896   1.580   0.052  0.00  0.00    -0.083 Cl
HETATM   13  H   UNK N   1       4.176   0.856  -1.134  0.00  0.00     0.153 HD
ENDROOT
TORSDOF 0
