MODEL 1
REMARK VINA RESULT:      -5.0      0.000      0.000
REMARK  0 active torsions:
REMARK  status: ('A' for Active; 'I' for Inactive)
ROOT
HETATM    1 Cl   UNK N   1      20.511  12.330  11.354  0.00  0.00    -0.082 Cl
HETATM    2  C   UNK N   1      22.147  12.443  10.700  0.00  0.00     0.064 A 
HETATM    3  C   UNK N   1      22.349  12.809   9.354  0.00  0.00    -0.011 A 
HETATM    4  C   UNK N   1      21.171  13.119   8.462  0.00  0.00     0.155 C 
HETATM    5  N   UNK N   1      21.517  13.059   7.039  0.00  0.00    -0.417 N 
HETATM    6  C   UNK N   1      22.672  13.910   6.787  0.00  0.00     0.118 C 
HETATM    7  C   UNK N   1      23.917  13.298   7.421  0.00  0.00     0.058 C 
HETATM    8  C   UNK N   1      23.663  12.892   8.843  0.00  0.00    -0.047 A 
HETATM    9  C   UNK N   1      24.751  12.604   9.668  0.00  0.00     0.009 A 
HETATM   10  C   UNK N   1      24.549  12.245  11.000  0.00  0.00     0.026 A 
HETATM   11  C   UNK N   1      23.255  12.163  11.521  0.00  0.00     0.056 A 
HETATM   12 Cl   UNK N   1      23.054  11.707  13.205  0.00  0.00    -0.083 Cl
HETATM   13  H   UNK N   1      21.025  12.507   6.336  0.00  0.00     0.153 HD
ENDROOT
TORSDOF 0
ENDMDL
MODEL 2
REMARK VINA RESULT:      -5.0      8.999      9.962
REMARK  0 active torsions:
REMARK  status: ('A' for Active; 'I' for Inactive)
ROOT
HETATM    1 Cl   UNK N   1      29.928  16.684   4.440  0.00  0.00    -0.082 Cl
HETATM    2  C   UNK N   1      30.664  17.131   5.981  0.00  0.00     0.064 A 
HETATM    3  C   UNK N   1      29.851  17.449   7.088  0.00  0.00    -0.011 A 
HETATM    4  C   UNK N   1      28.346  17.398   6.972  0.00  0.00     0.155 C 
HETATM    5  N   UNK N   1      27.678  18.147   8.039  0.00  0.00    -0.417 N 
HETATM    6  C   UNK N   1      28.172  17.691   9.332  0.00  0.00     0.118 C 
HETATM    7  C   UNK N   1      29.620  18.134   9.520  0.00  0.00     0.058 C 
HETATM    8  C   UNK N   1      30.452  17.809   8.315  0.00  0.00    -0.047 A 
HETATM    9  C   UNK N   1      31.842  17.857   8.421  0.00  0.00     0.009 A 
HETATM   10  C   UNK N   1      32.644  17.540   7.326  0.00  0.00     0.026 A 
HETATM   11  C   UNK N   1      32.064  17.177   6.108  0.00  0.00     0.056 A 
HETATM   12 Cl   UNK N   1      33.117  16.786   4.758  0.00  0.00    -0.083 Cl
HETATM   13  H   UNK N   1      26.976  18.874   7.898  0.00  0.00     0.153 HD
ENDROOT
TORSDOF 0
ENDMDL
MODEL 3
REMARK VINA RESULT:      -4.9     10.085     11.304
REMARK  0 active torsions:
REMARK  status: ('A' for Active; 'I' for Inactive)
ROOT
HETATM    1 Cl   UNK N   1      29.058  16.122   5.867  0.00  0.00    -0.082 Cl
HETATM    2  C   UNK N   1      30.684  16.691   5.482  0.00  0.00     0.064 A 
HETATM    3  C   UNK N   1      31.587  17.012   6.516  0.00  0.00    -0.011 A 
HETATM    4  C   UNK N   1      31.178  16.860   7.961  0.00  0.00     0.155 C 
HETATM    5  N   UNK N   1      32.043  17.618   8.869  0.00  0.00    -0.417 N 
HETATM    6  C   UNK N   1      33.434  17.258   8.622  0.00  0.00     0.118 C 
HETATM    7  C   UNK N   1      33.877  17.800   7.267  0.00  0.00     0.058 C 
HETATM    8  C   UNK N   1      32.884  17.468   6.193  0.00  0.00    -0.047 A 
HETATM    9  C   UNK N   1      33.260  17.609   4.857  0.00  0.00     0.009 A 
HETATM   10  C   UNK N   1      32.367  17.289   3.836  0.00  0.00     0.026 A 
HETATM   11  C   UNK N   1      31.082  16.830   4.139  0.00  0.00     0.056 A 
HETATM   12 Cl   UNK N   1      29.995  16.440   2.817  0.00  0.00    -0.083 Cl
HETATM   13  H   UNK N   1      31.722  18.291   9.565  0.00  0.00     0.153 HD
ENDROOT
TORSDOF 0
ENDMDL
MODEL 4
REMARK VINA RESULT:      -4.8     14.725     15.122
REMARK  0 active torsions:
REMARK  status: ('A' for Active; 'I' for Inactive)
ROOT
HETATM    1 Cl   UNK N   1      36.599   9.147  17.126  0.00  0.00    -0.082 Cl
HETATM    2  C   UNK N   1      36.120  10.844  17.027  0.00  0.00     0.064 A 
HETATM    3  C   UNK N   1      36.421  11.599  15.876  0.00  0.00    -0.011 A 
HETATM    4  C   UNK N   1      37.143  10.963  14.712  0.00  0.00     0.155 C 
HETATM    5  N   UNK N   1      37.739  11.957  13.815  0.00  0.00    -0.417 N 
HETATM    6  C   UNK N   1      36.717  12.913  13.407  0.00  0.00     0.118 C 
HETATM    7  C   UNK N   1      36.320  13.785  14.594  0.00  0.00     0.058 C 
HETATM    8  C   UNK N   1      36.035  12.956  15.811  0.00  0.00    -0.047 A 
HETATM    9  C   UNK N   1      35.369  13.543  16.887  0.00  0.00     0.009 A 
HETATM   10  C   UNK N   1      35.070  12.793  18.025  0.00  0.00     0.026 A 
HETATM   11  C   UNK N   1      35.440  11.448  18.101  0.00  0.00     0.056 A 
HETATM   12 Cl   UNK N   1      35.041  10.547  19.554  0.00  0.00    -0.083 Cl
HETATM   13  H   UNK N   1      38.715  11.975  13.521  0.00  0.00     0.153 HD
ENDROOT
TORSDOF 0
ENDMDL
MODEL 5
REMARK VINA RESULT:      -4.7     10.311     11.562
REMARK  0 active torsions:
REMARK  status: ('A' for Active; 'I' for Inactive)
ROOT
HETATM    1 Cl   UNK N   1      32.582  16.832   3.023  0.00  0.00    -0.082 Cl
HETATM    2  C   UNK N   1      31.609  16.969   4.489  0.00  0.00     0.064 A 
HETATM    3  C   UNK N   1      32.227  17.226   5.729  0.00  0.00    -0.011 A 
HETATM    4  C   UNK N   1      33.725  17.399   5.815  0.00  0.00     0.155 C 
HETATM    5  N   UNK N   1      34.230  17.233   7.180  0.00  0.00    -0.417 N 
HETATM    6  C   UNK N   1      33.495  18.115   8.078  0.00  0.00     0.118 C 
HETATM    7  C   UNK N   1      32.059  17.623   8.229  0.00  0.00     0.058 C 
HETATM    8  C   UNK N   1      31.437  17.330   6.895  0.00  0.00    -0.047 A 
HETATM    9  C   UNK N   1      30.054  17.169   6.816  0.00  0.00     0.009 A 
HETATM   10  C   UNK N   1      29.443  16.917   5.587  0.00  0.00     0.026 A 
HETATM   11  C   UNK N   1      30.211  16.818   4.424  0.00  0.00     0.056 A 
HETATM   12 Cl   UNK N   1      29.395  16.500   2.902  0.00  0.00    -0.083 Cl
HETATM   13  H   UNK N   1      34.978  16.598   7.459  0.00  0.00     0.153 HD
ENDROOT
TORSDOF 0
ENDMDL
MODEL 6
REMARK VINA RESULT:      -4.7     21.472     22.648
REMARK  0 active torsions:
REMARK  status: ('A' for Active; 'I' for Inactive)
ROOT
HETATM    1 Cl   UNK N   1      28.197  27.633  -8.317  0.00  0.00    -0.082 Cl
HETATM    2  C   UNK N   1      27.073  27.616  -6.957  0.00  0.00     0.064 A 
HETATM    3  C   UNK N   1      27.190  28.573  -5.928  0.00  0.00    -0.011 A 
HETATM    4  C   UNK N   1      28.268  29.629  -5.986  0.00  0.00     0.155 C 
HETATM    5  N   UNK N   1      28.515  30.247  -4.681  0.00  0.00    -0.417 N 
HETATM    6  C   UNK N   1      27.256  30.738  -4.134  0.00  0.00     0.118 C 
HETATM    7  C   UNK N   1      26.368  29.562  -3.742  0.00  0.00     0.058 C 
HETATM    8  C   UNK N   1      26.286  28.547  -4.844  0.00  0.00    -0.047 A 
HETATM    9  C   UNK N   1      25.290  27.571  -4.790  0.00  0.00     0.009 A 
HETATM   10  C   UNK N   1      25.175  26.626  -5.810  0.00  0.00     0.026 A 
HETATM   11  C   UNK N   1      26.058  26.643  -6.892  0.00  0.00     0.056 A 
HETATM   12 Cl   UNK N   1      25.870  25.433  -8.150  0.00  0.00    -0.083 Cl
HETATM   13  H   UNK N   1      29.425  30.323  -4.228  0.00  0.00     0.153 HD
ENDROOT
TORSDOF 0
ENDMDL
MODEL 7
REMARK VINA RESULT:      -4.7     13.332     14.148
REMARK  0 active torsions:
REMARK  status: ('A' for Active; 'I' for Inactive)
ROOT
HETATM    1 Cl   UNK N   1      35.621  14.135  17.540  0.00  0.00    -0.082 Cl
HETATM    2  C   UNK N   1      35.294  12.427  17.237  0.00  0.00     0.064 A 
HETATM    3  C   UNK N   1      35.079  11.969  15.922  0.00  0.00    -0.011 A 
HETATM    4  C   UNK N   1      35.139  12.930  14.758  0.00  0.00     0.155 C 
HETATM    5  N   UNK N   1      34.490  12.395  13.559  0.00  0.00    -0.417 N 
HETATM    6  C   UNK N   1      35.046  11.083  13.253  0.00  0.00     0.118 C 
HETATM    7  C   UNK N   1      34.602  10.073  14.306  0.00  0.00     0.058 C 
HETATM    8  C   UNK N   1      34.816  10.600  15.694  0.00  0.00    -0.047 A 
HETATM    9  C   UNK N   1      34.759   9.713  16.770  0.00  0.00     0.009 A 
HETATM   10  C   UNK N   1      34.974  10.169  18.070  0.00  0.00     0.026 A 
HETATM   11  C   UNK N   1      35.242  11.519  18.310  0.00  0.00     0.056 A 
HETATM   12 Cl   UNK N   1      35.506  12.042  19.966  0.00  0.00    -0.083 Cl
HETATM   13  H   UNK N   1      33.763  12.868  13.022  0.00  0.00     0.153 HD
ENDROOT
TORSDOF 0
ENDMDL
MODEL 8
REMARK VINA RESULT:      -4.6     12.213     12.907
REMARK  0 active torsions:
REMARK  status: ('A' for Active; 'I' for Inactive)
ROOT
HETATM    1 Cl   UNK N   1      36.260  14.379  14.141  0.00  0.00    -0.082 Cl
HETATM    2  C   UNK N   1      35.338  12.884  14.318  0.00  0.00     0.064 A 
HETATM    3  C   UNK N   1      34.925  12.167  13.177  0.00  0.00    -0.011 A 
HETATM    4  C   UNK N   1      35.277  12.662  11.794  0.00  0.00     0.155 C 
HETATM    5  N   UNK N   1      34.435  12.063  10.755  0.00  0.00    -0.417 N 
HETATM    6  C   UNK N   1      34.478  10.611  10.877  0.00  0.00     0.118 C 
HETATM    7  C   UNK N   1      33.745  10.175  12.141  0.00  0.00     0.058 C 
HETATM    8  C   UNK N   1      34.184  10.975  13.332  0.00  0.00    -0.047 A 
HETATM    9  C   UNK N   1      33.858  10.519  14.610  0.00  0.00     0.009 A 
HETATM   10  C   UNK N   1      34.269  11.229  15.737  0.00  0.00     0.026 A 
HETATM   11  C   UNK N   1      35.008  12.407  15.600  0.00  0.00     0.056 A 
HETATM   12 Cl   UNK N   1      35.503  13.264  17.050  0.00  0.00    -0.083 Cl
HETATM   13  H   UNK N   1      33.903  12.582  10.056  0.00  0.00     0.153 HD
ENDROOT
TORSDOF 0
ENDMDL
MODEL 9
REMARK VINA RESULT:      -4.5     18.434     18.865
REMARK  0 active torsions:
REMARK  status: ('A' for Active; 'I' for Inactive)
ROOT
HETATM    1 Cl   UNK N   1      29.632  20.869  -6.674  0.00  0.00    -0.082 Cl
HETATM    2  C   UNK N   1      30.223  21.620  -5.190  0.00  0.00     0.064 A 
HETATM    3  C   UNK N   1      31.369  21.113  -4.547  0.00  0.00    -0.011 A 
HETATM    4  C   UNK N   1      32.110  19.931  -5.126  0.00  0.00     0.155 C 
HETATM    5  N   UNK N   1      32.985  19.284  -4.144  0.00  0.00    -0.417 N 
HETATM    6  C   UNK N   1      33.865  20.283  -3.549  0.00  0.00     0.118 C 
HETATM    7  C   UNK N   1      33.058  21.220  -2.657  0.00  0.00     0.058 C 
HETATM    8  C   UNK N   1      31.830  21.721  -3.358  0.00  0.00    -0.047 A 
HETATM    9  C   UNK N   1      31.144  22.811  -2.823  0.00  0.00     0.009 A 
HETATM   10  C   UNK N   1      30.011  23.314  -3.462  0.00  0.00     0.026 A 
HETATM   11  C   UNK N   1      29.547  22.726  -4.642  0.00  0.00     0.056 A 
HETATM   12 Cl   UNK N   1      28.116  23.396  -5.410  0.00  0.00    -0.083 Cl
HETATM   13  H   UNK N   1      32.978  18.291  -3.913  0.00  0.00     0.153 HD
ENDROOT
TORSDOF 0
ENDMDL
