REMARK  7 active torsions:
REMARK  status: ('A' for Active; 'I' for Inactive)
REMARK    1  A    between atoms: C_5  and  C_6 
REMARK    2  A    between atoms: C_6  and  C_7 
REMARK       I    between atoms: C_7  and  N_9 
REMARK    3  A    between atoms: N_9  and  C_10 
REMARK    4  A    between atoms: C_10  and  B_11 
REMARK    5  A    between atoms: C_10  and  C_14 
REMARK    6  A    between atoms: B_11  and  O_12 
REMARK    7  A    between atoms: B_11  and  O_13 
ROOT
HETATM    1  C   UNK N   1       1.232   0.448  -0.288  0.00  0.00     0.143 C 
ENDROOT
BRANCH   1   2
HETATM    2  N   UNK N   1      -0.170   0.353   0.090  0.00  0.00    -0.355 N 
HETATM    3  C   UNK N   1      -1.004  -0.693  -0.113  0.00  0.00     0.222 C 
HETATM    4  O   UNK N   1      -0.618  -1.704  -0.686  0.00  0.00    -0.273 OA
HETATM    5  H   UNK N   1      -0.554   1.138   0.544  0.00  0.00     0.162 HD
BRANCH   3   6
HETATM    6  C   UNK N   1      -2.432  -0.539   0.334  0.00  0.00     0.148 C 
BRANCH   6   7
HETATM    7  C   UNK N   1      -3.370  -1.690   0.134  0.00  0.00    -0.009 A 
HETATM    8  C   UNK N   1      -3.069  -3.040  -0.041  0.00  0.00     0.015 A 
HETATM    9  C   UNK N   1      -4.234  -3.853  -0.158  0.00  0.00     0.008 A 
HETATM   10  C   UNK N   1      -5.440  -3.142  -0.068  0.00  0.00     0.050 A 
HETATM   11  S   UNK N   1      -5.014  -1.555   0.154  0.00  0.00    -0.106 SA
ENDBRANCH   6   7
ENDBRANCH   3   6
ENDBRANCH   1   2
BRANCH   1  12
HETATM   12  B   UNK N   1       2.148  -0.556   0.593  0.00  0.00     0.519 B 
BRANCH  12  13
HETATM   13  O   UNK N   1       3.595  -0.355   0.547  0.00  0.00    -0.436 OA
HETATM   14  H   UNK N   1       4.191  -1.120   0.517  0.00  0.00     0.184 HD
ENDBRANCH  12  13
BRANCH  12  15
HETATM   15  O   UNK N   1       1.694  -1.936   0.738  0.00  0.00    -0.436 OA
HETATM   16  H   UNK N   1       0.749  -2.133   0.835  0.00  0.00     0.184 HD
ENDBRANCH  12  15
ENDBRANCH   1  12
BRANCH   1  17
HETATM   17  C   UNK N   1       1.673   1.895  -0.116  0.00  0.00    -0.039 A 
HETATM   18  C   UNK N   1       0.766   2.871   0.345  0.00  0.00     0.008 A 
HETATM   19  C   UNK N   1       1.156   4.204   0.481  0.00  0.00     0.001 A 
HETATM   20  C   UNK N   1       2.460   4.583   0.162  0.00  0.00     0.000 A 
HETATM   21  C   UNK N   1       3.372   3.629  -0.299  0.00  0.00     0.001 A 
HETATM   22  C   UNK N   1       2.979   2.294  -0.446  0.00  0.00     0.008 A 
ENDBRANCH   1  17
TORSDOF 7
