MODEL 1
REMARK VINA RESULT:      -8.2      0.000      0.000
REMARK  4 active torsions:
REMARK  status: ('A' for Active; 'I' for Inactive)
REMARK    1  A    between atoms: N_2  and  C_1 
REMARK    2  A    between atoms: C_18  and  C_5 
REMARK    3  A    between atoms: C_17  and  C_21 
REMARK    4  A    between atoms: N_29  and  O_31 
ROOT
HETATM    1  N   UNK N   1      33.773  14.870   8.797  0.00  0.00    -0.297 N 
HETATM    2  N   UNK N   1      34.026  14.900   7.501  0.00  0.00    -0.297 N 
ATOM      3  HN  UNK N   1      34.835  14.479   7.045  1.00  0.00     0.187 HD
HETATM    4  C   UNK N   1      32.632  15.537   9.061  0.00  0.00     0.125 A 
HETATM    5  C   UNK N   1      32.130  16.025   7.861  0.00  0.00     0.020 A 
HETATM    6  C   UNK N   1      33.042  15.578   6.878  0.00  0.00     0.071 A 
ENDROOT
BRANCH   5   7
HETATM    7  C   UNK N   1      30.908  16.882   7.794  0.00  0.00    -0.022 A 
HETATM    8  C   UNK N   1      30.480  17.581   8.950  0.00  0.00     0.013 A 
HETATM    9  C   UNK N   1      29.368  18.441   8.901  0.00  0.00     0.015 A 
HETATM   10  C   UNK N   1      28.706  18.594   7.684  0.00  0.00    -0.005 A 
HETATM   11  C   UNK N   1      29.109  17.932   6.566  0.00  0.00    -0.045 A 
HETATM   12  C   UNK N   1      27.569  19.407   7.358  0.00  0.00     0.043 A 
HETATM   13  C   UNK N   1      30.204  17.077   6.596  0.00  0.00     0.020 A 
HETATM   14  C   UNK N   1      28.263  18.248   5.371  0.00  0.00     0.045 A 
HETATM   15  C   UNK N   1      27.208  19.257   5.909  0.00  0.00     0.064 A 
HETATM   16  N   UNK N   1      26.954  20.163   8.197  0.00  0.00    -0.273 N 
ATOM     17  HN  UNK N   1      27.271  20.205   9.165  1.00  0.00     0.194 HD
BRANCH  16  18
HETATM   18  O   UNK N   1      25.920  20.884   7.818  0.00  0.00    -0.290 OA
HETATM   19  H   UNK N   1      25.351  20.570   7.143  0.00  0.00     0.244 HD
ENDBRANCH  16  18
ENDBRANCH   5   7
BRANCH   6  20
HETATM   20  C   UNK N   1      33.067  15.725   5.394  0.00  0.00    -0.004 A 
HETATM   21  C   UNK N   1      33.023  16.961   4.748  0.00  0.00     0.030 A 
HETATM   22  C   UNK N   1      33.021  17.030   3.354  0.00  0.00     0.088 A 
HETATM   23  N   UNK N   1      33.053  15.889   2.617  0.00  0.00    -0.375 N 
HETATM   24  C   UNK N   1      33.085  14.668   3.212  0.00  0.00     0.088 A 
ATOM     25  HN  UNK N   1      33.054  15.950   1.599  1.00  0.00     0.164 HD
HETATM   26  C   UNK N   1      33.088  14.566   4.604  0.00  0.00     0.030 A 
ENDBRANCH   6  20
BRANCH   1  27
HETATM   27  C   UNK N   1      34.677  14.244   9.766  0.00  0.00     0.110 C 
HETATM   28  C   UNK N   1      34.444  14.788  11.172  0.00  0.00     0.046 C 
HETATM   29  C   UNK N   1      35.370  14.053  12.136  0.00  0.00     0.115 C 
HETATM   30  N   UNK N   1      36.763  14.305  11.770  0.00  0.00    -0.421 N 
HETATM   31  C   UNK N   1      37.022  13.727  10.451  0.00  0.00     0.115 C 
HETATM   32  H   UNK N   1      37.445  14.804  12.343  0.00  0.00     0.153 HD
HETATM   33  C   UNK N   1      36.154  14.401   9.388  0.00  0.00     0.046 C 
ENDBRANCH   1  27
TORSDOF 4
ENDMDL
MODEL 2
REMARK VINA RESULT:      -7.9      3.771      8.552
REMARK  4 active torsions:
REMARK  status: ('A' for Active; 'I' for Inactive)
REMARK    1  A    between atoms: N_2  and  C_1 
REMARK    2  A    between atoms: C_18  and  C_5 
REMARK    3  A    between atoms: C_17  and  C_21 
REMARK    4  A    between atoms: N_29  and  O_31 
ROOT
HETATM    1  N   UNK N   1      26.333  18.191   4.601  0.00  0.00    -0.297 N 
HETATM    2  N   UNK N   1      26.551  17.019   4.031  0.00  0.00    -0.297 N 
ATOM      3  HN  UNK N   1      25.909  16.538   3.402  1.00  0.00     0.187 HD
HETATM    4  C   UNK N   1      27.377  18.525   5.385  0.00  0.00     0.125 A 
HETATM    5  C   UNK N   1      28.315  17.503   5.313  0.00  0.00     0.020 A 
HETATM    6  C   UNK N   1      27.758  16.563   4.418  0.00  0.00     0.071 A 
ENDROOT
BRANCH   5   7
HETATM    7  C   UNK N   1      29.571  17.511   6.123  0.00  0.00    -0.022 A 
HETATM    8  C   UNK N   1      29.491  17.576   7.536  0.00  0.00     0.013 A 
HETATM    9  C   UNK N   1      30.654  17.525   8.326  0.00  0.00     0.015 A 
HETATM   10  C   UNK N   1      31.884  17.399   7.682  0.00  0.00    -0.005 A 
HETATM   11  C   UNK N   1      31.974  17.332   6.326  0.00  0.00    -0.045 A 
HETATM   12  C   UNK N   1      33.203  17.313   8.240  0.00  0.00     0.043 A 
HETATM   13  C   UNK N   1      30.836  17.382   5.530  0.00  0.00     0.020 A 
HETATM   14  C   UNK N   1      33.386  17.191   5.848  0.00  0.00     0.045 A 
HETATM   15  C   UNK N   1      34.230  17.178   7.153  0.00  0.00     0.064 A 
HETATM   16  N   UNK N   1      33.461  17.339   9.499  0.00  0.00    -0.273 N 
ATOM     17  HN  UNK N   1      32.697  17.432  10.169  1.00  0.00     0.194 HD
BRANCH  16  18
HETATM   18  O   UNK N   1      34.700  17.249   9.933  0.00  0.00    -0.290 OA
HETATM   19  H   UNK N   1      35.011  16.445  10.300  0.00  0.00     0.244 HD
ENDBRANCH  16  18
ENDBRANCH   5   7
BRANCH   6  20
HETATM   20  C   UNK N   1      28.267  15.266   3.883  0.00  0.00    -0.004 A 
HETATM   21  C   UNK N   1      28.595  14.181   4.696  0.00  0.00     0.030 A 
HETATM   22  C   UNK N   1      29.094  13.003   4.134  0.00  0.00     0.088 A 
HETATM   23  N   UNK N   1      29.269  12.912   2.790  0.00  0.00    -0.375 N 
HETATM   24  C   UNK N   1      28.970  13.953   1.969  0.00  0.00     0.088 A 
ATOM     25  HN  UNK N   1      29.631  12.047   2.390  1.00  0.00     0.164 HD
HETATM   26  C   UNK N   1      28.470  15.144   2.500  0.00  0.00     0.030 A 
ENDBRANCH   6  20
BRANCH   1  27
HETATM   27  C   UNK N   1      25.086  18.939   4.421  0.00  0.00     0.110 C 
HETATM   28  C   UNK N   1      23.886  18.001   4.326  0.00  0.00     0.046 C 
HETATM   29  C   UNK N   1      22.620  18.844   4.203  0.00  0.00     0.115 C 
HETATM   30  N   UNK N   1      22.677  19.643   2.980  0.00  0.00    -0.421 N 
HETATM   31  C   UNK N   1      23.782  20.598   3.084  0.00  0.00     0.115 C 
HETATM   32  H   UNK N   1      22.048  19.550   2.182  0.00  0.00     0.153 HD
HETATM   33  C   UNK N   1      25.118  19.863   3.199  0.00  0.00     0.046 C 
ENDBRANCH   1  27
TORSDOF 4
ENDMDL
MODEL 3
REMARK VINA RESULT:      -7.8      8.315     11.597
REMARK  4 active torsions:
REMARK  status: ('A' for Active; 'I' for Inactive)
REMARK    1  A    between atoms: N_2  and  C_1 
REMARK    2  A    between atoms: C_18  and  C_5 
REMARK    3  A    between atoms: C_17  and  C_21 
REMARK    4  A    between atoms: N_29  and  O_31 
ROOT
HETATM    1  N   UNK N   1      22.016  17.162   4.306  0.00  0.00    -0.297 N 
HETATM    2  N   UNK N   1      22.698  16.401   3.469  0.00  0.00    -0.297 N 
ATOM      3  HN  UNK N   1      22.744  16.526   2.458  1.00  0.00     0.187 HD
HETATM    4  C   UNK N   1      22.160  16.706   5.567  0.00  0.00     0.125 A 
HETATM    5  C   UNK N   1      22.979  15.585   5.530  0.00  0.00     0.020 A 
HETATM    6  C   UNK N   1      23.322  15.432   4.168  0.00  0.00     0.071 A 
ENDROOT
BRANCH   5   7
HETATM    7  C   UNK N   1      23.289  14.780   6.749  0.00  0.00    -0.022 A 
HETATM    8  C   UNK N   1      24.638  14.503   7.081  0.00  0.00     0.013 A 
HETATM    9  C   UNK N   1      24.962  13.799   8.255  0.00  0.00     0.015 A 
HETATM   10  C   UNK N   1      23.921  13.389   9.086  0.00  0.00    -0.005 A 
HETATM   11  C   UNK N   1      22.621  13.651   8.782  0.00  0.00    -0.045 A 
HETATM   12  C   UNK N   1      23.972  12.677  10.330  0.00  0.00     0.043 A 
HETATM   13  C   UNK N   1      22.283  14.345   7.626  0.00  0.00     0.020 A 
HETATM   14  C   UNK N   1      21.670  13.130   9.813  0.00  0.00     0.045 A 
HETATM   15  C   UNK N   1      22.589  12.462  10.875  0.00  0.00     0.064 A 
HETATM   16  N   UNK N   1      25.057  12.287  10.899  0.00  0.00    -0.273 N 
ATOM     17  HN  UNK N   1      25.956  12.479  10.457  1.00  0.00     0.194 HD
BRANCH  16  18
HETATM   18  O   UNK N   1      25.020  11.642  12.046  0.00  0.00    -0.290 OA
HETATM   19  H   UNK N   1      24.254  11.159  12.289  0.00  0.00     0.244 HD
ENDBRANCH  16  18
ENDBRANCH   5   7
BRANCH   6  20
HETATM   20  C   UNK N   1      24.197  14.454   3.459  0.00  0.00    -0.004 A 
HETATM   21  C   UNK N   1      23.971  13.077   3.474  0.00  0.00     0.030 A 
HETATM   22  C   UNK N   1      24.845  12.211   2.813  0.00  0.00     0.088 A 
HETATM   23  N   UNK N   1      25.926  12.706   2.156  0.00  0.00    -0.375 N 
HETATM   24  C   UNK N   1      26.183  14.041   2.130  0.00  0.00     0.088 A 
ATOM     25  HN  UNK N   1      26.557  12.065   1.675  1.00  0.00     0.164 HD
HETATM   26  C   UNK N   1      25.329  14.932   2.781  0.00  0.00     0.030 A 
ENDBRANCH   6  20
BRANCH   1  27
HETATM   27  C   UNK N   1      21.187  18.284   3.860  0.00  0.00     0.110 C 
HETATM   28  C   UNK N   1      20.099  17.820   2.897  0.00  0.00     0.046 C 
HETATM   29  C   UNK N   1      19.237  19.022   2.522  0.00  0.00     0.115 C 
HETATM   30  N   UNK N   1      20.057  20.023   1.841  0.00  0.00    -0.421 N 
HETATM   31  C   UNK N   1      21.064  20.531   2.775  0.00  0.00     0.115 C 
HETATM   32  H   UNK N   1      19.946  20.320   0.871  0.00  0.00     0.153 HD
HETATM   33  C   UNK N   1      22.005  19.408   3.215  0.00  0.00     0.046 C 
ENDBRANCH   1  27
TORSDOF 4
ENDMDL
MODEL 4
REMARK VINA RESULT:      -7.8      4.572      8.643
REMARK  4 active torsions:
REMARK  status: ('A' for Active; 'I' for Inactive)
REMARK    1  A    between atoms: N_2  and  C_1 
REMARK    2  A    between atoms: C_18  and  C_5 
REMARK    3  A    between atoms: C_17  and  C_21 
REMARK    4  A    between atoms: N_29  and  O_31 
ROOT
HETATM    1  N   UNK N   1      24.863  15.407   6.446  0.00  0.00    -0.297 N 
HETATM    2  N   UNK N   1      24.677  16.425   5.625  0.00  0.00    -0.297 N 
ATOM      3  HN  UNK N   1      23.793  16.675   5.182  1.00  0.00     0.187 HD
HETATM    4  C   UNK N   1      26.153  15.356   6.833  0.00  0.00     0.125 A 
HETATM    5  C   UNK N   1      26.830  16.402   6.219  0.00  0.00     0.020 A 
HETATM    6  C   UNK N   1      25.844  17.079   5.467  0.00  0.00     0.071 A 
ENDROOT
BRANCH   5   7
HETATM    7  C   UNK N   1      28.303  16.599   6.370  0.00  0.00    -0.022 A 
HETATM    8  C   UNK N   1      29.169  16.241   5.307  0.00  0.00     0.013 A 
HETATM    9  C   UNK N   1      30.554  16.471   5.397  0.00  0.00     0.015 A 
HETATM   10  C   UNK N   1      31.049  17.068   6.555  0.00  0.00    -0.005 A 
HETATM   11  C   UNK N   1      30.229  17.420   7.581  0.00  0.00    -0.045 A 
HETATM   12  C   UNK N   1      32.397  17.421   6.896  0.00  0.00     0.043 A 
HETATM   13  C   UNK N   1      28.858  17.200   7.510  0.00  0.00     0.020 A 
HETATM   14  C   UNK N   1      30.967  18.052   8.721  0.00  0.00     0.045 A 
HETATM   15  C   UNK N   1      32.451  18.054   8.256  0.00  0.00     0.064 A 
HETATM   16  N   UNK N   1      33.413  17.226   6.133  0.00  0.00    -0.273 N 
ATOM     17  HN  UNK N   1      33.282  16.790   5.220  1.00  0.00     0.194 HD
BRANCH  16  18
HETATM   18  O   UNK N   1      34.620  17.584   6.516  0.00  0.00    -0.290 OA
HETATM   19  H   UNK N   1      35.328  16.971   6.471  0.00  0.00     0.244 HD
ENDBRANCH  16  18
ENDBRANCH   5   7
BRANCH   6  20
HETATM   20  C   UNK N   1      25.900  18.301   4.613  0.00  0.00    -0.004 A 
HETATM   21  C   UNK N   1      27.077  19.013   4.374  0.00  0.00     0.030 A 
HETATM   22  C   UNK N   1      27.057  20.166   3.588  0.00  0.00     0.088 A 
HETATM   23  N   UNK N   1      25.887  20.607   3.056  0.00  0.00    -0.375 N 
HETATM   24  C   UNK N   1      24.720  19.945   3.277  0.00  0.00     0.088 A 
ATOM     25  HN  UNK N   1      25.884  21.449   2.481  1.00  0.00     0.164 HD
HETATM   26  C   UNK N   1      24.707  18.789   4.059  0.00  0.00     0.030 A 
ENDBRANCH   6  20
BRANCH   1  27
HETATM   27  C   UNK N   1      23.796  14.464   6.792  0.00  0.00     0.110 C 
HETATM   28  C   UNK N   1      22.469  15.185   7.008  0.00  0.00     0.046 C 
HETATM   29  C   UNK N   1      21.393  14.143   7.303  0.00  0.00     0.115 C 
HETATM   30  N   UNK N   1      21.730  13.421   8.529  0.00  0.00    -0.421 N 
HETATM   31  C   UNK N   1      22.967  12.667   8.315  0.00  0.00     0.115 C 
HETATM   32  H   UNK N   1      21.190  13.440   9.395  0.00  0.00     0.153 HD
HETATM   33  C   UNK N   1      24.130  13.615   8.023  0.00  0.00     0.046 C 
ENDBRANCH   1  27
TORSDOF 4
ENDMDL
MODEL 5
REMARK VINA RESULT:      -7.8      5.949     10.948
REMARK  4 active torsions:
REMARK  status: ('A' for Active; 'I' for Inactive)
REMARK    1  A    between atoms: N_2  and  C_1 
REMARK    2  A    between atoms: C_18  and  C_5 
REMARK    3  A    between atoms: C_17  and  C_21 
REMARK    4  A    between atoms: N_29  and  O_31 
ROOT
HETATM    1  N   UNK N   1      35.284  13.502  11.644  0.00  0.00    -0.297 N 
HETATM    2  N   UNK N   1      35.400  12.239  11.276  0.00  0.00    -0.297 N 
ATOM      3  HN  UNK N   1      35.431  11.903  10.314  1.00  0.00     0.187 HD
HETATM    4  C   UNK N   1      35.257  13.591  12.989  0.00  0.00     0.125 A 
HETATM    5  C   UNK N   1      35.358  12.306  13.508  0.00  0.00     0.020 A 
HETATM    6  C   UNK N   1      35.468  11.466  12.378  0.00  0.00     0.071 A 
ENDROOT
BRANCH   5   7
HETATM    7  C   UNK N   1      35.284  12.028  14.974  0.00  0.00    -0.022 A 
HETATM    8  C   UNK N   1      35.337  10.689  15.435  0.00  0.00     0.013 A 
HETATM    9  C   UNK N   1      35.330  10.401  16.812  0.00  0.00     0.015 A 
HETATM   10  C   UNK N   1      35.279  11.467  17.709  0.00  0.00    -0.005 A 
HETATM   11  C   UNK N   1      35.232  12.757  17.280  0.00  0.00    -0.045 A 
HETATM   12  C   UNK N   1      35.274  11.454  19.143  0.00  0.00     0.043 A 
HETATM   13  C   UNK N   1      35.237  13.060  15.923  0.00  0.00     0.020 A 
HETATM   14  C   UNK N   1      35.191  13.740  18.408  0.00  0.00     0.045 A 
HETATM   15  C   UNK N   1      35.219  12.853  19.686  0.00  0.00     0.064 A 
HETATM   16  N   UNK N   1      35.318  10.387  19.860  0.00  0.00    -0.273 N 
ATOM     17  HN  UNK N   1      35.356   9.475  19.405  1.00  0.00     0.194 HD
BRANCH  16  18
HETATM   18  O   UNK N   1      35.314  10.460  21.174  0.00  0.00    -0.290 OA
HETATM   19  H   UNK N   1      35.955   9.990  21.671  0.00  0.00     0.244 HD
ENDBRANCH  16  18
ENDBRANCH   5   7
BRANCH   6  20
HETATM   20  C   UNK N   1      35.643   9.991  12.239  0.00  0.00    -0.004 A 
HETATM   21  C   UNK N   1      34.573   9.104  12.119  0.00  0.00     0.030 A 
HETATM   22  C   UNK N   1      34.802   7.730  12.021  0.00  0.00     0.088 A 
HETATM   23  N   UNK N   1      36.073   7.249  12.050  0.00  0.00    -0.375 N 
HETATM   24  C   UNK N   1      37.138   8.083  12.177  0.00  0.00     0.088 A 
ATOM     25  HN  UNK N   1      36.229   6.244  11.975  1.00  0.00     0.164 HD
HETATM   26  C   UNK N   1      36.942   9.462  12.277  0.00  0.00     0.030 A 
ENDBRANCH   6  20
BRANCH   1  27
HETATM   27  C   UNK N   1      35.141  14.598  10.682  0.00  0.00     0.110 C 
HETATM   28  C   UNK N   1      35.425  15.948  11.333  0.00  0.00     0.046 C 
HETATM   29  C   UNK N   1      35.319  17.033  10.266  0.00  0.00     0.115 C 
HETATM   30  N   UNK N   1      33.962  17.061   9.724  0.00  0.00    -0.421 N 
HETATM   31  C   UNK N   1      33.697  15.797   9.034  0.00  0.00     0.115 C 
HETATM   32  H   UNK N   1      33.304  17.837   9.813  0.00  0.00     0.153 HD
HETATM   33  C   UNK N   1      33.762  14.625  10.014  0.00  0.00     0.046 C 
ENDBRANCH   1  27
TORSDOF 4
ENDMDL
MODEL 6
REMARK VINA RESULT:      -7.7      3.926      6.336
REMARK  4 active torsions:
REMARK  status: ('A' for Active; 'I' for Inactive)
REMARK    1  A    between atoms: N_2  and  C_1 
REMARK    2  A    between atoms: C_18  and  C_5 
REMARK    3  A    between atoms: C_17  and  C_21 
REMARK    4  A    between atoms: N_29  and  O_31 
ROOT
HETATM    1  N   UNK N   1      30.786  16.197   4.069  0.00  0.00    -0.297 N 
HETATM    2  N   UNK N   1      30.798  16.401   5.374  0.00  0.00    -0.297 N 
ATOM      3  HN  UNK N   1      31.503  16.052   6.022  1.00  0.00     0.187 HD
HETATM    4  C   UNK N   1      29.703  16.783   3.520  0.00  0.00     0.125 A 
HETATM    5  C   UNK N   1      28.981  17.395   4.536  0.00  0.00     0.020 A 
HETATM    6  C   UNK N   1      29.726  17.146   5.711  0.00  0.00     0.071 A 
ENDROOT
BRANCH   5   7
HETATM    7  C   UNK N   1      27.675  18.079   4.290  0.00  0.00    -0.022 A 
HETATM    8  C   UNK N   1      27.664  19.426   3.853  0.00  0.00     0.013 A 
HETATM    9  C   UNK N   1      26.452  20.076   3.556  0.00  0.00     0.015 A 
HETATM   10  C   UNK N   1      25.266  19.357   3.694  0.00  0.00    -0.005 A 
HETATM   11  C   UNK N   1      25.264  18.061   4.109  0.00  0.00    -0.045 A 
HETATM   12  C   UNK N   1      23.914  19.768   3.449  0.00  0.00     0.043 A 
HETATM   13  C   UNK N   1      26.451  17.403   4.408  0.00  0.00     0.020 A 
HETATM   14  C   UNK N   1      23.886  17.480   4.180  0.00  0.00     0.045 A 
HETATM   15  C   UNK N   1      22.959  18.644   3.729  0.00  0.00     0.064 A 
HETATM   16  N   UNK N   1      23.575  20.939   3.039  0.00  0.00    -0.273 N 
ATOM     17  HN  UNK N   1      24.294  21.643   2.872  1.00  0.00     0.194 HD
BRANCH  16  18
HETATM   18  O   UNK N   1      22.310  21.238   2.832  0.00  0.00    -0.290 OA
HETATM   19  H   UNK N   1      21.636  20.662   3.135  0.00  0.00     0.244 HD
ENDBRANCH  16  18
ENDBRANCH   5   7
BRANCH   6  20
HETATM   20  C   UNK N   1      29.523  17.555   7.131  0.00  0.00    -0.004 A 
HETATM   21  C   UNK N   1      28.263  17.698   7.712  0.00  0.00     0.030 A 
HETATM   22  C   UNK N   1      28.140  18.112   9.040  0.00  0.00     0.088 A 
HETATM   23  N   UNK N   1      29.252  18.385   9.772  0.00  0.00    -0.375 N 
HETATM   24  C   UNK N   1      30.495  18.267   9.236  0.00  0.00     0.088 A 
ATOM     25  HN  UNK N   1      29.151  18.684  10.742  1.00  0.00     0.164 HD
HETATM   26  C   UNK N   1      30.650  17.855   7.911  0.00  0.00     0.030 A 
ENDBRANCH   6  20
BRANCH   1  27
HETATM   27  C   UNK N   1      31.794  15.382   3.386  0.00  0.00     0.110 C 
HETATM   28  C   UNK N   1      31.290  13.962   3.148  0.00  0.00     0.046 C 
HETATM   29  C   UNK N   1      32.361  13.190   2.382  0.00  0.00     0.115 C 
HETATM   30  N   UNK N   1      33.583  13.117   3.180  0.00  0.00    -0.421 N 
HETATM   31  C   UNK N   1      34.118  14.468   3.359  0.00  0.00     0.115 C 
HETATM   32  H   UNK N   1      33.996  12.262   3.553  0.00  0.00     0.153 HD
HETATM   33  C   UNK N   1      33.130  15.339   4.136  0.00  0.00     0.046 C 
ENDBRANCH   1  27
TORSDOF 4
ENDMDL
MODEL 7
REMARK VINA RESULT:      -7.7      3.037      7.617
REMARK  4 active torsions:
REMARK  status: ('A' for Active; 'I' for Inactive)
REMARK    1  A    between atoms: N_2  and  C_1 
REMARK    2  A    between atoms: C_18  and  C_5 
REMARK    3  A    between atoms: C_17  and  C_21 
REMARK    4  A    between atoms: N_29  and  O_31 
ROOT
HETATM    1  N   UNK N   1      29.078  17.786   5.565  0.00  0.00    -0.297 N 
HETATM    2  N   UNK N   1      29.585  17.066   4.580  0.00  0.00    -0.297 N 
ATOM      3  HN  UNK N   1      29.145  16.908   3.674  1.00  0.00     0.187 HD
HETATM    4  C   UNK N   1      29.911  17.772   6.624  0.00  0.00     0.125 A 
HETATM    5  C   UNK N   1      31.014  16.993   6.296  0.00  0.00     0.020 A 
HETATM    6  C   UNK N   1      30.778  16.574   4.967  0.00  0.00     0.071 A 
ENDROOT
BRANCH   5   7
HETATM    7  C   UNK N   1      32.106  16.701   7.272  0.00  0.00    -0.022 A 
HETATM    8  C   UNK N   1      32.914  17.759   7.756  0.00  0.00     0.013 A 
HETATM    9  C   UNK N   1      33.910  17.522   8.721  0.00  0.00     0.015 A 
HETATM   10  C   UNK N   1      34.074  16.221   9.194  0.00  0.00    -0.005 A 
HETATM   11  C   UNK N   1      33.303  15.197   8.741  0.00  0.00    -0.045 A 
HETATM   12  C   UNK N   1      34.992  15.714  10.172  0.00  0.00     0.043 A 
HETATM   13  C   UNK N   1      32.315  15.412   7.787  0.00  0.00     0.020 A 
HETATM   14  C   UNK N   1      33.641  13.889   9.387  0.00  0.00     0.045 A 
HETATM   15  C   UNK N   1      34.797  14.238  10.367  0.00  0.00     0.064 A 
HETATM   16  N   UNK N   1      35.856  16.432  10.798  0.00  0.00    -0.273 N 
ATOM     17  HN  UNK N   1      35.917  17.432  10.603  1.00  0.00     0.194 HD
BRANCH  16  18
HETATM   18  O   UNK N   1      36.661  15.892  11.687  0.00  0.00    -0.290 OA
HETATM   19  H   UNK N   1      36.602  16.143  12.588  0.00  0.00     0.244 HD
ENDBRANCH  16  18
ENDBRANCH   5   7
BRANCH   6  20
HETATM   20  C   UNK N   1      31.584  15.753   4.019  0.00  0.00    -0.004 A 
HETATM   21  C   UNK N   1      31.192  14.487   3.581  0.00  0.00     0.030 A 
HETATM   22  C   UNK N   1      32.007  13.756   2.714  0.00  0.00     0.088 A 
HETATM   23  N   UNK N   1      33.192  14.273   2.296  0.00  0.00    -0.375 N 
HETATM   24  C   UNK N   1      33.611  15.498   2.710  0.00  0.00     0.088 A 
ATOM     25  HN  UNK N   1      33.778  13.732   1.660  1.00  0.00     0.164 HD
HETATM   26  C   UNK N   1      32.819  16.253   3.578  0.00  0.00     0.030 A 
ENDBRANCH   6  20
BRANCH   1  27
HETATM   27  C   UNK N   1      27.762  18.426   5.482  0.00  0.00     0.110 C 
HETATM   28  C   UNK N   1      27.273  18.499   4.039  0.00  0.00     0.046 C 
HETATM   29  C   UNK N   1      25.877  19.117   4.031  0.00  0.00     0.115 C 
HETATM   30  N   UNK N   1      25.937  20.476   4.566  0.00  0.00    -0.421 N 
HETATM   31  C   UNK N   1      26.339  20.419   5.973  0.00  0.00     0.115 C 
HETATM   32  H   UNK N   1      25.732  21.328   4.043  0.00  0.00     0.153 HD
HETATM   33  C   UNK N   1      27.742  19.824   6.108  0.00  0.00     0.046 C 
ENDBRANCH   1  27
TORSDOF 4
ENDMDL
MODEL 8
REMARK VINA RESULT:      -7.6      2.337      4.863
REMARK  4 active torsions:
REMARK  status: ('A' for Active; 'I' for Inactive)
REMARK    1  A    between atoms: N_2  and  C_1 
REMARK    2  A    between atoms: C_18  and  C_5 
REMARK    3  A    between atoms: C_17  and  C_21 
REMARK    4  A    between atoms: N_29  and  O_31 
ROOT
HETATM    1  N   UNK N   1      32.197  14.046   5.074  0.00  0.00    -0.297 N 
HETATM    2  N   UNK N   1      33.073  14.532   5.935  0.00  0.00    -0.297 N 
ATOM      3  HN  UNK N   1      33.987  14.130   6.141  1.00  0.00     0.187 HD
HETATM    4  C   UNK N   1      31.089  14.813   5.060  0.00  0.00     0.125 A 
HETATM    5  C   UNK N   1      31.268  15.847   5.970  0.00  0.00     0.020 A 
HETATM    6  C   UNK N   1      32.563  15.645   6.497  0.00  0.00     0.071 A 
ENDROOT
BRANCH   5   7
HETATM    7  C   UNK N   1      30.198  16.848   6.265  0.00  0.00    -0.022 A 
HETATM    8  C   UNK N   1      29.793  17.063   7.605  0.00  0.00     0.013 A 
HETATM    9  C   UNK N   1      28.831  18.040   7.919  0.00  0.00     0.015 A 
HETATM   10  C   UNK N   1      28.295  18.796   6.878  0.00  0.00    -0.005 A 
HETATM   11  C   UNK N   1      28.678  18.603   5.587  0.00  0.00    -0.045 A 
HETATM   12  C   UNK N   1      27.323  19.850   6.920  0.00  0.00     0.043 A 
HETATM   13  C   UNK N   1      29.627  17.641   5.258  0.00  0.00     0.020 A 
HETATM   14  C   UNK N   1      27.985  19.526   4.634  0.00  0.00     0.045 A 
HETATM   15  C   UNK N   1      27.056  20.382   5.542  0.00  0.00     0.064 A 
HETATM   16  N   UNK N   1      26.767  20.281   7.997  0.00  0.00    -0.273 N 
ATOM     17  HN  UNK N   1      27.010  19.861   8.894  1.00  0.00     0.194 HD
BRANCH  16  18
HETATM   18  O   UNK N   1      25.885  21.257   7.953  0.00  0.00    -0.290 OA
HETATM   19  H   UNK N   1      25.938  21.907   7.280  0.00  0.00     0.244 HD
ENDBRANCH  16  18
ENDBRANCH   5   7
BRANCH   6  20
HETATM   20  C   UNK N   1      33.374  16.416   7.484  0.00  0.00    -0.004 A 
HETATM   21  C   UNK N   1      33.790  17.730   7.269  0.00  0.00     0.030 A 
HETATM   22  C   UNK N   1      34.573  18.387   8.221  0.00  0.00     0.088 A 
HETATM   23  N   UNK N   1      34.939  17.745   9.361  0.00  0.00    -0.375 N 
HETATM   24  C   UNK N   1      34.561  16.462   9.598  0.00  0.00     0.088 A 
ATOM     25  HN  UNK N   1      35.509  18.235  10.051  1.00  0.00     0.164 HD
HETATM   26  C   UNK N   1      33.779  15.777   8.666  0.00  0.00     0.030 A 
ENDBRANCH   6  20
BRANCH   1  27
HETATM   27  C   UNK N   1      32.428  12.809   4.323  0.00  0.00     0.110 C 
HETATM   28  C   UNK N   1      31.323  12.570   3.298  0.00  0.00     0.046 C 
HETATM   29  C   UNK N   1      31.656  11.305   2.512  0.00  0.00     0.115 C 
HETATM   30  N   UNK N   1      31.698  10.159   3.419  0.00  0.00    -0.421 N 
HETATM   31  C   UNK N   1      32.799  10.340   4.367  0.00  0.00     0.115 C 
HETATM   32  H   UNK N   1      31.062   9.361   3.395  0.00  0.00     0.153 HD
HETATM   33  C   UNK N   1      32.568  11.581   5.229  0.00  0.00     0.046 C 
ENDBRANCH   1  27
TORSDOF 4
ENDMDL
MODEL 9
REMARK VINA RESULT:      -7.6      3.353      4.725
REMARK  4 active torsions:
REMARK  status: ('A' for Active; 'I' for Inactive)
REMARK    1  A    between atoms: N_2  and  C_1 
REMARK    2  A    between atoms: C_18  and  C_5 
REMARK    3  A    between atoms: C_17  and  C_21 
REMARK    4  A    between atoms: N_29  and  O_31 
ROOT
HETATM    1  N   UNK N   1      30.690  16.712   6.847  0.00  0.00    -0.297 N 
HETATM    2  N   UNK N   1      30.606  15.750   5.945  0.00  0.00    -0.297 N 
ATOM      3  HN  UNK N   1      31.268  14.983   5.833  1.00  0.00     0.187 HD
HETATM    4  C   UNK N   1      29.661  17.570   6.705  0.00  0.00     0.125 A 
HETATM    5  C   UNK N   1      28.876  17.132   5.646  0.00  0.00     0.020 A 
HETATM    6  C   UNK N   1      29.504  15.948   5.196  0.00  0.00     0.071 A 
ENDROOT
BRANCH   5   7
HETATM    7  C   UNK N   1      27.686  17.895   5.162  0.00  0.00    -0.022 A 
HETATM    8  C   UNK N   1      27.868  19.162   4.554  0.00  0.00     0.013 A 
HETATM    9  C   UNK N   1      26.773  19.876   4.036  0.00  0.00     0.015 A 
HETATM   10  C   UNK N   1      25.507  19.299   4.127  0.00  0.00    -0.005 A 
HETATM   11  C   UNK N   1      25.319  18.082   4.704  0.00  0.00    -0.045 A 
HETATM   12  C   UNK N   1      24.241  19.799   3.674  0.00  0.00     0.043 A 
HETATM   13  C   UNK N   1      26.390  17.363   5.223  0.00  0.00     0.020 A 
HETATM   14  C   UNK N   1      23.886  17.650   4.687  0.00  0.00     0.045 A 
HETATM   15  C   UNK N   1      23.144  18.822   3.984  0.00  0.00     0.064 A 
HETATM   16  N   UNK N   1      24.077  20.926   3.077  0.00  0.00    -0.273 N 
ATOM     17  HN  UNK N   1      24.883  21.528   2.905  1.00  0.00     0.194 HD
BRANCH  16  18
HETATM   18  O   UNK N   1      22.881  21.312   2.687  0.00  0.00    -0.290 OA
HETATM   19  H   UNK N   1      22.344  21.826   3.258  0.00  0.00     0.244 HD
ENDBRANCH  16  18
ENDBRANCH   5   7
BRANCH   6  20
HETATM   20  C   UNK N   1      29.152  14.975   4.122  0.00  0.00    -0.004 A 
HETATM   21  C   UNK N   1      28.978  15.340   2.787  0.00  0.00     0.030 A 
HETATM   22  C   UNK N   1      28.621  14.384   1.834  0.00  0.00     0.088 A 
HETATM   23  N   UNK N   1      28.434  13.091   2.205  0.00  0.00    -0.375 N 
HETATM   24  C   UNK N   1      28.585  12.701   3.498  0.00  0.00     0.088 A 
ATOM     25  HN  UNK N   1      28.176  12.400   1.500  1.00  0.00     0.164 HD
HETATM   26  C   UNK N   1      28.941  13.633   4.475  0.00  0.00     0.030 A 
ENDBRANCH   6  20
BRANCH   1  27
HETATM   27  C   UNK N   1      31.804  16.814   7.794  0.00  0.00     0.110 C 
HETATM   28  C   UNK N   1      32.971  17.593   7.195  0.00  0.00     0.046 C 
HETATM   29  C   UNK N   1      34.066  17.715   8.251  0.00  0.00     0.115 C 
HETATM   30  N   UNK N   1      34.544  16.384   8.621  0.00  0.00    -0.421 N 
HETATM   31  C   UNK N   1      33.454  15.645   9.261  0.00  0.00     0.115 C 
HETATM   32  H   UNK N   1      35.486  16.026   8.458  0.00  0.00     0.153 HD
HETATM   33  C   UNK N   1      32.292  15.447   8.286  0.00  0.00     0.046 C 
ENDBRANCH   1  27
TORSDOF 4
ENDMDL
