MODEL 1
REMARK VINA RESULT:      -5.3      0.000      0.000
REMARK  9 active torsions:
REMARK  status: ('A' for Active; 'I' for Inactive)
REMARK    1  A    between atoms: C_1  and  C_2 
REMARK    2  A    between atoms: C_1  and  C_5 
REMARK    3  A    between atoms: C_1  and  N_8 
REMARK    4  A    between atoms: C_2  and  O_3 
REMARK    5  A    between atoms: C_5  and  C_6 
REMARK       I    between atoms: N_8  and  C_9 
REMARK    6  A    between atoms: C_9  and  C_11 
REMARK    7  A    between atoms: C_11  and  C_12 
REMARK    8  A    between atoms: C_12  and  C_13 
REMARK    9  A    between atoms: C_13  and  O_14 
ROOT
HETATM    1  N   UNK N   1      34.015  16.929   9.850  0.00  0.00    -0.347 N 
HETATM    2  C   UNK N   1      34.957  15.988  10.119  0.00  0.00     0.218 C 
HETATM    3  O   UNK N   1      35.435  15.310   9.214  0.00  0.00    -0.274 OA
HETATM    4  H   UNK N   1      33.669  17.470  10.596  0.00  0.00     0.163 HD
ENDROOT
BRANCH   1   5
HETATM    5  C   UNK N   1      33.491  17.178   8.515  0.00  0.00     0.182 C 
BRANCH   5   6
HETATM    6  C   UNK N   1      34.365  18.148   7.738  0.00  0.00     0.163 C 
HETATM    7  O   UNK N   1      34.474  18.033   6.526  0.00  0.00    -0.648 OA
BRANCH   6   8
HETATM    8  O   UNK N   1      35.037  19.131   8.367  0.00  0.00    -0.775 OA
HETATM    9  H   UNK N   1      35.247  19.197   9.278  0.00  0.00     0.167 HD
ENDBRANCH   6   8
ENDBRANCH   5   6
BRANCH   5  10
HETATM   10  C   UNK N   1      32.065  17.716   8.645  0.00  0.00     0.035 C 
BRANCH  10  11
HETATM   11  C   UNK N   1      31.102  17.032   7.684  0.00  0.00    -0.002 C 
HETATM   12  C   UNK N   1      31.635  15.667   7.301  0.00  0.00     0.005 C 
ENDBRANCH  10  11
ENDBRANCH   5  10
ENDBRANCH   1   5
BRANCH   2  13
HETATM   13  C   UNK N   1      35.454  15.776  11.509  0.00  0.00     0.113 C 
BRANCH  13  14
HETATM   14  C   UNK N   1      35.218  14.347  11.977  0.00  0.00     0.119 C 
BRANCH  14  15
HETATM   15  C   UNK N   1      35.699  14.143  13.387  0.00  0.00     0.139 C 
HETATM   16  O   UNK N   1      35.029  13.480  14.162  0.00  0.00    -0.650 OA
BRANCH  15  17
HETATM   17  O   UNK N   1      36.866  14.673  13.806  0.00  0.00    -0.776 OA
HETATM   18  H   UNK N   1      37.680  14.302  13.526  0.00  0.00     0.167 HD
ENDBRANCH  15  17
ENDBRANCH  14  15
ENDBRANCH  13  14
ENDBRANCH   2  13
TORSDOF 9
ENDMDL
MODEL 2
REMARK VINA RESULT:      -5.3      3.427      5.896
REMARK  9 active torsions:
REMARK  status: ('A' for Active; 'I' for Inactive)
REMARK    1  A    between atoms: C_1  and  C_2 
REMARK    2  A    between atoms: C_1  and  C_5 
REMARK    3  A    between atoms: C_1  and  N_8 
REMARK    4  A    between atoms: C_2  and  O_3 
REMARK    5  A    between atoms: C_5  and  C_6 
REMARK       I    between atoms: N_8  and  C_9 
REMARK    6  A    between atoms: C_9  and  C_11 
REMARK    7  A    between atoms: C_11  and  C_12 
REMARK    8  A    between atoms: C_12  and  C_13 
REMARK    9  A    between atoms: C_13  and  O_14 
ROOT
HETATM    1  N   UNK N   1      32.340  17.622   8.235  0.00  0.00    -0.347 N 
HETATM    2  C   UNK N   1      31.477  16.748   8.815  0.00  0.00     0.218 C 
HETATM    3  O   UNK N   1      31.831  15.600   9.068  0.00  0.00    -0.274 OA
HETATM    4  H   UNK N   1      32.031  18.540   8.065  0.00  0.00     0.163 HD
ENDROOT
BRANCH   1   5
HETATM    5  C   UNK N   1      33.699  17.268   7.851  0.00  0.00     0.182 C 
BRANCH   5   6
HETATM    6  C   UNK N   1      34.732  18.012   8.681  0.00  0.00     0.163 C 
HETATM    7  O   UNK N   1      35.109  19.121   8.334  0.00  0.00    -0.648 OA
BRANCH   6   8
HETATM    8  O   UNK N   1      35.253  17.459   9.793  0.00  0.00    -0.775 OA
HETATM    9  H   UNK N   1      35.267  16.554  10.038  0.00  0.00     0.167 HD
ENDBRANCH   6   8
ENDBRANCH   5   6
BRANCH   5  10
HETATM   10  C   UNK N   1      33.879  17.573   6.363  0.00  0.00     0.035 C 
BRANCH  10  11
HETATM   11  C   UNK N   1      32.754  16.989   5.517  0.00  0.00    -0.002 C 
HETATM   12  C   UNK N   1      32.721  17.665   4.162  0.00  0.00     0.005 C 
ENDBRANCH  10  11
ENDBRANCH   5  10
ENDBRANCH   1   5
BRANCH   2  13
HETATM   13  C   UNK N   1      30.094  17.167   9.184  0.00  0.00     0.113 C 
BRANCH  13  14
HETATM   14  C   UNK N   1      29.741  18.524   8.591  0.00  0.00     0.119 C 
BRANCH  14  15
HETATM   15  C   UNK N   1      28.252  18.723   8.520  0.00  0.00     0.139 C 
HETATM   16  O   UNK N   1      27.779  19.416   7.635  0.00  0.00    -0.650 OA
BRANCH  15  17
HETATM   17  O   UNK N   1      27.431  18.135   9.413  0.00  0.00    -0.776 OA
HETATM   18  H   UNK N   1      27.564  17.241   9.661  0.00  0.00     0.167 HD
ENDBRANCH  15  17
ENDBRANCH  14  15
ENDBRANCH  13  14
ENDBRANCH   2  13
TORSDOF 9
ENDMDL
MODEL 3
REMARK VINA RESULT:      -5.2      4.013      6.214
REMARK  9 active torsions:
REMARK  status: ('A' for Active; 'I' for Inactive)
REMARK    1  A    between atoms: C_1  and  C_2 
REMARK    2  A    between atoms: C_1  and  C_5 
REMARK    3  A    between atoms: C_1  and  N_8 
REMARK    4  A    between atoms: C_2  and  O_3 
REMARK    5  A    between atoms: C_5  and  C_6 
REMARK       I    between atoms: N_8  and  C_9 
REMARK    6  A    between atoms: C_9  and  C_11 
REMARK    7  A    between atoms: C_11  and  C_12 
REMARK    8  A    between atoms: C_12  and  C_13 
REMARK    9  A    between atoms: C_13  and  O_14 
ROOT
HETATM    1  N   UNK N   1      30.006  17.277   7.389  0.00  0.00    -0.347 N 
HETATM    2  C   UNK N   1      31.100  17.595   8.128  0.00  0.00     0.218 C 
HETATM    3  O   UNK N   1      31.044  18.487   8.970  0.00  0.00    -0.274 OA
HETATM    4  H   UNK N   1      30.080  16.542   6.738  0.00  0.00     0.163 HD
ENDROOT
BRANCH   1   5
HETATM    5  C   UNK N   1      28.730  17.966   7.510  0.00  0.00     0.182 C 
BRANCH   5   6
HETATM    6  C   UNK N   1      27.744  17.185   8.362  0.00  0.00     0.163 C 
HETATM    7  O   UNK N   1      27.782  17.279   9.581  0.00  0.00    -0.648 OA
BRANCH   6   8
HETATM    8  O   UNK N   1      26.831  16.372   7.795  0.00  0.00    -0.775 OA
HETATM    9  H   UNK N   1      26.391  16.480   6.975  0.00  0.00     0.167 HD
ENDBRANCH   6   8
ENDBRANCH   5   6
BRANCH   5  10
HETATM   10  C   UNK N   1      28.167  18.200   6.107  0.00  0.00     0.035 C 
BRANCH  10  11
HETATM   11  C   UNK N   1      27.639  19.617   5.928  0.00  0.00    -0.002 C 
HETATM   12  C   UNK N   1      27.765  20.037   4.479  0.00  0.00     0.005 C 
ENDBRANCH  10  11
ENDBRANCH   5  10
ENDBRANCH   1   5
BRANCH   2  13
HETATM   13  C   UNK N   1      32.383  16.854   7.957  0.00  0.00     0.113 C 
BRANCH  13  14
HETATM   14  C   UNK N   1      33.497  17.460   8.799  0.00  0.00     0.119 C 
BRANCH  14  15
HETATM   15  C   UNK N   1      34.456  18.252   7.955  0.00  0.00     0.139 C 
HETATM   16  O   UNK N   1      34.497  18.061   6.751  0.00  0.00    -0.650 OA
BRANCH  15  17
HETATM   17  O   UNK N   1      35.263  19.180   8.507  0.00  0.00    -0.776 OA
HETATM   18  H   UNK N   1      34.928  19.776   9.149  0.00  0.00     0.167 HD
ENDBRANCH  15  17
ENDBRANCH  14  15
ENDBRANCH  13  14
ENDBRANCH   2  13
TORSDOF 9
ENDMDL
MODEL 4
REMARK VINA RESULT:      -5.2      3.165      6.133
REMARK  9 active torsions:
REMARK  status: ('A' for Active; 'I' for Inactive)
REMARK    1  A    between atoms: C_1  and  C_2 
REMARK    2  A    between atoms: C_1  and  C_5 
REMARK    3  A    between atoms: C_1  and  N_8 
REMARK    4  A    between atoms: C_2  and  O_3 
REMARK    5  A    between atoms: C_5  and  C_6 
REMARK       I    between atoms: N_8  and  C_9 
REMARK    6  A    between atoms: C_9  and  C_11 
REMARK    7  A    between atoms: C_11  and  C_12 
REMARK    8  A    between atoms: C_12  and  C_13 
REMARK    9  A    between atoms: C_13  and  O_14 
ROOT
HETATM    1  N   UNK N   1      32.565  16.832   8.457  0.00  0.00    -0.347 N 
HETATM    2  C   UNK N   1      31.385  17.504   8.467  0.00  0.00     0.218 C 
HETATM    3  O   UNK N   1      31.320  18.640   8.930  0.00  0.00    -0.274 OA
HETATM    4  H   UNK N   1      32.586  15.932   8.059  0.00  0.00     0.163 HD
ENDROOT
BRANCH   1   5
HETATM    5  C   UNK N   1      33.800  17.375   9.003  0.00  0.00     0.182 C 
BRANCH   5   6
HETATM    6  C   UNK N   1      34.530  18.244   7.994  0.00  0.00     0.163 C 
HETATM    7  O   UNK N   1      35.188  19.201   8.376  0.00  0.00    -0.648 OA
BRANCH   6   8
HETATM    8  O   UNK N   1      34.453  17.985   6.674  0.00  0.00    -0.775 OA
HETATM    9  H   UNK N   1      33.947  18.433   6.025  0.00  0.00     0.167 HD
ENDBRANCH   6   8
ENDBRANCH   5   6
BRANCH   5  10
HETATM   10  C   UNK N   1      34.683  16.212   9.458  0.00  0.00     0.035 C 
BRANCH  10  11
HETATM   11  C   UNK N   1      35.444  16.533  10.737  0.00  0.00    -0.002 C 
HETATM   12  C   UNK N   1      35.563  15.291  11.595  0.00  0.00     0.005 C 
ENDBRANCH  10  11
ENDBRANCH   5  10
ENDBRANCH   1   5
BRANCH   2  13
HETATM   13  C   UNK N   1      30.150  16.895   7.895  0.00  0.00     0.113 C 
BRANCH  13  14
HETATM   14  C   UNK N   1      29.111  17.952   7.547  0.00  0.00     0.119 C 
BRANCH  14  15
HETATM   15  C   UNK N   1      28.089  18.100   8.641  0.00  0.00     0.139 C 
HETATM   16  O   UNK N   1      27.959  17.212   9.467  0.00  0.00    -0.650 OA
BRANCH  15  17
HETATM   17  O   UNK N   1      27.323  19.206   8.729  0.00  0.00    -0.776 OA
HETATM   18  H   UNK N   1      26.474  19.162   9.123  0.00  0.00     0.167 HD
ENDBRANCH  15  17
ENDBRANCH  14  15
ENDBRANCH  13  14
ENDBRANCH   2  13
TORSDOF 9
ENDMDL
MODEL 5
REMARK VINA RESULT:      -5.0     11.330     13.636
REMARK  9 active torsions:
REMARK  status: ('A' for Active; 'I' for Inactive)
REMARK    1  A    between atoms: C_1  and  C_2 
REMARK    2  A    between atoms: C_1  and  C_5 
REMARK    3  A    between atoms: C_1  and  N_8 
REMARK    4  A    between atoms: C_2  and  O_3 
REMARK    5  A    between atoms: C_5  and  C_6 
REMARK       I    between atoms: N_8  and  C_9 
REMARK    6  A    between atoms: C_9  and  C_11 
REMARK    7  A    between atoms: C_11  and  C_12 
REMARK    8  A    between atoms: C_12  and  C_13 
REMARK    9  A    between atoms: C_13  and  O_14 
ROOT
HETATM    1  N   UNK N   1      22.402  13.568  10.058  0.00  0.00    -0.347 N 
HETATM    2  C   UNK N   1      21.280  13.487   9.297  0.00  0.00     0.218 C 
HETATM    3  O   UNK N   1      21.090  12.517   8.569  0.00  0.00    -0.274 OA
HETATM    4  H   UNK N   1      22.511  14.349  10.646  0.00  0.00     0.163 HD
ENDROOT
BRANCH   1   5
HETATM    5  C   UNK N   1      23.450  12.559  10.047  0.00  0.00     0.182 C 
BRANCH   5   6
HETATM    6  C   UNK N   1      23.810  12.103  11.451  0.00  0.00     0.163 C 
HETATM    7  O   UNK N   1      22.933  11.719  12.211  0.00  0.00    -0.648 OA
BRANCH   6   8
HETATM    8  O   UNK N   1      25.086  12.129  11.882  0.00  0.00    -0.775 OA
HETATM    9  H   UNK N   1      25.577  11.438  12.281  0.00  0.00     0.167 HD
ENDBRANCH   6   8
ENDBRANCH   5   6
BRANCH   5  10
HETATM   10  C   UNK N   1      24.674  13.136   9.334  0.00  0.00     0.035 C 
BRANCH  10  11
HETATM   11  C   UNK N   1      24.610  12.933   7.826  0.00  0.00    -0.002 C 
HETATM   12  C   UNK N   1      24.432  14.266   7.131  0.00  0.00     0.005 C 
ENDBRANCH  10  11
ENDBRANCH   5  10
ENDBRANCH   1   5
BRANCH   2  13
HETATM   13  C   UNK N   1      20.240  14.556   9.348  0.00  0.00     0.113 C 
BRANCH  13  14
HETATM   14  C   UNK N   1      20.697  15.819   8.632  0.00  0.00     0.119 C 
BRANCH  14  15
HETATM   15  C   UNK N   1      19.610  16.857   8.599  0.00  0.00     0.139 C 
HETATM   16  O   UNK N   1      18.515  16.567   8.147  0.00  0.00    -0.650 OA
BRANCH  15  17
HETATM   17  O   UNK N   1      19.825  18.101   9.074  0.00  0.00    -0.776 OA
HETATM   18  H   UNK N   1      19.133  18.734   9.070  0.00  0.00     0.167 HD
ENDBRANCH  15  17
ENDBRANCH  14  15
ENDBRANCH  13  14
ENDBRANCH   2  13
TORSDOF 9
ENDMDL
MODEL 6
REMARK VINA RESULT:      -5.0     15.119     18.085
REMARK  9 active torsions:
REMARK  status: ('A' for Active; 'I' for Inactive)
REMARK    1  A    between atoms: C_1  and  C_2 
REMARK    2  A    between atoms: C_1  and  C_5 
REMARK    3  A    between atoms: C_1  and  N_8 
REMARK    4  A    between atoms: C_2  and  O_3 
REMARK    5  A    between atoms: C_5  and  C_6 
REMARK       I    between atoms: N_8  and  C_9 
REMARK    6  A    between atoms: C_9  and  C_11 
REMARK    7  A    between atoms: C_11  and  C_12 
REMARK    8  A    between atoms: C_12  and  C_13 
REMARK    9  A    between atoms: C_13  and  O_14 
ROOT
HETATM    1  N   UNK N   1      27.307  24.338  -5.157  0.00  0.00    -0.347 N 
HETATM    2  C   UNK N   1      27.452  24.188  -3.815  0.00  0.00     0.218 C 
HETATM    3  O   UNK N   1      26.467  24.052  -3.094  0.00  0.00    -0.274 OA
HETATM    4  H   UNK N   1      28.119  24.423  -5.707  0.00  0.00     0.163 HD
ENDROOT
BRANCH   1   5
HETATM    5  C   UNK N   1      26.014  24.378  -5.823  0.00  0.00     0.182 C 
BRANCH   5   6
HETATM    6  C   UNK N   1      25.911  23.331  -6.920  0.00  0.00     0.163 C 
HETATM    7  O   UNK N   1      24.977  23.363  -7.707  0.00  0.00    -0.648 OA
BRANCH   6   8
HETATM    8  O   UNK N   1      26.831  22.353  -7.031  0.00  0.00    -0.775 OA
HETATM    9  H   UNK N   1      27.237  22.028  -7.810  0.00  0.00     0.167 HD
ENDBRANCH   6   8
ENDBRANCH   5   6
BRANCH   5  10
HETATM   10  C   UNK N   1      25.803  25.782  -6.391  0.00  0.00     0.035 C 
BRANCH  10  11
HETATM   11  C   UNK N   1      24.853  26.611  -5.537  0.00  0.00    -0.002 C 
HETATM   12  C   UNK N   1      25.624  27.684  -4.798  0.00  0.00     0.005 C 
ENDBRANCH  10  11
ENDBRANCH   5  10
ENDBRANCH   1   5
BRANCH   2  13
HETATM   13  C   UNK N   1      28.804  24.158  -3.187  0.00  0.00     0.113 C 
BRANCH  13  14
HETATM   14  C   UNK N   1      29.586  22.917  -3.596  0.00  0.00     0.119 C 
BRANCH  14  15
HETATM   15  C   UNK N   1      30.511  22.464  -2.501  0.00  0.00     0.139 C 
HETATM   16  O   UNK N   1      30.511  23.051  -1.432  0.00  0.00    -0.650 OA
BRANCH  15  17
HETATM   17  O   UNK N   1      31.331  21.408  -2.679  0.00  0.00    -0.776 OA
HETATM   18  H   UNK N   1      31.033  20.541  -2.483  0.00  0.00     0.167 HD
ENDBRANCH  15  17
ENDBRANCH  14  15
ENDBRANCH  13  14
ENDBRANCH   2  13
TORSDOF 9
ENDMDL
MODEL 7
REMARK VINA RESULT:      -5.0      3.900      6.101
REMARK  9 active torsions:
REMARK  status: ('A' for Active; 'I' for Inactive)
REMARK    1  A    between atoms: C_1  and  C_2 
REMARK    2  A    between atoms: C_1  and  C_5 
REMARK    3  A    between atoms: C_1  and  N_8 
REMARK    4  A    between atoms: C_2  and  O_3 
REMARK    5  A    between atoms: C_5  and  C_6 
REMARK       I    between atoms: N_8  and  C_9 
REMARK    6  A    between atoms: C_9  and  C_11 
REMARK    7  A    between atoms: C_11  and  C_12 
REMARK    8  A    between atoms: C_12  and  C_13 
REMARK    9  A    between atoms: C_13  and  O_14 
ROOT
HETATM    1  N   UNK N   1      31.472  17.421   6.925  0.00  0.00    -0.347 N 
HETATM    2  C   UNK N   1      30.454  16.537   6.761  0.00  0.00     0.218 C 
HETATM    3  O   UNK N   1      30.685  15.374   6.445  0.00  0.00    -0.274 OA
HETATM    4  H   UNK N   1      31.252  18.340   7.200  0.00  0.00     0.163 HD
ENDROOT
BRANCH   1   5
HETATM    5  C   UNK N   1      32.871  17.078   6.714  0.00  0.00     0.182 C 
BRANCH   5   6
HETATM    6  C   UNK N   1      33.766  17.679   7.784  0.00  0.00     0.163 C 
HETATM    7  O   UNK N   1      34.717  18.377   7.462  0.00  0.00    -0.648 OA
BRANCH   6   8
HETATM    8  O   UNK N   1      33.538  17.442   9.090  0.00  0.00    -0.775 OA
HETATM    9  H   UNK N   1      32.985  17.919   9.677  0.00  0.00     0.167 HD
ENDBRANCH   6   8
ENDBRANCH   5   6
BRANCH   5  10
HETATM   10  C   UNK N   1      33.286  17.563   5.324  0.00  0.00     0.035 C 
BRANCH  10  11
HETATM   11  C   UNK N   1      33.264  16.442   4.293  0.00  0.00    -0.002 C 
HETATM   12  C   UNK N   1      32.478  16.874   3.074  0.00  0.00     0.005 C 
ENDBRANCH  10  11
ENDBRANCH   5  10
ENDBRANCH   1   5
BRANCH   2  13
HETATM   13  C   UNK N   1      29.038  16.947   6.989  0.00  0.00     0.113 C 
BRANCH  13  14
HETATM   14  C   UNK N   1      28.945  18.360   7.547  0.00  0.00     0.119 C 
BRANCH  14  15
HETATM   15  C   UNK N   1      28.629  18.352   9.016  0.00  0.00     0.139 C 
HETATM   16  O   UNK N   1      29.492  18.666   9.819  0.00  0.00    -0.650 OA
BRANCH  15  17
HETATM   17  O   UNK N   1      27.400  18.016   9.460  0.00  0.00    -0.776 OA
HETATM   18  H   UNK N   1      27.279  17.736  10.346  0.00  0.00     0.167 HD
ENDBRANCH  15  17
ENDBRANCH  14  15
ENDBRANCH  13  14
ENDBRANCH   2  13
TORSDOF 9
ENDMDL
MODEL 8
REMARK VINA RESULT:      -4.9      3.125      6.166
REMARK  9 active torsions:
REMARK  status: ('A' for Active; 'I' for Inactive)
REMARK    1  A    between atoms: C_1  and  C_2 
REMARK    2  A    between atoms: C_1  and  C_5 
REMARK    3  A    between atoms: C_1  and  N_8 
REMARK    4  A    between atoms: C_2  and  O_3 
REMARK    5  A    between atoms: C_5  and  C_6 
REMARK       I    between atoms: N_8  and  C_9 
REMARK    6  A    between atoms: C_9  and  C_11 
REMARK    7  A    between atoms: C_11  and  C_12 
REMARK    8  A    between atoms: C_12  and  C_13 
REMARK    9  A    between atoms: C_13  and  O_14 
ROOT
HETATM    1  N   UNK N   1      32.532  16.876   8.278  0.00  0.00    -0.347 N 
HETATM    2  C   UNK N   1      31.312  17.471   8.328  0.00  0.00     0.218 C 
HETATM    3  O   UNK N   1      31.159  18.525   8.939  0.00  0.00    -0.274 OA
HETATM    4  H   UNK N   1      32.624  16.044   7.761  0.00  0.00     0.163 HD
ENDROOT
BRANCH   1   5
HETATM    5  C   UNK N   1      33.709  17.407   8.950  0.00  0.00     0.182 C 
BRANCH   5   6
HETATM    6  C   UNK N   1      34.544  18.275   8.024  0.00  0.00     0.163 C 
HETATM    7  O   UNK N   1      35.237  19.170   8.487  0.00  0.00    -0.648 OA
BRANCH   6   8
HETATM    8  O   UNK N   1      34.523  18.085   6.690  0.00  0.00    -0.775 OA
HETATM    9  H   UNK N   1      33.805  17.805   6.157  0.00  0.00     0.167 HD
ENDBRANCH   6   8
ENDBRANCH   5   6
BRANCH   5  10
HETATM   10  C   UNK N   1      34.534  16.235   9.484  0.00  0.00     0.035 C 
BRANCH  10  11
HETATM   11  C   UNK N   1      35.312  16.604  10.740  0.00  0.00    -0.002 C 
HETATM   12  C   UNK N   1      35.527  15.375  11.597  0.00  0.00     0.005 C 
ENDBRANCH  10  11
ENDBRANCH   5  10
ENDBRANCH   1   5
BRANCH   2  13
HETATM   13  C   UNK N   1      30.140  16.878   7.621  0.00  0.00     0.113 C 
BRANCH  13  14
HETATM   14  C   UNK N   1      30.552  16.195   6.325  0.00  0.00     0.119 C 
BRANCH  14  15
HETATM   15  C   UNK N   1      30.966  17.196   5.282  0.00  0.00     0.139 C 
HETATM   16  O   UNK N   1      30.111  17.798   4.654  0.00  0.00    -0.650 OA
BRANCH  15  17
HETATM   17  O   UNK N   1      32.268  17.447   5.039  0.00  0.00    -0.776 OA
HETATM   18  H   UNK N   1      32.909  17.304   5.708  0.00  0.00     0.167 HD
ENDBRANCH  15  17
ENDBRANCH  14  15
ENDBRANCH  13  14
ENDBRANCH   2  13
TORSDOF 9
ENDMDL
MODEL 9
REMARK VINA RESULT:      -4.9      2.167      2.723
REMARK  9 active torsions:
REMARK  status: ('A' for Active; 'I' for Inactive)
REMARK    1  A    between atoms: C_1  and  C_2 
REMARK    2  A    between atoms: C_1  and  C_5 
REMARK    3  A    between atoms: C_1  and  N_8 
REMARK    4  A    between atoms: C_2  and  O_3 
REMARK    5  A    between atoms: C_5  and  C_6 
REMARK       I    between atoms: N_8  and  C_9 
REMARK    6  A    between atoms: C_9  and  C_11 
REMARK    7  A    between atoms: C_11  and  C_12 
REMARK    8  A    between atoms: C_12  and  C_13 
REMARK    9  A    between atoms: C_13  and  O_14 
ROOT
HETATM    1  N   UNK N   1      34.288  16.377   8.929  0.00  0.00    -0.347 N 
HETATM    2  C   UNK N   1      35.346  16.497   9.772  0.00  0.00     0.218 C 
HETATM    3  O   UNK N   1      35.581  17.567  10.325  0.00  0.00    -0.274 OA
HETATM    4  H   UNK N   1      34.115  15.499   8.519  0.00  0.00     0.163 HD
ENDROOT
BRANCH   1   5
HETATM    5  C   UNK N   1      33.397  17.480   8.601  0.00  0.00     0.182 C 
BRANCH   5   6
HETATM    6  C   UNK N   1      31.939  17.053   8.620  0.00  0.00     0.163 C 
HETATM    7  O   UNK N   1      31.109  17.686   7.983  0.00  0.00    -0.648 OA
BRANCH   6   8
HETATM    8  O   UNK N   1      31.539  15.990   9.344  0.00  0.00    -0.775 OA
HETATM    9  H   UNK N   1      31.230  15.161   9.034  0.00  0.00     0.167 HD
ENDBRANCH   6   8
ENDBRANCH   5   6
BRANCH   5  10
HETATM   10  C   UNK N   1      33.784  18.025   7.225  0.00  0.00     0.035 C 
BRANCH  10  11
HETATM   11  C   UNK N   1      33.915  16.921   6.185  0.00  0.00    -0.002 C 
HETATM   12  C   UNK N   1      33.161  17.301   4.928  0.00  0.00     0.005 C 
ENDBRANCH  10  11
ENDBRANCH   5  10
ENDBRANCH   1   5
BRANCH   2  13
HETATM   13  C   UNK N   1      36.227  15.331  10.068  0.00  0.00     0.113 C 
BRANCH  13  14
HETATM   14  C   UNK N   1      35.419  14.069  10.335  0.00  0.00     0.119 C 
BRANCH  14  15
HETATM   15  C   UNK N   1      34.480  14.252  11.496  0.00  0.00     0.139 C 
HETATM   16  O   UNK N   1      34.836  13.924  12.615  0.00  0.00    -0.650 OA
BRANCH  15  17
HETATM   17  O   UNK N   1      33.255  14.787  11.319  0.00  0.00    -0.776 OA
HETATM   18  H   UNK N   1      32.950  14.994  10.457  0.00  0.00     0.167 HD
ENDBRANCH  15  17
ENDBRANCH  14  15
ENDBRANCH  13  14
ENDBRANCH   2  13
TORSDOF 9
ENDMDL
