MODEL 1
REMARK VINA RESULT:      -6.5      0.000      0.000
REMARK  2 active torsions:
REMARK  status: ('A' for Active; 'I' for Inactive)
REMARK    1  A    between atoms: C_3  and  O_4 
REMARK    2  A    between atoms: C_10  and  C_15 
ROOT
HETATM    1 Cl   UNK N   1      32.553  17.041   4.005  0.00  0.00    -0.081 Cl
HETATM    2  C   UNK N   1      31.779  17.240   5.567  0.00  0.00     0.068 A 
HETATM    3  C   UNK N   1      32.530  17.317   6.743  0.00  0.00     0.090 A 
HETATM    4  C   UNK N   1      30.393  17.322   5.623  0.00  0.00     0.041 A 
HETATM    5  C   UNK N   1      29.714  17.481   6.838  0.00  0.00    -0.001 A 
HETATM    6  C   UNK N   1      30.464  17.558   8.020  0.00  0.00    -0.041 A 
HETATM    7  C   UNK N   1      31.862  17.477   7.971  0.00  0.00     0.046 A 
HETATM    8  C   UNK N   1      28.221  17.568   6.888  0.00  0.00     0.049 A 
HETATM    9  N   UNK N   1      27.624  17.715   8.026  0.00  0.00    -0.388 N 
ATOM     10  HN  UNK N   1      26.606  17.769   8.011  1.00  0.00     0.159 HD
HETATM   11  C   UNK N   1      28.269  17.810   9.326  0.00  0.00     0.124 A 
HETATM   12  C   UNK N   1      29.800  17.728   9.346  0.00  0.00     0.059 A 
ENDROOT
BRANCH   8  13
HETATM   13  C   UNK N   1      27.368  17.490   5.650  0.00  0.00    -0.008 A 
HETATM   14  C   UNK N   1      26.911  18.668   5.032  0.00  0.00     0.032 A 
HETATM   15  C   UNK N   1      26.117  18.606   3.880  0.00  0.00     0.011 A 
HETATM   16 Br   UNK N   1      25.501  20.203   3.046  0.00  0.00    -0.051 Br
HETATM   17  C   UNK N   1      25.769  17.369   3.332  0.00  0.00     0.019 A 
HETATM   18  C   UNK N   1      26.214  16.194   3.934  0.00  0.00     0.002 A 
HETATM   19  C   UNK N   1      27.004  16.258   5.080  0.00  0.00     0.014 A 
ENDBRANCH   8  13
BRANCH   3  20
HETATM   20  O   UNK N   1      33.881  17.236   6.673  0.00  0.00    -0.354 OA
HETATM   21  C   UNK N   1      34.581  16.069   6.874  0.00  0.00     0.210 C 
ENDBRANCH   3  20
TORSDOF 2
ENDMDL
MODEL 2
REMARK VINA RESULT:      -6.4      9.508     11.679
REMARK  2 active torsions:
REMARK  status: ('A' for Active; 'I' for Inactive)
REMARK    1  A    between atoms: C_3  and  O_4 
REMARK    2  A    between atoms: C_10  and  C_15 
ROOT
HETATM    1 Cl   UNK N   1      37.172  15.502  16.694  0.00  0.00    -0.081 Cl
HETATM    2  C   UNK N   1      36.185  14.125  16.239  0.00  0.00     0.068 A 
HETATM    3  C   UNK N   1      35.538  13.347  17.204  0.00  0.00     0.090 A 
HETATM    4  C   UNK N   1      36.050  13.812  14.892  0.00  0.00     0.041 A 
HETATM    5  C   UNK N   1      35.276  12.726  14.463  0.00  0.00    -0.001 A 
HETATM    6  C   UNK N   1      34.626  11.943  15.427  0.00  0.00    -0.041 A 
HETATM    7  C   UNK N   1      34.757  12.252  16.788  0.00  0.00     0.046 A 
HETATM    8  C   UNK N   1      35.137  12.398  13.010  0.00  0.00     0.049 A 
HETATM    9  N   UNK N   1      34.415  11.388  12.646  0.00  0.00    -0.388 N 
ATOM     10  HN  UNK N   1      34.350  11.203  11.645  1.00  0.00     0.159 HD
HETATM   11  C   UNK N   1      33.687  10.492  13.530  0.00  0.00     0.124 A 
HETATM   12  C   UNK N   1      33.787  10.773  15.035  0.00  0.00     0.059 A 
ENDROOT
BRANCH   8  13
HETATM   13  C   UNK N   1      35.813  13.205  11.933  0.00  0.00    -0.008 A 
HETATM   14  C   UNK N   1      35.170  14.329  11.385  0.00  0.00     0.032 A 
HETATM   15  C   UNK N   1      35.791  15.086  10.383  0.00  0.00     0.011 A 
HETATM   16 Br   UNK N   1      34.917  16.608   9.644  0.00  0.00    -0.051 Br
HETATM   17  C   UNK N   1      37.058  14.730   9.917  0.00  0.00     0.019 A 
HETATM   18  C   UNK N   1      37.706  13.619  10.451  0.00  0.00     0.002 A 
HETATM   19  C   UNK N   1      37.087  12.867  11.448  0.00  0.00     0.014 A 
ENDBRANCH   8  13
BRANCH   3  20
HETATM   20  O   UNK N   1      35.679  13.664  18.514  0.00  0.00    -0.354 OA
HETATM   21  C   UNK N   1      35.233  12.862  19.539  0.00  0.00     0.210 C 
ENDBRANCH   3  20
TORSDOF 2
ENDMDL
MODEL 3
REMARK VINA RESULT:      -6.3      2.312      3.350
REMARK  2 active torsions:
REMARK  status: ('A' for Active; 'I' for Inactive)
REMARK    1  A    between atoms: C_3  and  O_4 
REMARK    2  A    between atoms: C_10  and  C_15 
ROOT
HETATM    1 Cl   UNK N   1      30.006  17.606   9.268  0.00  0.00    -0.081 Cl
HETATM    2  C   UNK N   1      30.873  17.447   7.752  0.00  0.00     0.068 A 
HETATM    3  C   UNK N   1      32.270  17.440   7.714  0.00  0.00     0.090 A 
HETATM    4  C   UNK N   1      30.147  17.328   6.573  0.00  0.00     0.041 A 
HETATM    5  C   UNK N   1      30.778  17.198   5.330  0.00  0.00    -0.001 A 
HETATM    6  C   UNK N   1      32.180  17.189   5.287  0.00  0.00    -0.041 A 
HETATM    7  C   UNK N   1      32.919  17.310   6.471  0.00  0.00     0.046 A 
HETATM    8  C   UNK N   1      29.988  17.069   4.066  0.00  0.00     0.049 A 
HETATM    9  N   UNK N   1      30.602  16.951   2.934  0.00  0.00    -0.388 N 
ATOM     10  HN  UNK N   1      30.021  16.866   2.100  1.00  0.00     0.159 HD
HETATM   11  C   UNK N   1      32.042  16.927   2.738  0.00  0.00     0.124 A 
HETATM   12  C   UNK N   1      32.913  17.054   3.994  0.00  0.00     0.059 A 
ENDROOT
BRANCH   8  13
HETATM   13  C   UNK N   1      28.482  17.072   4.054  0.00  0.00    -0.008 A 
HETATM   14  C   UNK N   1      27.779  18.287   3.973  0.00  0.00     0.032 A 
HETATM   15  C   UNK N   1      26.378  18.299   3.961  0.00  0.00     0.011 A 
HETATM   16 Br   UNK N   1      25.429  19.947   3.850  0.00  0.00    -0.051 Br
HETATM   17  C   UNK N   1      25.664  17.101   4.031  0.00  0.00     0.019 A 
HETATM   18  C   UNK N   1      26.348  15.890   4.112  0.00  0.00     0.002 A 
HETATM   19  C   UNK N   1      27.741  15.880   4.124  0.00  0.00     0.014 A 
ENDBRANCH   8  13
BRANCH   3  20
HETATM   20  O   UNK N   1      32.965  17.557   8.871  0.00  0.00    -0.354 OA
HETATM   21  C   UNK N   1      34.312  17.296   8.976  0.00  0.00     0.210 C 
ENDBRANCH   3  20
TORSDOF 2
ENDMDL
MODEL 4
REMARK VINA RESULT:      -6.2      4.014      6.781
REMARK  2 active torsions:
REMARK  status: ('A' for Active; 'I' for Inactive)
REMARK    1  A    between atoms: C_3  and  O_4 
REMARK    2  A    between atoms: C_10  and  C_15 
ROOT
HETATM    1 Cl   UNK N   1      27.400  21.100   5.546  0.00  0.00    -0.081 Cl
HETATM    2  C   UNK N   1      27.220  19.564   4.718  0.00  0.00     0.068 A 
HETATM    3  C   UNK N   1      26.008  19.200   4.124  0.00  0.00     0.090 A 
HETATM    4  C   UNK N   1      28.308  18.702   4.659  0.00  0.00     0.041 A 
HETATM    5  C   UNK N   1      28.230  17.462   4.013  0.00  0.00    -0.001 A 
HETATM    6  C   UNK N   1      27.017  17.092   3.415  0.00  0.00    -0.041 A 
HETATM    7  C   UNK N   1      25.915  17.956   3.471  0.00  0.00     0.046 A 
HETATM    8  C   UNK N   1      29.408  16.541   3.955  0.00  0.00     0.049 A 
HETATM    9  N   UNK N   1      29.303  15.402   3.350  0.00  0.00    -0.388 N 
ATOM     10  HN  UNK N   1      30.132  14.808   3.336  1.00  0.00     0.159 HD
HETATM   11  C   UNK N   1      28.114  14.889   2.689  0.00  0.00     0.124 A 
HETATM   12  C   UNK N   1      26.869  15.784   2.712  0.00  0.00     0.059 A 
ENDROOT
BRANCH   8  13
HETATM   13  C   UNK N   1      30.733  16.888   4.579  0.00  0.00    -0.008 A 
HETATM   14  C   UNK N   1      30.904  16.792   5.971  0.00  0.00     0.032 A 
HETATM   15  C   UNK N   1      32.134  17.113   6.561  0.00  0.00     0.011 A 
HETATM   16 Br   UNK N   1      32.361  16.982   8.447  0.00  0.00    -0.051 Br
HETATM   17  C   UNK N   1      33.205  17.531   5.769  0.00  0.00     0.019 A 
HETATM   18  C   UNK N   1      33.050  17.630   4.389  0.00  0.00     0.002 A 
HETATM   19  C   UNK N   1      31.826  17.311   3.803  0.00  0.00     0.014 A 
ENDBRANCH   8  13
BRANCH   3  20
HETATM   20  O   UNK N   1      24.955  20.050   4.190  0.00  0.00    -0.354 OA
HETATM   21  C   UNK N   1      23.805  19.890   3.452  0.00  0.00     0.210 C 
ENDBRANCH   3  20
TORSDOF 2
ENDMDL
MODEL 5
REMARK VINA RESULT:      -6.2      2.010      2.354
REMARK  2 active torsions:
REMARK  status: ('A' for Active; 'I' for Inactive)
REMARK    1  A    between atoms: C_3  and  O_4 
REMARK    2  A    between atoms: C_10  and  C_15 
ROOT
HETATM    1 Cl   UNK N   1      33.102  17.016   4.670  0.00  0.00    -0.081 Cl
HETATM    2  C   UNK N   1      32.093  17.298   6.078  0.00  0.00     0.068 A 
HETATM    3  C   UNK N   1      32.634  17.783   7.272  0.00  0.00     0.090 A 
HETATM    4  C   UNK N   1      30.732  17.030   5.992  0.00  0.00     0.041 A 
HETATM    5  C   UNK N   1      29.872  17.234   7.079  0.00  0.00    -0.001 A 
HETATM    6  C   UNK N   1      30.411  17.721   8.278  0.00  0.00    -0.041 A 
HETATM    7  C   UNK N   1      31.782  17.993   8.372  0.00  0.00     0.046 A 
HETATM    8  C   UNK N   1      28.408  16.942   6.976  0.00  0.00     0.049 A 
HETATM    9  N   UNK N   1      27.641  17.141   7.999  0.00  0.00    -0.388 N 
ATOM     10  HN  UNK N   1      26.650  16.928   7.882  1.00  0.00     0.159 HD
HETATM   11  C   UNK N   1      28.058  17.640   9.299  0.00  0.00     0.124 A 
HETATM   12  C   UNK N   1      29.548  17.959   9.472  0.00  0.00     0.059 A 
ENDROOT
BRANCH   8  13
HETATM   13  C   UNK N   1      27.777  16.419   5.714  0.00  0.00    -0.008 A 
HETATM   14  C   UNK N   1      27.724  15.034   5.472  0.00  0.00     0.032 A 
HETATM   15  C   UNK N   1      27.139  14.538   4.300  0.00  0.00     0.011 A 
HETATM   16 Br   UNK N   1      27.069  12.662   3.978  0.00  0.00    -0.051 Br
HETATM   17  C   UNK N   1      26.602  15.416   3.357  0.00  0.00     0.019 A 
HETATM   18  C   UNK N   1      26.647  16.789   3.583  0.00  0.00     0.002 A 
HETATM   19  C   UNK N   1      27.230  17.282   4.749  0.00  0.00     0.014 A 
ENDBRANCH   8  13
BRANCH   3  20
HETATM   20  O   UNK N   1      33.963  18.040   7.340  0.00  0.00    -0.354 OA
HETATM   21  C   UNK N   1      34.682  18.000   8.513  0.00  0.00     0.210 C 
ENDBRANCH   3  20
TORSDOF 2
ENDMDL
MODEL 6
REMARK VINA RESULT:      -6.1      3.523      6.288
REMARK  2 active torsions:
REMARK  status: ('A' for Active; 'I' for Inactive)
REMARK    1  A    between atoms: C_3  and  O_4 
REMARK    2  A    between atoms: C_10  and  C_15 
ROOT
HETATM    1 Cl   UNK N   1      30.239  16.484   3.223  0.00  0.00    -0.081 Cl
HETATM    2  C   UNK N   1      29.641  17.118   4.746  0.00  0.00     0.068 A 
HETATM    3  C   UNK N   1      28.384  17.722   4.835  0.00  0.00     0.090 A 
HETATM    4  C   UNK N   1      30.442  17.011   5.876  0.00  0.00     0.041 A 
HETATM    5  C   UNK N   1      30.023  17.497   7.122  0.00  0.00    -0.001 A 
HETATM    6  C   UNK N   1      28.763  18.103   7.216  0.00  0.00    -0.041 A 
HETATM    7  C   UNK N   1      27.950  18.214   6.080  0.00  0.00     0.046 A 
HETATM    8  C   UNK N   1      30.892  17.377   8.334  0.00  0.00     0.049 A 
HETATM    9  N   UNK N   1      30.477  17.836   9.470  0.00  0.00    -0.388 N 
ATOM     10  HN  UNK N   1      31.104  17.732  10.268  1.00  0.00     0.159 HD
HETATM   11  C   UNK N   1      29.200  18.486   9.716  0.00  0.00     0.124 A 
HETATM   12  C   UNK N   1      28.259  18.641   8.515  0.00  0.00     0.059 A 
ENDROOT
BRANCH   8  13
HETATM   13  C   UNK N   1      32.254  16.736   8.289  0.00  0.00    -0.008 A 
HETATM   14  C   UNK N   1      32.399  15.366   8.574  0.00  0.00     0.032 A 
HETATM   15  C   UNK N   1      33.661  14.761   8.535  0.00  0.00     0.011 A 
HETATM   16 Br   UNK N   1      33.853  12.906   8.922  0.00  0.00    -0.051 Br
HETATM   17  C   UNK N   1      34.792  15.514   8.211  0.00  0.00     0.019 A 
HETATM   18  C   UNK N   1      34.663  16.871   7.927  0.00  0.00     0.002 A 
HETATM   19  C   UNK N   1      33.406  17.472   7.966  0.00  0.00     0.014 A 
ENDBRANCH   8  13
BRANCH   3  20
HETATM   20  O   UNK N   1      27.615  17.818   3.724  0.00  0.00    -0.354 OA
HETATM   21  C   UNK N   1      26.439  17.124   3.554  0.00  0.00     0.210 C 
ENDBRANCH   3  20
TORSDOF 2
ENDMDL
MODEL 7
REMARK VINA RESULT:      -6.0     11.592     13.327
REMARK  2 active torsions:
REMARK  status: ('A' for Active; 'I' for Inactive)
REMARK    1  A    between atoms: C_3  and  O_4 
REMARK    2  A    between atoms: C_10  and  C_15 
ROOT
HETATM    1 Cl   UNK N   1      28.618  21.117  -8.815  0.00  0.00    -0.081 Cl
HETATM    2  C   UNK N   1      29.273  21.307  -7.199  0.00  0.00     0.068 A 
HETATM    3  C   UNK N   1      30.241  20.430  -6.702  0.00  0.00     0.090 A 
HETATM    4  C   UNK N   1      28.814  22.353  -6.408  0.00  0.00     0.041 A 
HETATM    5  C   UNK N   1      29.297  22.560  -5.109  0.00  0.00    -0.001 A 
HETATM    6  C   UNK N   1      30.268  21.682  -4.607  0.00  0.00    -0.041 A 
HETATM    7  C   UNK N   1      30.736  20.625  -5.398  0.00  0.00     0.046 A 
HETATM    8  C   UNK N   1      28.796  23.690  -4.265  0.00  0.00     0.049 A 
HETATM    9  N   UNK N   1      29.263  23.853  -3.069  0.00  0.00    -0.388 N 
ATOM     10  HN  UNK N   1      28.891  24.637  -2.532  1.00  0.00     0.159 HD
HETATM   11  C   UNK N   1      30.266  23.026  -2.420  0.00  0.00     0.124 A 
HETATM   12  C   UNK N   1      30.822  21.849  -3.231  0.00  0.00     0.059 A 
ENDROOT
BRANCH   8  13
HETATM   13  C   UNK N   1      27.756  24.661  -4.754  0.00  0.00    -0.008 A 
HETATM   14  C   UNK N   1      28.145  25.895  -5.305  0.00  0.00     0.032 A 
HETATM   15  C   UNK N   1      27.183  26.805  -5.763  0.00  0.00     0.011 A 
HETATM   16 Br   UNK N   1      27.715  28.475  -6.509  0.00  0.00    -0.051 Br
HETATM   17  C   UNK N   1      25.825  26.495  -5.676  0.00  0.00     0.019 A 
HETATM   18  C   UNK N   1      25.425  25.277  -5.133  0.00  0.00     0.002 A 
HETATM   19  C   UNK N   1      26.382  24.372  -4.678  0.00  0.00     0.014 A 
ENDBRANCH   8  13
BRANCH   3  20
HETATM   20  O   UNK N   1      30.679  19.414  -7.485  0.00  0.00    -0.354 OA
HETATM   21  C   UNK N   1      31.906  19.413  -8.108  0.00  0.00     0.210 C 
ENDBRANCH   3  20
TORSDOF 2
ENDMDL
MODEL 8
REMARK VINA RESULT:      -6.0      7.786      9.524
REMARK  2 active torsions:
REMARK  status: ('A' for Active; 'I' for Inactive)
REMARK    1  A    between atoms: C_3  and  O_4 
REMARK    2  A    between atoms: C_10  and  C_15 
ROOT
HETATM    1 Cl   UNK N   1      24.470  16.248   4.961  0.00  0.00    -0.081 Cl
HETATM    2  C   UNK N   1      22.996  16.595   5.847  0.00  0.00     0.068 A 
HETATM    3  C   UNK N   1      22.262  17.759   5.604  0.00  0.00     0.090 A 
HETATM    4  C   UNK N   1      22.561  15.688   6.805  0.00  0.00     0.041 A 
HETATM    5  C   UNK N   1      21.393  15.905   7.547  0.00  0.00    -0.001 A 
HETATM    6  C   UNK N   1      20.653  17.072   7.306  0.00  0.00    -0.041 A 
HETATM    7  C   UNK N   1      21.085  17.991   6.342  0.00  0.00     0.046 A 
HETATM    8  C   UNK N   1      20.932  14.923   8.577  0.00  0.00     0.049 A 
HETATM    9  N   UNK N   1      19.849  15.153   9.245  0.00  0.00    -0.388 N 
ATOM     10  HN  UNK N   1      19.575  14.455   9.936  1.00  0.00     0.159 HD
HETATM   11  C   UNK N   1      18.985  16.314   9.103  0.00  0.00     0.124 A 
HETATM   12  C   UNK N   1      19.400  17.362   8.063  0.00  0.00     0.059 A 
ENDROOT
BRANCH   8  13
HETATM   13  C   UNK N   1      21.688  13.655   8.875  0.00  0.00    -0.008 A 
HETATM   14  C   UNK N   1      22.116  13.380  10.186  0.00  0.00     0.032 A 
HETATM   15  C   UNK N   1      22.820  12.203  10.473  0.00  0.00     0.011 A 
HETATM   16 Br   UNK N   1      23.398  11.835  12.250  0.00  0.00    -0.051 Br
HETATM   17  C   UNK N   1      23.103  11.288   9.456  0.00  0.00     0.019 A 
HETATM   18  C   UNK N   1      22.685  11.547   8.154  0.00  0.00     0.002 A 
HETATM   19  C   UNK N   1      21.985  12.719   7.870  0.00  0.00     0.014 A 
ENDBRANCH   8  13
BRANCH   3  20
HETATM   20  O   UNK N   1      22.698  18.634   4.666  0.00  0.00    -0.354 OA
HETATM   21  C   UNK N   1      21.925  19.064   3.613  0.00  0.00     0.210 C 
ENDBRANCH   3  20
TORSDOF 2
ENDMDL
MODEL 9
REMARK VINA RESULT:      -5.6      6.726      8.545
REMARK  2 active torsions:
REMARK  status: ('A' for Active; 'I' for Inactive)
REMARK    1  A    between atoms: C_3  and  O_4 
REMARK    2  A    between atoms: C_10  and  C_15 
ROOT
HETATM    1 Cl   UNK N   1      24.052  11.461   8.354  0.00  0.00    -0.081 Cl
HETATM    2  C   UNK N   1      22.937  12.807   8.506  0.00  0.00     0.068 A 
HETATM    3  C   UNK N   1      22.067  12.907   9.595  0.00  0.00     0.090 A 
HETATM    4  C   UNK N   1      22.928  13.786   7.520  0.00  0.00     0.041 A 
HETATM    5  C   UNK N   1      22.063  14.885   7.582  0.00  0.00    -0.001 A 
HETATM    6  C   UNK N   1      21.188  14.989   8.673  0.00  0.00    -0.041 A 
HETATM    7  C   UNK N   1      21.191  14.006   9.671  0.00  0.00     0.046 A 
HETATM    8  C   UNK N   1      22.061  15.934   6.515  0.00  0.00     0.049 A 
HETATM    9  N   UNK N   1      21.249  16.937   6.602  0.00  0.00    -0.388 N 
ATOM     10  HN  UNK N   1      21.284  17.626   5.851  1.00  0.00     0.159 HD
HETATM   11  C   UNK N   1      20.291  17.175   7.669  0.00  0.00     0.124 A 
HETATM   12  C   UNK N   1      20.241  16.136   8.797  0.00  0.00     0.059 A 
ENDROOT
BRANCH   8  13
HETATM   13  C   UNK N   1      22.978  15.871   5.322  0.00  0.00    -0.008 A 
HETATM   14  C   UNK N   1      22.538  15.286   4.122  0.00  0.00     0.032 A 
HETATM   15  C   UNK N   1      23.385  15.223   3.008  0.00  0.00     0.011 A 
HETATM   16 Br   UNK N   1      22.785  14.429   1.385  0.00  0.00    -0.051 Br
HETATM   17  C   UNK N   1      24.679  15.744   3.079  0.00  0.00     0.019 A 
HETATM   18  C   UNK N   1      25.128  16.327   4.261  0.00  0.00     0.002 A 
HETATM   19  C   UNK N   1      24.284  16.388   5.369  0.00  0.00     0.014 A 
ENDBRANCH   8  13
BRANCH   3  20
HETATM   20  O   UNK N   1      22.086  11.945  10.550  0.00  0.00    -0.354 OA
HETATM   21  C   UNK N   1      22.798  12.056  11.722  0.00  0.00     0.210 C 
ENDBRANCH   3  20
TORSDOF 2
ENDMDL
