REMARK  2 active torsions:
REMARK  status: ('A' for Active; 'I' for Inactive)
REMARK    1  A    between atoms: C_3  and  O_4 
REMARK    2  A    between atoms: C_10  and  C_15 
ROOT
HETATM    1 Cl   UNK N   1      -3.242   0.198   0.000  0.00  0.00    -0.081 Cl
HETATM    2  C   UNK N   1      -1.735   1.096   0.000  0.00  0.00     0.068 A 
HETATM    3  C   UNK N   1      -1.725   2.494   0.000  0.00  0.00     0.090 A 
HETATM    4  C   UNK N   1      -0.536   0.394   0.000  0.00  0.00     0.041 A 
HETATM    5  C   UNK N   1       0.701   1.051   0.000  0.00  0.00    -0.001 A 
HETATM    6  C   UNK N   1       0.716   2.453   0.000  0.00  0.00    -0.041 A 
HETATM    7  C   UNK N   1      -0.489   3.168   0.000  0.00  0.00     0.046 A 
HETATM    8  C   UNK N   1       1.987   0.286   0.000  0.00  0.00     0.049 A 
HETATM    9  N   UNK N   1       3.113   0.923   0.000  0.00  0.00    -0.388 N 
ATOM     10  HN  UNK N   1       3.963   0.359   0.000  1.00  0.00     0.159 HD
HETATM   11  C   UNK N   1       3.281   2.367   0.000  0.00  0.00     0.124 A 
HETATM   12  C   UNK N   1       2.001   3.212  -0.000  0.00  0.00     0.059 A 
ENDROOT
BRANCH   8  13
HETATM   13  C   UNK N   1       2.029  -1.219  -0.000  0.00  0.00    -0.008 A 
HETATM   14  C   UNK N   1       3.264  -1.891   0.000  0.00  0.00     0.032 A 
HETATM   15  C   UNK N   1       3.313  -3.291  -0.000  0.00  0.00     0.011 A 
HETATM   16 Br   UNK N   1       4.988  -4.197   0.000  0.00  0.00    -0.051 Br
HETATM   17  C   UNK N   1       2.131  -4.035  -0.000  0.00  0.00     0.019 A 
HETATM   18  C   UNK N   1       0.901  -3.383  -0.000  0.00  0.00     0.002 A 
HETATM   19  C   UNK N   1       0.854  -1.990  -0.000  0.00  0.00     0.014 A 
ENDBRANCH   8  13
BRANCH   3  20
HETATM   20  O   UNK N   1      -2.902   3.165   0.000  0.00  0.00    -0.354 OA
HETATM   21  C   UNK N   1      -2.991   4.538  -0.000  0.00  0.00     0.210 C 
ENDBRANCH   3  20
TORSDOF 2
