REMARK  7 active torsions:
REMARK  status: ('A' for Active; 'I' for Inactive)
REMARK    1  A    between atoms: C_1  and  C_21 
REMARK    2  A    between atoms: C_3  and  N_9 
REMARK    3  A    between atoms: C_4  and  C_6 
REMARK    4  A    between atoms: C_6  and  O_7 
REMARK    5  A    between atoms: N_9  and  S_10 
REMARK    6  A    between atoms: S_10  and  C_13 
REMARK    7  A    between atoms: C_24  and  C_26 
ROOT
HETATM    1  C   UNK N   1       0.239   2.427   0.112  0.00  0.00     0.025 A 
HETATM    2  C   UNK N   1       1.302   1.531   0.228  0.00  0.00     0.052 A 
HETATM    3  C   UNK N   1       0.876   0.219   0.556  0.00  0.00     0.067 A 
HETATM    4  C   UNK N   1      -0.520   0.104   0.737  0.00  0.00     0.106 A 
HETATM    5  S   UNK N   1      -1.161   1.596   0.418  0.00  0.00    -0.080 SA
ENDROOT
BRANCH   3   6
HETATM    6  N   UNK N   1       1.806  -0.834   0.694  0.00  0.00    -0.279 N 
HETATM    7  H   UNK N   1       2.421  -0.842   1.462  0.00  0.00     0.179 HD
BRANCH   6   8
HETATM    8  S   UNK N   1       1.877  -2.129  -0.489  0.00  0.00     0.263 S 
HETATM    9  O   UNK N   1       3.317  -2.655  -0.390  0.00  0.00    -0.200 OA
HETATM   10  O   UNK N   1       1.886  -1.432  -1.859  0.00  0.00    -0.200 OA
BRANCH   8  11
HETATM   11  C   UNK N   1       0.652  -3.421  -0.299  0.00  0.00     0.085 A 
HETATM   12  C   UNK N   1       0.902  -4.435   0.630  0.00  0.00     0.026 A 
HETATM   13  C   UNK N   1      -0.070  -5.400   0.898  0.00  0.00     0.008 A 
HETATM   14  C   UNK N   1      -1.301  -5.351   0.242  0.00  0.00    -0.061 A 
HETATM   15  C   UNK N   1      -1.555  -4.349  -0.698  0.00  0.00     0.015 A 
HETATM   16  C   UNK N   1      -2.349  -6.355   0.558  0.00  0.00     0.048 C 
HETATM   17  C   UNK N   1      -0.585  -3.382  -0.977  0.00  0.00    -0.038 A 
HETATM   18  C   UNK N   1      -0.914  -2.300  -1.950  0.00  0.00     0.050 C 
ENDBRANCH   8  11
ENDBRANCH   6   8
ENDBRANCH   3   6
BRANCH   4  19
HETATM   19  C   UNK N   1      -1.308  -1.047   1.216  0.00  0.00     0.185 C 
HETATM   20  O   UNK N   1      -0.755  -2.026   1.677  0.00  0.00    -0.646 OA
BRANCH  19  21
HETATM   21  O   UNK N   1      -2.654  -0.974   1.238  0.00  0.00    -0.772 OA
HETATM   22  H   UNK N   1      -3.078  -0.138   1.254  0.00  0.00     0.167 HD
ENDBRANCH  19  21
ENDBRANCH   4  19
BRANCH   1  23
HETATM   23  C   UNK N   1       0.363   3.871  -0.056  0.00  0.00     0.023 A 
HETATM   24  C   UNK N   1      -0.683   4.797  -0.127  0.00  0.00     0.021 A 
HETATM   25  C   UNK N   1      -0.227   6.148  -0.118  0.00  0.00     0.024 A 
HETATM   26  C   UNK N   1       1.167   6.253  -0.023  0.00  0.00     0.051 A 
HETATM   27  S   UNK N   1       1.780   4.719   0.016  0.00  0.00    -0.086 SA
BRANCH  26  28
HETATM   28  C   UNK N   1       1.948   7.491   0.102  0.00  0.00     0.162 C 
HETATM   29  C   UNK N   1       1.266   8.817   0.121  0.00  0.00     0.097 C 
HETATM   30  O   UNK N   1       3.161   7.438   0.231  0.00  0.00    -0.292 OA
ENDBRANCH  26  28
ENDBRANCH   1  23
TORSDOF 7
