MODEL 1
REMARK VINA RESULT:      -7.3      0.000      0.000
REMARK  7 active torsions:
REMARK  status: ('A' for Active; 'I' for Inactive)
REMARK    1  A    between atoms: C_1  and  C_21 
REMARK    2  A    between atoms: C_3  and  N_9 
REMARK    3  A    between atoms: C_4  and  C_6 
REMARK    4  A    between atoms: C_6  and  O_7 
REMARK    5  A    between atoms: N_9  and  S_10 
REMARK    6  A    between atoms: S_10  and  C_13 
REMARK    7  A    between atoms: C_24  and  C_26 
ROOT
HETATM    1  C   UNK N   1      20.884  17.325   5.077  0.00  0.00     0.025 A 
HETATM    2  C   UNK N   1      19.980  16.941   4.087  0.00  0.00     0.052 A 
HETATM    3  C   UNK N   1      19.986  17.820   2.973  0.00  0.00     0.067 A 
HETATM    4  C   UNK N   1      20.867  18.914   3.118  0.00  0.00     0.106 A 
HETATM    5  S   UNK N   1      21.640  18.708   4.567  0.00  0.00    -0.080 SA
ENDROOT
BRANCH   3   6
HETATM    6  N   UNK N   1      19.154  17.584   1.858  0.00  0.00    -0.279 N 
HETATM    7  H   UNK N   1      18.258  17.990   1.825  0.00  0.00     0.179 HD
BRANCH   6   8
HETATM    8  S   UNK N   1      19.700  16.576   0.528  0.00  0.00     0.263 S 
HETATM    9  O   UNK N   1      20.550  17.517  -0.338  0.00  0.00    -0.200 OA
HETATM   10  O   UNK N   1      18.462  16.360  -0.357  0.00  0.00    -0.200 OA
BRANCH   8  11
HETATM   11  C   UNK N   1      20.573  15.084   0.995  0.00  0.00     0.085 A 
HETATM   12  C   UNK N   1      21.913  15.196   1.377  0.00  0.00     0.026 A 
HETATM   13  C   UNK N   1      22.604  14.083   1.858  0.00  0.00     0.008 A 
HETATM   14  C   UNK N   1      21.955  12.852   1.966  0.00  0.00    -0.061 A 
HETATM   15  C   UNK N   1      20.620  12.727   1.573  0.00  0.00     0.015 A 
HETATM   16  C   UNK N   1      22.680  11.678   2.516  0.00  0.00     0.048 C 
HETATM   17  C   UNK N   1      19.922  13.835   1.085  0.00  0.00    -0.038 A 
HETATM   18  C   UNK N   1      18.484  13.671   0.724  0.00  0.00     0.050 C 
ENDBRANCH   8  11
ENDBRANCH   6   8
ENDBRANCH   3   6
BRANCH   4  19
HETATM   19  C   UNK N   1      21.041  20.094   2.250  0.00  0.00     0.185 C 
HETATM   20  O   UNK N   1      21.681  21.053   2.633  0.00  0.00    -0.646 OA
BRANCH  19  21
HETATM   21  O   UNK N   1      20.575  20.069   0.986  0.00  0.00    -0.772 OA
HETATM   22  H   UNK N   1      20.521  19.256   0.521  0.00  0.00     0.167 HD
ENDBRANCH  19  21
ENDBRANCH   4  19
BRANCH   1  23
HETATM   23  C   UNK N   1      20.995  16.723   6.402  0.00  0.00     0.023 A 
HETATM   24  C   UNK N   1      20.265  17.072   7.543  0.00  0.00     0.021 A 
HETATM   25  C   UNK N   1      20.484  16.179   8.633  0.00  0.00     0.024 A 
HETATM   26  C   UNK N   1      21.369  15.139   8.318  0.00  0.00     0.051 A 
HETATM   27  S   UNK N   1      21.864  15.362   6.758  0.00  0.00    -0.086 SA
BRANCH  26  28
HETATM   28  C   UNK N   1      21.735  14.007   9.180  0.00  0.00     0.162 C 
HETATM   29  C   UNK N   1      20.734  13.409  10.110  0.00  0.00     0.097 C 
HETATM   30  O   UNK N   1      22.853  13.522   9.110  0.00  0.00    -0.292 OA
ENDBRANCH  26  28
ENDBRANCH   1  23
TORSDOF 7
ENDMDL
MODEL 2
REMARK VINA RESULT:      -7.1     12.403     14.466
REMARK  7 active torsions:
REMARK  status: ('A' for Active; 'I' for Inactive)
REMARK    1  A    between atoms: C_1  and  C_21 
REMARK    2  A    between atoms: C_3  and  N_9 
REMARK    3  A    between atoms: C_4  and  C_6 
REMARK    4  A    between atoms: C_6  and  O_7 
REMARK    5  A    between atoms: N_9  and  S_10 
REMARK    6  A    between atoms: S_10  and  C_13 
REMARK    7  A    between atoms: C_24  and  C_26 
ROOT
HETATM    1  C   UNK N   1      34.649  14.190   9.728  0.00  0.00     0.025 A 
HETATM    2  C   UNK N   1      34.840  15.205   8.791  0.00  0.00     0.052 A 
HETATM    3  C   UNK N   1      34.303  14.882   7.519  0.00  0.00     0.067 A 
HETATM    4  C   UNK N   1      33.729  13.593   7.456  0.00  0.00     0.106 A 
HETATM    5  S   UNK N   1      33.848  12.950   8.976  0.00  0.00    -0.080 SA
ENDROOT
BRANCH   3   6
HETATM    6  N   UNK N   1      34.379  15.794   6.445  0.00  0.00    -0.279 N 
HETATM    7  H   UNK N   1      34.861  15.542   5.625  0.00  0.00     0.179 HD
BRANCH   6   8
HETATM    8  S   UNK N   1      33.623  17.375   6.555  0.00  0.00     0.263 S 
HETATM    9  O   UNK N   1      33.617  17.895   5.109  0.00  0.00    -0.200 OA
HETATM   10  O   UNK N   1      34.670  18.285   7.217  0.00  0.00    -0.200 OA
BRANCH   8  11
HETATM   11  C   UNK N   1      32.000  17.407   7.310  0.00  0.00     0.085 A 
HETATM   12  C   UNK N   1      31.837  18.135   8.492  0.00  0.00     0.026 A 
HETATM   13  C   UNK N   1      30.570  18.286   9.058  0.00  0.00     0.008 A 
HETATM   14  C   UNK N   1      29.457  17.715   8.438  0.00  0.00    -0.061 A 
HETATM   15  C   UNK N   1      29.612  16.974   7.263  0.00  0.00     0.015 A 
HETATM   16  C   UNK N   1      28.104  17.910   9.019  0.00  0.00     0.048 C 
HETATM   17  C   UNK N   1      30.878  16.813   6.694  0.00  0.00    -0.038 A 
HETATM   18  C   UNK N   1      30.994  16.058   5.412  0.00  0.00     0.050 C 
ENDBRANCH   8  11
ENDBRANCH   6   8
ENDBRANCH   3   6
BRANCH   4  19
HETATM   19  C   UNK N   1      33.207  12.859   6.288  0.00  0.00     0.185 C 
HETATM   20  O   UNK N   1      32.010  12.783   6.090  0.00  0.00    -0.646 OA
BRANCH  19  21
HETATM   21  O   UNK N   1      34.063  12.355   5.378  0.00  0.00    -0.772 OA
HETATM   22  H   UNK N   1      34.021  11.447   5.146  0.00  0.00     0.167 HD
ENDBRANCH  19  21
ENDBRANCH   4  19
BRANCH   1  23
HETATM   23  C   UNK N   1      35.223  14.155  11.069  0.00  0.00     0.023 A 
HETATM   24  C   UNK N   1      35.859  15.210  11.733  0.00  0.00     0.021 A 
HETATM   25  C   UNK N   1      36.155  14.907  13.095  0.00  0.00     0.024 A 
HETATM   26  C   UNK N   1      35.729  13.627  13.474  0.00  0.00     0.051 A 
HETATM   27  S   UNK N   1      35.046  12.916  12.148  0.00  0.00    -0.086 SA
BRANCH  26  28
HETATM   28  C   UNK N   1      35.796  13.043  14.820  0.00  0.00     0.162 C 
HETATM   29  C   UNK N   1      34.592  12.411  15.432  0.00  0.00     0.097 C 
HETATM   30  O   UNK N   1      36.853  13.036  15.432  0.00  0.00    -0.292 OA
ENDBRANCH  26  28
ENDBRANCH   1  23
TORSDOF 7
ENDMDL
MODEL 3
REMARK VINA RESULT:      -7.1      5.153      6.872
REMARK  7 active torsions:
REMARK  status: ('A' for Active; 'I' for Inactive)
REMARK    1  A    between atoms: C_1  and  C_21 
REMARK    2  A    between atoms: C_3  and  N_9 
REMARK    3  A    between atoms: C_4  and  C_6 
REMARK    4  A    between atoms: C_6  and  O_7 
REMARK    5  A    between atoms: N_9  and  S_10 
REMARK    6  A    between atoms: S_10  and  C_13 
REMARK    7  A    between atoms: C_24  and  C_26 
ROOT
HETATM    1  C   UNK N   1      26.245  17.798   4.972  0.00  0.00     0.025 A 
HETATM    2  C   UNK N   1      25.111  17.001   5.130  0.00  0.00     0.052 A 
HETATM    3  C   UNK N   1      23.954  17.579   4.549  0.00  0.00     0.067 A 
HETATM    4  C   UNK N   1      24.180  18.849   3.974  0.00  0.00     0.106 A 
HETATM    5  S   UNK N   1      25.796  19.163   4.147  0.00  0.00    -0.080 SA
ENDROOT
BRANCH   3   6
HETATM    6  N   UNK N   1      22.711  16.910   4.586  0.00  0.00    -0.279 N 
HETATM    7  H   UNK N   1      22.454  16.319   3.842  0.00  0.00     0.179 HD
BRANCH   6   8
HETATM    8  S   UNK N   1      21.619  17.121   5.944  0.00  0.00     0.263 S 
HETATM    9  O   UNK N   1      20.238  17.305   5.296  0.00  0.00    -0.200 OA
HETATM   10  O   UNK N   1      21.907  18.530   6.487  0.00  0.00    -0.200 OA
BRANCH   8  11
HETATM   11  C   UNK N   1      21.641  15.813   7.167  0.00  0.00     0.085 A 
HETATM   12  C   UNK N   1      22.582  14.790   7.021  0.00  0.00     0.026 A 
HETATM   13  C   UNK N   1      22.717  13.811   8.007  0.00  0.00     0.008 A 
HETATM   14  C   UNK N   1      21.915  13.856   9.149  0.00  0.00    -0.061 A 
HETATM   15  C   UNK N   1      20.963  14.868   9.297  0.00  0.00     0.015 A 
HETATM   16  C   UNK N   1      22.088  12.837  10.215  0.00  0.00     0.048 C 
HETATM   17  C   UNK N   1      20.817  15.848   8.312  0.00  0.00    -0.038 A 
HETATM   18  C   UNK N   1      19.823  16.940   8.532  0.00  0.00     0.050 C 
ENDBRANCH   8  11
ENDBRANCH   6   8
ENDBRANCH   3   6
BRANCH   4  19
HETATM   19  C   UNK N   1      23.209  19.807   3.413  0.00  0.00     0.185 C 
HETATM   20  O   UNK N   1      23.566  20.656   2.621  0.00  0.00    -0.646 OA
BRANCH  19  21
HETATM   21  O   UNK N   1      21.898  19.677   3.700  0.00  0.00    -0.772 OA
HETATM   22  H   UNK N   1      21.632  19.253   4.493  0.00  0.00     0.167 HD
ENDBRANCH  19  21
ENDBRANCH   4  19
BRANCH   1  23
HETATM   23  C   UNK N   1      27.543  17.557   5.593  0.00  0.00     0.023 A 
HETATM   24  C   UNK N   1      28.741  17.256   4.936  0.00  0.00     0.021 A 
HETATM   25  C   UNK N   1      29.866  17.249   5.813  0.00  0.00     0.024 A 
HETATM   26  C   UNK N   1      29.528  17.560   7.136  0.00  0.00     0.051 A 
HETATM   27  S   UNK N   1      27.894  17.800   7.190  0.00  0.00    -0.086 SA
BRANCH  26  28
HETATM   28  C   UNK N   1      30.456  17.727   8.263  0.00  0.00     0.162 C 
HETATM   29  C   UNK N   1      30.137  18.673   9.371  0.00  0.00     0.097 C 
HETATM   30  O   UNK N   1      31.477  17.060   8.318  0.00  0.00    -0.292 OA
ENDBRANCH  26  28
ENDBRANCH   1  23
TORSDOF 7
ENDMDL
MODEL 4
REMARK VINA RESULT:      -7.0     13.446     14.381
REMARK  7 active torsions:
REMARK  status: ('A' for Active; 'I' for Inactive)
REMARK    1  A    between atoms: C_1  and  C_21 
REMARK    2  A    between atoms: C_3  and  N_9 
REMARK    3  A    between atoms: C_4  and  C_6 
REMARK    4  A    between atoms: C_6  and  O_7 
REMARK    5  A    between atoms: N_9  and  S_10 
REMARK    6  A    between atoms: S_10  and  C_13 
REMARK    7  A    between atoms: C_24  and  C_26 
ROOT
HETATM    1  C   UNK N   1      28.110  24.712  -4.416  0.00  0.00     0.025 A 
HETATM    2  C   UNK N   1      27.329  24.196  -5.449  0.00  0.00     0.052 A 
HETATM    3  C   UNK N   1      26.288  25.076  -5.838  0.00  0.00     0.067 A 
HETATM    4  C   UNK N   1      26.234  26.264  -5.075  0.00  0.00     0.106 A 
HETATM    5  S   UNK N   1      27.504  26.201  -4.016  0.00  0.00    -0.080 SA
ENDROOT
BRANCH   3   6
HETATM    6  N   UNK N   1      25.404  24.739  -6.886  0.00  0.00    -0.279 N 
HETATM    7  H   UNK N   1      24.432  24.782  -6.735  0.00  0.00     0.179 HD
BRANCH   6   8
HETATM    8  S   UNK N   1      26.018  24.245  -8.454  0.00  0.00     0.263 S 
HETATM    9  O   UNK N   1      26.831  25.454  -8.941  0.00  0.00    -0.200 OA
HETATM   10  O   UNK N   1      24.805  24.276  -9.397  0.00  0.00    -0.200 OA
BRANCH   8  11
HETATM   11  C   UNK N   1      26.960  22.722  -8.473  0.00  0.00     0.085 A 
HETATM   12  C   UNK N   1      28.315  22.790  -8.812  0.00  0.00     0.026 A 
HETATM   13  C   UNK N   1      29.118  21.651  -8.731  0.00  0.00     0.008 A 
HETATM   14  C   UNK N   1      28.571  20.441  -8.302  0.00  0.00    -0.061 A 
HETATM   15  C   UNK N   1      27.216  20.361  -7.974  0.00  0.00     0.015 A 
HETATM   16  C   UNK N   1      29.437  19.240  -8.178  0.00  0.00     0.048 C 
HETATM   17  C   UNK N   1      26.402  21.494  -8.058  0.00  0.00    -0.038 A 
HETATM   18  C   UNK N   1      24.972  21.379  -7.651  0.00  0.00     0.050 C 
ENDBRANCH   8  11
ENDBRANCH   6   8
ENDBRANCH   3   6
BRANCH   4  19
HETATM   19  C   UNK N   1      25.222  27.337  -5.087  0.00  0.00     0.185 C 
HETATM   20  O   UNK N   1      24.275  27.285  -5.847  0.00  0.00    -0.646 OA
BRANCH  19  21
HETATM   21  O   UNK N   1      25.290  28.331  -4.179  0.00  0.00    -0.772 OA
HETATM   22  H   UNK N   1      24.699  28.342  -3.451  0.00  0.00     0.167 HD
ENDBRANCH  19  21
ENDBRANCH   4  19
BRANCH   1  23
HETATM   23  C   UNK N   1      29.149  23.984  -3.694  0.00  0.00     0.023 A 
HETATM   24  C   UNK N   1      29.041  23.421  -2.418  0.00  0.00     0.021 A 
HETATM   25  C   UNK N   1      30.173  22.628  -2.067  0.00  0.00     0.024 A 
HETATM   26  C   UNK N   1      31.137  22.572  -3.082  0.00  0.00     0.051 A 
HETATM   27  S   UNK N   1      30.593  23.502  -4.336  0.00  0.00    -0.086 SA
BRANCH  26  28
HETATM   28  C   UNK N   1      32.371  21.775  -3.080  0.00  0.00     0.162 C 
HETATM   29  C   UNK N   1      33.125  21.543  -4.345  0.00  0.00     0.097 C 
HETATM   30  O   UNK N   1      32.808  21.328  -2.031  0.00  0.00    -0.292 OA
ENDBRANCH  26  28
ENDBRANCH   1  23
TORSDOF 7
ENDMDL
MODEL 5
REMARK VINA RESULT:      -7.0     14.219     16.045
REMARK  7 active torsions:
REMARK  status: ('A' for Active; 'I' for Inactive)
REMARK    1  A    between atoms: C_1  and  C_21 
REMARK    2  A    between atoms: C_3  and  N_9 
REMARK    3  A    between atoms: C_4  and  C_6 
REMARK    4  A    between atoms: C_6  and  O_7 
REMARK    5  A    between atoms: N_9  and  S_10 
REMARK    6  A    between atoms: S_10  and  C_13 
REMARK    7  A    between atoms: C_24  and  C_26 
ROOT
HETATM    1  C   UNK N   1      28.390  23.211  -5.554  0.00  0.00     0.025 A 
HETATM    2  C   UNK N   1      27.413  24.163  -5.262  0.00  0.00     0.052 A 
HETATM    3  C   UNK N   1      26.387  24.208  -6.239  0.00  0.00     0.067 A 
HETATM    4  C   UNK N   1      26.588  23.317  -7.316  0.00  0.00     0.106 A 
HETATM    5  S   UNK N   1      27.973  22.476  -6.979  0.00  0.00    -0.080 SA
ENDROOT
BRANCH   3   6
HETATM    6  N   UNK N   1      25.296  25.094  -6.106  0.00  0.00    -0.279 N 
HETATM    7  H   UNK N   1      24.387  24.782  -6.317  0.00  0.00     0.179 HD
BRANCH   6   8
HETATM    8  S   UNK N   1      25.542  26.747  -5.568  0.00  0.00     0.263 S 
HETATM    9  O   UNK N   1      25.708  26.630  -4.046  0.00  0.00    -0.200 OA
HETATM   10  O   UNK N   1      24.168  27.426  -5.688  0.00  0.00    -0.200 OA
BRANCH   8  11
HETATM   11  C   UNK N   1      26.896  27.622  -6.348  0.00  0.00     0.085 A 
HETATM   12  C   UNK N   1      27.393  27.126  -7.556  0.00  0.00     0.026 A 
HETATM   13  C   UNK N   1      28.368  27.834  -8.261  0.00  0.00     0.008 A 
HETATM   14  C   UNK N   1      28.846  29.047  -7.762  0.00  0.00    -0.061 A 
HETATM   15  C   UNK N   1      28.365  29.544  -6.548  0.00  0.00     0.015 A 
HETATM   16  C   UNK N   1      29.854  29.819  -8.533  0.00  0.00     0.048 C 
HETATM   17  C   UNK N   1      27.393  28.839  -5.833  0.00  0.00    -0.038 A 
HETATM   18  C   UNK N   1      26.869  29.429  -4.567  0.00  0.00     0.050 C 
ENDBRANCH   8  11
ENDBRANCH   6   8
ENDBRANCH   3   6
BRANCH   4  19
HETATM   19  C   UNK N   1      25.825  23.181  -8.571  0.00  0.00     0.185 C 
HETATM   20  O   UNK N   1      26.397  22.978  -9.624  0.00  0.00    -0.646 OA
BRANCH  19  21
HETATM   21  O   UNK N   1      24.477  23.181  -8.538  0.00  0.00    -0.772 OA
HETATM   22  H   UNK N   1      23.990  23.453  -9.291  0.00  0.00     0.167 HD
ENDBRANCH  19  21
ENDBRANCH   4  19
BRANCH   1  23
HETATM   23  C   UNK N   1      29.646  23.037  -4.833  0.00  0.00     0.023 A 
HETATM   24  C   UNK N   1      30.202  23.917  -3.898  0.00  0.00     0.021 A 
HETATM   25  C   UNK N   1      31.348  23.378  -3.244  0.00  0.00     0.024 A 
HETATM   26  C   UNK N   1      31.658  22.079  -3.669  0.00  0.00     0.051 A 
HETATM   27  S   UNK N   1      30.557  21.658  -4.826  0.00  0.00    -0.086 SA
BRANCH  26  28
HETATM   28  C   UNK N   1      32.715  21.210  -3.134  0.00  0.00     0.162 C 
HETATM   29  C   UNK N   1      33.450  20.273  -4.032  0.00  0.00     0.097 C 
HETATM   30  O   UNK N   1      33.025  21.278  -1.955  0.00  0.00    -0.292 OA
ENDBRANCH  26  28
ENDBRANCH   1  23
TORSDOF 7
ENDMDL
MODEL 6
REMARK VINA RESULT:      -6.9     12.300     14.170
REMARK  7 active torsions:
REMARK  status: ('A' for Active; 'I' for Inactive)
REMARK    1  A    between atoms: C_1  and  C_21 
REMARK    2  A    between atoms: C_3  and  N_9 
REMARK    3  A    between atoms: C_4  and  C_6 
REMARK    4  A    between atoms: C_6  and  O_7 
REMARK    5  A    between atoms: N_9  and  S_10 
REMARK    6  A    between atoms: S_10  and  C_13 
REMARK    7  A    between atoms: C_24  and  C_26 
ROOT
HETATM    1  C   UNK N   1      35.233  14.981  10.333  0.00  0.00     0.025 A 
HETATM    2  C   UNK N   1      34.822  14.579   9.062  0.00  0.00     0.052 A 
HETATM    3  C   UNK N   1      34.624  15.673   8.181  0.00  0.00     0.067 A 
HETATM    4  C   UNK N   1      34.840  16.932   8.783  0.00  0.00     0.106 A 
HETATM    5  S   UNK N   1      35.329  16.635  10.336  0.00  0.00    -0.080 SA
ENDROOT
BRANCH   3   6
HETATM    6  N   UNK N   1      34.229  15.465   6.842  0.00  0.00    -0.279 N 
HETATM    7  H   UNK N   1      34.866  15.644   6.114  0.00  0.00     0.179 HD
BRANCH   6   8
HETATM    8  S   UNK N   1      32.614  14.891   6.462  0.00  0.00     0.263 S 
HETATM    9  O   UNK N   1      32.346  13.794   7.504  0.00  0.00    -0.200 OA
HETATM   10  O   UNK N   1      32.764  14.072   5.169  0.00  0.00    -0.200 OA
BRANCH   8  11
HETATM   11  C   UNK N   1      31.334  16.143   6.427  0.00  0.00     0.085 A 
HETATM   12  C   UNK N   1      30.814  16.519   5.186  0.00  0.00     0.026 A 
HETATM   13  C   UNK N   1      29.737  17.404   5.112  0.00  0.00     0.008 A 
HETATM   14  C   UNK N   1      29.171  17.913   6.282  0.00  0.00    -0.061 A 
HETATM   15  C   UNK N   1      29.693  17.553   7.527  0.00  0.00     0.015 A 
HETATM   16  C   UNK N   1      28.000  18.823   6.204  0.00  0.00     0.048 C 
HETATM   17  C   UNK N   1      30.775  16.671   7.610  0.00  0.00    -0.038 A 
HETATM   18  C   UNK N   1      31.270  16.273   8.960  0.00  0.00     0.050 C 
ENDBRANCH   8  11
ENDBRANCH   6   8
ENDBRANCH   3   6
BRANCH   4  19
HETATM   19  C   UNK N   1      34.599  18.281   8.238  0.00  0.00     0.185 C 
HETATM   20  O   UNK N   1      33.652  18.492   7.506  0.00  0.00    -0.646 OA
BRANCH  19  21
HETATM   21  O   UNK N   1      35.372  19.312   8.634  0.00  0.00    -0.772 OA
HETATM   22  H   UNK N   1      36.169  19.502   8.178  0.00  0.00     0.167 HD
ENDBRANCH  19  21
ENDBRANCH   4  19
BRANCH   1  23
HETATM   23  C   UNK N   1      35.363  14.110  11.496  0.00  0.00     0.023 A 
HETATM   24  C   UNK N   1      35.644  14.505  12.808  0.00  0.00     0.021 A 
HETATM   25  C   UNK N   1      35.532  13.434  13.744  0.00  0.00     0.024 A 
HETATM   26  C   UNK N   1      35.149  12.226  13.147  0.00  0.00     0.051 A 
HETATM   27  S   UNK N   1      34.993  12.500  11.525  0.00  0.00    -0.086 SA
BRANCH  26  28
HETATM   28  C   UNK N   1      34.857  10.961  13.834  0.00  0.00     0.162 C 
HETATM   29  C   UNK N   1      33.671  10.843  14.730  0.00  0.00     0.097 C 
HETATM   30  O   UNK N   1      35.564   9.984  13.643  0.00  0.00    -0.292 OA
ENDBRANCH  26  28
ENDBRANCH   1  23
TORSDOF 7
ENDMDL
MODEL 7
REMARK VINA RESULT:      -6.9      1.749      2.328
REMARK  7 active torsions:
REMARK  status: ('A' for Active; 'I' for Inactive)
REMARK    1  A    between atoms: C_1  and  C_21 
REMARK    2  A    between atoms: C_3  and  N_9 
REMARK    3  A    between atoms: C_4  and  C_6 
REMARK    4  A    between atoms: C_6  and  O_7 
REMARK    5  A    between atoms: N_9  and  S_10 
REMARK    6  A    between atoms: S_10  and  C_13 
REMARK    7  A    between atoms: C_24  and  C_26 
ROOT
HETATM    1  C   UNK N   1      20.970  15.989   6.201  0.00  0.00     0.025 A 
HETATM    2  C   UNK N   1      20.332  15.462   5.078  0.00  0.00     0.052 A 
HETATM    3  C   UNK N   1      20.229  16.398   4.019  0.00  0.00     0.067 A 
HETATM    4  C   UNK N   1      20.752  17.672   4.335  0.00  0.00     0.106 A 
HETATM    5  S   UNK N   1      21.372  17.561   5.865  0.00  0.00    -0.080 SA
ENDROOT
BRANCH   3   6
HETATM    6  N   UNK N   1      19.635  16.043   2.789  0.00  0.00    -0.279 N 
HETATM    7  H   UNK N   1      18.666  16.161   2.666  0.00  0.00     0.179 HD
BRANCH   6   8
HETATM    8  S   UNK N   1      20.604  15.393   1.478  0.00  0.00     0.263 S 
HETATM    9  O   UNK N   1      22.050  15.497   1.988  0.00  0.00    -0.200 OA
HETATM   10  O   UNK N   1      20.576  16.465   0.377  0.00  0.00    -0.200 OA
BRANCH   8  11
HETATM   11  C   UNK N   1      20.175  13.739   0.943  0.00  0.00     0.085 A 
HETATM   12  C   UNK N   1      21.045  12.694   1.268  0.00  0.00     0.026 A 
HETATM   13  C   UNK N   1      20.701  11.374   0.975  0.00  0.00     0.008 A 
HETATM   14  C   UNK N   1      19.480  11.091   0.360  0.00  0.00    -0.061 A 
HETATM   15  C   UNK N   1      18.610  12.130   0.019  0.00  0.00     0.015 A 
HETATM   16  C   UNK N   1      19.098   9.683   0.085  0.00  0.00     0.048 C 
HETATM   17  C   UNK N   1      18.950  13.456   0.303  0.00  0.00    -0.038 A 
HETATM   18  C   UNK N   1      17.971  14.531  -0.031  0.00  0.00     0.050 C 
ENDBRANCH   8  11
ENDBRANCH   6   8
ENDBRANCH   3   6
BRANCH   4  19
HETATM   19  C   UNK N   1      20.697  18.923   3.556  0.00  0.00     0.185 C 
HETATM   20  O   UNK N   1      20.653  20.000   4.118  0.00  0.00    -0.646 OA
BRANCH  19  21
HETATM   21  O   UNK N   1      20.801  18.880   2.212  0.00  0.00    -0.772 OA
HETATM   22  H   UNK N   1      20.329  18.232   1.726  0.00  0.00     0.167 HD
ENDBRANCH  19  21
ENDBRANCH   4  19
BRANCH   1  23
HETATM   23  C   UNK N   1      21.083  15.331   7.498  0.00  0.00     0.023 A 
HETATM   24  C   UNK N   1      20.142  15.355   8.533  0.00  0.00     0.021 A 
HETATM   25  C   UNK N   1      20.472  14.471   9.602  0.00  0.00     0.024 A 
HETATM   26  C   UNK N   1      21.658  13.759   9.375  0.00  0.00     0.051 A 
HETATM   27  S   UNK N   1      22.261  14.250   7.917  0.00  0.00    -0.086 SA
BRANCH  26  28
HETATM   28  C   UNK N   1      22.228  12.708  10.228  0.00  0.00     0.162 C 
HETATM   29  C   UNK N   1      23.703  12.491  10.277  0.00  0.00     0.097 C 
HETATM   30  O   UNK N   1      21.498  12.031  10.934  0.00  0.00    -0.292 OA
ENDBRANCH  26  28
ENDBRANCH   1  23
TORSDOF 7
ENDMDL
MODEL 8
REMARK VINA RESULT:      -6.9     12.028     13.893
REMARK  7 active torsions:
REMARK  status: ('A' for Active; 'I' for Inactive)
REMARK    1  A    between atoms: C_1  and  C_21 
REMARK    2  A    between atoms: C_3  and  N_9 
REMARK    3  A    between atoms: C_4  and  C_6 
REMARK    4  A    between atoms: C_6  and  O_7 
REMARK    5  A    between atoms: N_9  and  S_10 
REMARK    6  A    between atoms: S_10  and  C_13 
REMARK    7  A    between atoms: C_24  and  C_26 
ROOT
HETATM    1  C   UNK N   1      34.623  14.932  10.375  0.00  0.00     0.025 A 
HETATM    2  C   UNK N   1      33.449  14.888   9.623  0.00  0.00     0.052 A 
HETATM    3  C   UNK N   1      33.354  15.957   8.696  0.00  0.00     0.067 A 
HETATM    4  C   UNK N   1      34.440  16.859   8.757  0.00  0.00     0.106 A 
HETATM    5  S   UNK N   1      35.486  16.261   9.891  0.00  0.00    -0.080 SA
ENDROOT
BRANCH   3   6
HETATM    6  N   UNK N   1      32.247  16.071   7.828  0.00  0.00    -0.279 N 
HETATM    7  H   UNK N   1      32.231  15.556   6.990  0.00  0.00     0.179 HD
BRANCH   6   8
HETATM    8  S   UNK N   1      30.898  17.122   8.228  0.00  0.00     0.263 S 
HETATM    9  O   UNK N   1      31.560  18.417   8.722  0.00  0.00    -0.200 OA
HETATM   10  O   UNK N   1      30.306  16.551   9.526  0.00  0.00    -0.200 OA
BRANCH   8  11
HETATM   11  C   UNK N   1      29.719  17.404   6.911  0.00  0.00     0.085 A 
HETATM   12  C   UNK N   1      29.962  16.811   5.669  0.00  0.00     0.026 A 
HETATM   13  C   UNK N   1      29.018  16.905   4.646  0.00  0.00     0.008 A 
HETATM   14  C   UNK N   1      27.820  17.589   4.863  0.00  0.00    -0.061 A 
HETATM   15  C   UNK N   1      27.574  18.196   6.096  0.00  0.00     0.015 A 
HETATM   16  C   UNK N   1      26.799  17.654   3.786  0.00  0.00     0.048 C 
HETATM   17  C   UNK N   1      28.517  18.112   7.125  0.00  0.00    -0.038 A 
HETATM   18  C   UNK N   1      28.194  18.732   8.443  0.00  0.00     0.050 C 
ENDBRANCH   8  11
ENDBRANCH   6   8
ENDBRANCH   3   6
BRANCH   4  19
HETATM   19  C   UNK N   1      34.624  18.147   8.063  0.00  0.00     0.185 C 
HETATM   20  O   UNK N   1      35.248  19.049   8.588  0.00  0.00    -0.646 OA
BRANCH  19  21
HETATM   21  O   UNK N   1      34.186  18.294   6.796  0.00  0.00    -0.772 OA
HETATM   22  H   UNK N   1      34.729  18.028   6.079  0.00  0.00     0.167 HD
ENDBRANCH  19  21
ENDBRANCH   4  19
BRANCH   1  23
HETATM   23  C   UNK N   1      34.934  14.072  11.511  0.00  0.00     0.023 A 
HETATM   24  C   UNK N   1      34.647  12.708  11.630  0.00  0.00     0.021 A 
HETATM   25  C   UNK N   1      35.234  12.118  12.788  0.00  0.00     0.024 A 
HETATM   26  C   UNK N   1      35.983  13.029  13.544  0.00  0.00     0.051 A 
HETATM   27  S   UNK N   1      35.878  14.500  12.799  0.00  0.00    -0.086 SA
BRANCH  26  28
HETATM   28  C   UNK N   1      36.787  12.728  14.737  0.00  0.00     0.162 C 
HETATM   29  C   UNK N   1      37.565  11.459  14.825  0.00  0.00     0.097 C 
HETATM   30  O   UNK N   1      36.853  13.538  15.649  0.00  0.00    -0.292 OA
ENDBRANCH  26  28
ENDBRANCH   1  23
TORSDOF 7
ENDMDL
MODEL 9
REMARK VINA RESULT:      -6.9     14.533     16.176
REMARK  7 active torsions:
REMARK  status: ('A' for Active; 'I' for Inactive)
REMARK    1  A    between atoms: C_1  and  C_21 
REMARK    2  A    between atoms: C_3  and  N_9 
REMARK    3  A    between atoms: C_4  and  C_6 
REMARK    4  A    between atoms: C_6  and  O_7 
REMARK    5  A    between atoms: N_9  and  S_10 
REMARK    6  A    between atoms: S_10  and  C_13 
REMARK    7  A    between atoms: C_24  and  C_26 
ROOT
HETATM    1  C   UNK N   1      28.685  22.012  -6.480  0.00  0.00     0.025 A 
HETATM    2  C   UNK N   1      28.029  23.196  -6.144  0.00  0.00     0.052 A 
HETATM    3  C   UNK N   1      26.926  23.468  -6.991  0.00  0.00     0.067 A 
HETATM    4  C   UNK N   1      26.748  22.513  -8.016  0.00  0.00     0.106 A 
HETATM    5  S   UNK N   1      27.908  21.354  -7.787  0.00  0.00    -0.080 SA
ENDROOT
BRANCH   3   6
HETATM    6  N   UNK N   1      26.122  24.612  -6.794  0.00  0.00    -0.279 N 
HETATM    7  H   UNK N   1      25.279  24.533  -6.293  0.00  0.00     0.179 HD
BRANCH   6   8
HETATM    8  S   UNK N   1      26.611  26.172  -7.433  0.00  0.00     0.263 S 
HETATM    9  O   UNK N   1      25.677  26.401  -8.631  0.00  0.00    -0.200 OA
HETATM   10  O   UNK N   1      27.961  25.927  -8.124  0.00  0.00    -0.200 OA
BRANCH   8  11
HETATM   11  C   UNK N   1      26.587  27.530  -6.266  0.00  0.00     0.085 A 
HETATM   12  C   UNK N   1      25.724  27.442  -5.170  0.00  0.00     0.026 A 
HETATM   13  C   UNK N   1      25.750  28.418  -4.173  0.00  0.00     0.008 A 
HETATM   14  C   UNK N   1      26.646  29.484  -4.264  0.00  0.00    -0.061 A 
HETATM   15  C   UNK N   1      27.504  29.587  -5.362  0.00  0.00     0.015 A 
HETATM   16  C   UNK N   1      26.701  30.500  -3.181  0.00  0.00     0.048 C 
HETATM   17  C   UNK N   1      27.480  28.618  -6.368  0.00  0.00    -0.038 A 
HETATM   18  C   UNK N   1      28.446  28.737  -7.499  0.00  0.00     0.050 C 
ENDBRANCH   8  11
ENDBRANCH   6   8
ENDBRANCH   3   6
BRANCH   4  19
HETATM   19  C   UNK N   1      25.814  22.530  -9.157  0.00  0.00     0.185 C 
HETATM   20  O   UNK N   1      25.654  21.538  -9.840  0.00  0.00    -0.646 OA
BRANCH  19  21
HETATM   21  O   UNK N   1      25.055  23.621  -9.385  0.00  0.00    -0.772 OA
HETATM   22  H   UNK N   1      24.474  23.935  -8.719  0.00  0.00     0.167 HD
ENDBRANCH  19  21
ENDBRANCH   4  19
BRANCH   1  23
HETATM   23  C   UNK N   1      29.942  21.547  -5.903  0.00  0.00     0.023 A 
HETATM   24  C   UNK N   1      31.063  21.087  -6.603  0.00  0.00     0.021 A 
HETATM   25  C   UNK N   1      32.191  20.870  -5.758  0.00  0.00     0.024 A 
HETATM   26  C   UNK N   1      31.936  21.181  -4.416  0.00  0.00     0.051 A 
HETATM   27  S   UNK N   1      30.361  21.672  -4.309  0.00  0.00    -0.086 SA
BRANCH  26  28
HETATM   28  C   UNK N   1      32.902  21.158  -3.310  0.00  0.00     0.162 C 
HETATM   29  C   UNK N   1      34.323  20.776  -3.554  0.00  0.00     0.097 C 
HETATM   30  O   UNK N   1      32.555  21.490  -2.187  0.00  0.00    -0.292 OA
ENDBRANCH  26  28
ENDBRANCH   1  23
TORSDOF 7
ENDMDL
