MODEL 1
REMARK VINA RESULT:      -7.1      0.000      0.000
REMARK  6 active torsions:
REMARK  status: ('A' for Active; 'I' for Inactive)
REMARK       I    between atoms: C_2  and  N_3 
REMARK    1  A    between atoms: C_2  and  C_4 
REMARK    2  A    between atoms: C_7  and  N_8 
REMARK    3  A    between atoms: N_8  and  C_9 
REMARK    4  A    between atoms: C_9  and  C_10 
REMARK    5  A    between atoms: C_10  and  O_11 
REMARK    6  A    between atoms: C_14  and  N_15 
ROOT
HETATM    1  C   UNK N   1      34.931  15.767  10.154  0.00  0.00     0.058 A 
HETATM    2  C   UNK N   1      34.881  17.002   9.497  0.00  0.00     0.022 A 
HETATM    3  C   UNK N   1      33.835  17.310   8.628  0.00  0.00     0.031 A 
HETATM    4  C   UNK N   1      33.911  14.817   9.897  0.00  0.00     0.046 A 
HETATM    5  C   UNK N   1      32.861  15.143   9.032  0.00  0.00     0.060 A 
HETATM    6  C   UNK N   1      32.802  16.392   8.397  0.00  0.00     0.042 A 
ENDROOT
BRANCH   6   7
HETATM    7  N   UNK N   1      31.662  16.760   7.579  0.00  0.00    -0.314 N 
HETATM    8  C   UNK N   1      30.516  17.368   7.994  0.00  0.00     0.051 A 
HETATM    9  C   UNK N   1      30.159  17.756   9.287  0.00  0.00     0.031 A 
HETATM   10  C   UNK N   1      29.688  17.615   6.922  0.00  0.00     0.007 A 
HETATM   11  C   UNK N   1      28.924  18.405   9.467  0.00  0.00     0.002 A 
HETATM   12  C   UNK N   1      28.078  18.653   8.364  0.00  0.00     0.001 A 
HETATM   13  C   UNK N   1      28.459  18.255   7.070  0.00  0.00     0.015 A 
HETATM   14  C   UNK N   1      30.329  17.141   5.803  0.00  0.00     0.045 A 
HETATM   15  C   UNK N   1      31.533  16.620   6.230  0.00  0.00     0.032 A 
HETATM   16  C   UNK N   1      29.933  17.150   4.390  0.00  0.00     0.162 C 
HETATM   17  C   UNK N   1      32.519  16.006   5.276  0.00  0.00     0.059 C 
HETATM   18  C   UNK N   1      32.344  16.600   3.868  0.00  0.00     0.014 C 
HETATM   19  C   UNK N   1      30.885  16.584   3.368  0.00  0.00     0.084 C 
HETATM   20  O   UNK N   1      28.851  17.599   4.043  0.00  0.00    -0.292 OA
ENDBRANCH   6   7
BRANCH   4  21
HETATM   21  N   UNK N   1      33.933  13.536  10.490  0.00  0.00    -0.387 N 
HETATM   22  H   UNK N   1      33.437  13.380  11.326  0.00  0.00     0.159 HD
BRANCH  21  23
HETATM   23  C   UNK N   1      34.669  12.455   9.892  0.00  0.00     0.146 C 
BRANCH  23  24
HETATM   24  C   UNK N   1      35.477  11.734  10.960  0.00  0.00     0.186 C 
BRANCH  24  25
HETATM   25  O   UNK N   1      36.809  12.161  10.935  0.00  0.00    -0.394 OA
HETATM   26  C   UNK N   1      37.247  12.073  12.257  0.00  0.00     0.201 C 
ENDBRANCH  24  25
ENDBRANCH  23  24
ENDBRANCH  21  23
ENDBRANCH   4  21
BRANCH   1  27
HETATM   27  C   UNK N   1      36.049  15.512  11.105  0.00  0.00     0.251 C 
HETATM   28  O   UNK N   1      35.865  15.537  12.310  0.00  0.00    -0.268 OA
HETATM   29  N   UNK N   1      37.293  15.282  10.638  0.00  0.00    -0.366 N 
HETATM   30  H   UNK N   1      37.479  15.326   9.672  0.00  0.00     0.159 HD
HETATM   31  H   UNK N   1      38.020  15.069  11.266  0.00  0.00     0.159 HD
ENDBRANCH   1  27
TORSDOF 6
ENDMDL
MODEL 2
REMARK VINA RESULT:      -7.0      3.967      6.255
REMARK  6 active torsions:
REMARK  status: ('A' for Active; 'I' for Inactive)
REMARK       I    between atoms: C_2  and  N_3 
REMARK    1  A    between atoms: C_2  and  C_4 
REMARK    2  A    between atoms: C_7  and  N_8 
REMARK    3  A    between atoms: N_8  and  C_9 
REMARK    4  A    between atoms: C_9  and  C_10 
REMARK    5  A    between atoms: C_10  and  O_11 
REMARK    6  A    between atoms: C_14  and  N_15 
ROOT
HETATM    1  C   UNK N   1      32.552  17.051   5.693  0.00  0.00     0.058 A 
HETATM    2  C   UNK N   1      32.301  17.288   4.336  0.00  0.00     0.022 A 
HETATM    3  C   UNK N   1      30.997  17.341   3.846  0.00  0.00     0.031 A 
HETATM    4  C   UNK N   1      31.452  16.835   6.561  0.00  0.00     0.046 A 
HETATM    5  C   UNK N   1      30.148  16.902   6.058  0.00  0.00     0.060 A 
HETATM    6  C   UNK N   1      29.902  17.166   4.703  0.00  0.00     0.042 A 
ENDROOT
BRANCH   6   7
HETATM    7  N   UNK N   1      28.549  17.330   4.209  0.00  0.00    -0.314 N 
HETATM    8  C   UNK N   1      27.795  16.403   3.556  0.00  0.00     0.051 A 
HETATM    9  C   UNK N   1      28.146  15.102   3.188  0.00  0.00     0.031 A 
HETATM   10  C   UNK N   1      26.538  16.901   3.298  0.00  0.00     0.007 A 
HETATM   11  C   UNK N   1      27.178  14.312   2.542  0.00  0.00     0.002 A 
HETATM   12  C   UNK N   1      25.890  14.829   2.281  0.00  0.00     0.001 A 
HETATM   13  C   UNK N   1      25.559  16.141   2.661  0.00  0.00     0.015 A 
HETATM   14  C   UNK N   1      26.503  18.180   3.799  0.00  0.00     0.045 A 
HETATM   15  C   UNK N   1      27.745  18.421   4.349  0.00  0.00     0.032 A 
HETATM   16  C   UNK N   1      25.423  19.173   3.828  0.00  0.00     0.162 C 
HETATM   17  C   UNK N   1      28.087  19.731   5.002  0.00  0.00     0.059 C 
HETATM   18  C   UNK N   1      26.815  20.412   5.537  0.00  0.00     0.014 C 
HETATM   19  C   UNK N   1      25.679  20.499   4.498  0.00  0.00     0.084 C 
HETATM   20  O   UNK N   1      24.340  18.941   3.315  0.00  0.00    -0.292 OA
ENDBRANCH   6   7
BRANCH   4  21
HETATM   21  N   UNK N   1      31.642  16.542   7.928  0.00  0.00    -0.387 N 
HETATM   22  H   UNK N   1      32.468  16.091   8.217  0.00  0.00     0.159 HD
BRANCH  21  23
HETATM   23  C   UNK N   1      30.647  16.892   8.907  0.00  0.00     0.146 C 
BRANCH  23  24
HETATM   24  C   UNK N   1      30.618  18.402   9.089  0.00  0.00     0.186 C 
BRANCH  24  25
HETATM   25  O   UNK N   1      29.499  18.781   9.838  0.00  0.00    -0.394 OA
HETATM   26  C   UNK N   1      28.432  18.069   9.290  0.00  0.00     0.201 C 
ENDBRANCH  24  25
ENDBRANCH  23  24
ENDBRANCH  21  23
ENDBRANCH   4  21
BRANCH   1  27
HETATM   27  C   UNK N   1      33.964  17.051   6.166  0.00  0.00     0.251 C 
HETATM   28  O   UNK N   1      34.425  18.009   6.764  0.00  0.00    -0.268 OA
HETATM   29  N   UNK N   1      34.763  15.997   5.906  0.00  0.00    -0.366 N 
HETATM   30  H   UNK N   1      34.433  15.243   5.364  0.00  0.00     0.159 HD
HETATM   31  H   UNK N   1      35.682  15.979   6.258  0.00  0.00     0.159 HD
ENDBRANCH   1  27
TORSDOF 6
ENDMDL
MODEL 3
REMARK VINA RESULT:      -6.9      0.510      3.034
REMARK  6 active torsions:
REMARK  status: ('A' for Active; 'I' for Inactive)
REMARK       I    between atoms: C_2  and  N_3 
REMARK    1  A    between atoms: C_2  and  C_4 
REMARK    2  A    between atoms: C_7  and  N_8 
REMARK    3  A    between atoms: N_8  and  C_9 
REMARK    4  A    between atoms: C_9  and  C_10 
REMARK    5  A    between atoms: C_10  and  O_11 
REMARK    6  A    between atoms: C_14  and  N_15 
ROOT
HETATM    1  C   UNK N   1      34.871  15.839  10.096  0.00  0.00     0.058 A 
HETATM    2  C   UNK N   1      34.881  17.074   9.437  0.00  0.00     0.022 A 
HETATM    3  C   UNK N   1      33.866  17.419   8.545  0.00  0.00     0.031 A 
HETATM    4  C   UNK N   1      33.822  14.927   9.818  0.00  0.00     0.046 A 
HETATM    5  C   UNK N   1      32.804  15.290   8.929  0.00  0.00     0.060 A 
HETATM    6  C   UNK N   1      32.805  16.539   8.292  0.00  0.00     0.042 A 
ENDROOT
BRANCH   6   7
HETATM    7  N   UNK N   1      31.698  16.946   7.449  0.00  0.00    -0.314 N 
HETATM    8  C   UNK N   1      31.568  16.743   6.109  0.00  0.00     0.051 A 
HETATM    9  C   UNK N   1      32.465  16.126   5.234  0.00  0.00     0.031 A 
HETATM   10  C   UNK N   1      30.353  17.214   5.666  0.00  0.00     0.007 A 
HETATM   11  C   UNK N   1      32.094  16.001   3.883  0.00  0.00     0.002 A 
HETATM   12  C   UNK N   1      30.846  16.488   3.436  0.00  0.00     0.001 A 
HETATM   13  C   UNK N   1      29.958  17.105   4.334  0.00  0.00     0.015 A 
HETATM   14  C   UNK N   1      29.703  17.734   6.759  0.00  0.00     0.045 A 
HETATM   15  C   UNK N   1      30.545  17.562   7.838  0.00  0.00     0.032 A 
HETATM   16  C   UNK N   1      28.377  18.350   6.888  0.00  0.00     0.162 C 
HETATM   17  C   UNK N   1      30.171  18.011   9.222  0.00  0.00     0.059 C 
HETATM   18  C   UNK N   1      28.642  18.036   9.383  0.00  0.00     0.014 C 
HETATM   19  C   UNK N   1      27.916  18.794   8.253  0.00  0.00     0.084 C 
HETATM   20  O   UNK N   1      27.659  18.509   5.913  0.00  0.00    -0.292 OA
ENDBRANCH   6   7
BRANCH   4  21
HETATM   21  N   UNK N   1      33.784  13.647  10.413  0.00  0.00    -0.387 N 
HETATM   22  H   UNK N   1      33.275  13.515  11.246  0.00  0.00     0.159 HD
BRANCH  21  23
HETATM   23  C   UNK N   1      34.475  12.534   9.822  0.00  0.00     0.146 C 
BRANCH  23  24
HETATM   24  C   UNK N   1      35.230  11.770  10.899  0.00  0.00     0.186 C 
BRANCH  24  25
HETATM   25  O   UNK N   1      36.569  12.173  10.936  0.00  0.00    -0.394 OA
HETATM   26  C   UNK N   1      36.963  12.012  12.265  0.00  0.00     0.201 C 
ENDBRANCH  24  25
ENDBRANCH  23  24
ENDBRANCH  21  23
ENDBRANCH   4  21
BRANCH   1  27
HETATM   27  C   UNK N   1      35.957  15.545  11.072  0.00  0.00     0.251 C 
HETATM   28  O   UNK N   1      35.749  15.585  12.273  0.00  0.00    -0.268 OA
HETATM   29  N   UNK N   1      37.200  15.262  10.633  0.00  0.00    -0.366 N 
HETATM   30  H   UNK N   1      37.408  15.293   9.670  0.00  0.00     0.159 HD
HETATM   31  H   UNK N   1      37.905  15.024  11.277  0.00  0.00     0.159 HD
ENDBRANCH   1  27
TORSDOF 6
ENDMDL
MODEL 4
REMARK VINA RESULT:      -6.8      3.117      5.308
REMARK  6 active torsions:
REMARK  status: ('A' for Active; 'I' for Inactive)
REMARK       I    between atoms: C_2  and  N_3 
REMARK    1  A    between atoms: C_2  and  C_4 
REMARK    2  A    between atoms: C_7  and  N_8 
REMARK    3  A    between atoms: N_8  and  C_9 
REMARK    4  A    between atoms: C_9  and  C_10 
REMARK    5  A    between atoms: C_10  and  O_11 
REMARK    6  A    between atoms: C_14  and  N_15 
ROOT
HETATM    1  C   UNK N   1      32.738  17.205   5.984  0.00  0.00     0.058 A 
HETATM    2  C   UNK N   1      32.524  17.359   4.609  0.00  0.00     0.022 A 
HETATM    3  C   UNK N   1      31.232  17.405   4.085  0.00  0.00     0.031 A 
HETATM    4  C   UNK N   1      31.614  17.065   6.837  0.00  0.00     0.046 A 
HETATM    5  C   UNK N   1      30.324  17.124   6.300  0.00  0.00     0.060 A 
HETATM    6  C   UNK N   1      30.115  17.305   4.925  0.00  0.00     0.042 A 
ENDROOT
BRANCH   6   7
HETATM    7  N   UNK N   1      28.776  17.463   4.389  0.00  0.00    -0.314 N 
HETATM    8  C   UNK N   1      28.063  16.546   3.681  0.00  0.00     0.051 A 
HETATM    9  C   UNK N   1      28.449  15.264   3.284  0.00  0.00     0.031 A 
HETATM   10  C   UNK N   1      26.806  17.030   3.395  0.00  0.00     0.007 A 
HETATM   11  C   UNK N   1      27.518  14.479   2.580  0.00  0.00     0.002 A 
HETATM   12  C   UNK N   1      26.231  14.983   2.289  0.00  0.00     0.001 A 
HETATM   13  C   UNK N   1      25.864  16.276   2.700  0.00  0.00     0.015 A 
HETATM   14  C   UNK N   1      26.731  18.292   3.935  0.00  0.00     0.045 A 
HETATM   15  C   UNK N   1      27.949  18.536   4.536  0.00  0.00     0.032 A 
HETATM   16  C   UNK N   1      25.634  19.266   3.958  0.00  0.00     0.162 C 
HETATM   17  C   UNK N   1      28.244  19.829   5.242  0.00  0.00     0.059 C 
HETATM   18  C   UNK N   1      26.944  20.471   5.754  0.00  0.00     0.014 C 
HETATM   19  C   UNK N   1      25.842  20.573   4.679  0.00  0.00     0.084 C 
HETATM   20  O   UNK N   1      24.573  19.032   3.400  0.00  0.00    -0.292 OA
ENDBRANCH   6   7
BRANCH   4  21
HETATM   21  N   UNK N   1      31.767  16.857   8.225  0.00  0.00    -0.387 N 
HETATM   22  H   UNK N   1      31.886  17.632   8.821  0.00  0.00     0.159 HD
BRANCH  21  23
HETATM   23  C   UNK N   1      31.752  15.531   8.782  0.00  0.00     0.146 C 
BRANCH  23  24
HETATM   24  C   UNK N   1      33.089  15.240   9.445  0.00  0.00     0.186 C 
BRANCH  24  25
HETATM   25  O   UNK N   1      33.894  14.466   8.602  0.00  0.00    -0.394 OA
HETATM   26  C   UNK N   1      35.034  14.173   9.351  0.00  0.00     0.201 C 
ENDBRANCH  24  25
ENDBRANCH  23  24
ENDBRANCH  21  23
ENDBRANCH   4  21
BRANCH   1  27
HETATM   27  C   UNK N   1      34.139  17.209   6.490  0.00  0.00     0.251 C 
HETATM   28  O   UNK N   1      34.590  18.175   7.082  0.00  0.00    -0.268 OA
HETATM   29  N   UNK N   1      34.940  16.147   6.266  0.00  0.00    -0.366 N 
HETATM   30  H   UNK N   1      34.620  15.386   5.730  0.00  0.00     0.159 HD
HETATM   31  H   UNK N   1      35.851  16.133   6.640  0.00  0.00     0.159 HD
ENDBRANCH   1  27
TORSDOF 6
ENDMDL
MODEL 5
REMARK VINA RESULT:      -6.7      3.157      4.782
REMARK  6 active torsions:
REMARK  status: ('A' for Active; 'I' for Inactive)
REMARK       I    between atoms: C_2  and  N_3 
REMARK    1  A    between atoms: C_2  and  C_4 
REMARK    2  A    between atoms: C_7  and  N_8 
REMARK    3  A    between atoms: N_8  and  C_9 
REMARK    4  A    between atoms: C_9  and  C_10 
REMARK    5  A    between atoms: C_10  and  O_11 
REMARK    6  A    between atoms: C_14  and  N_15 
ROOT
HETATM    1  C   UNK N   1      32.244  17.525   7.688  0.00  0.00     0.058 A 
HETATM    2  C   UNK N   1      30.979  17.690   8.267  0.00  0.00     0.022 A 
HETATM    3  C   UNK N   1      29.821  17.610   7.495  0.00  0.00     0.031 A 
HETATM    4  C   UNK N   1      32.328  17.302   6.291  0.00  0.00     0.046 A 
HETATM    5  C   UNK N   1      31.158  17.212   5.530  0.00  0.00     0.060 A 
HETATM    6  C   UNK N   1      29.893  17.353   6.119  0.00  0.00     0.042 A 
ENDROOT
BRANCH   6   7
HETATM    7  N   UNK N   1      28.684  17.161   5.342  0.00  0.00    -0.314 N 
HETATM    8  C   UNK N   1      27.884  18.130   4.818  0.00  0.00     0.051 A 
HETATM    9  C   UNK N   1      28.018  19.516   4.920  0.00  0.00     0.031 A 
HETATM   10  C   UNK N   1      26.861  17.566   4.089  0.00  0.00     0.007 A 
HETATM   11  C   UNK N   1      27.076  20.325   4.259  0.00  0.00     0.002 A 
HETATM   12  C   UNK N   1      26.029  19.739   3.514  0.00  0.00     0.001 A 
HETATM   13  C   UNK N   1      25.913  18.341   3.423  0.00  0.00     0.015 A 
HETATM   14  C   UNK N   1      27.021  16.204   4.163  0.00  0.00     0.045 A 
HETATM   15  C   UNK N   1      28.140  15.979   4.937  0.00  0.00     0.032 A 
HETATM   16  C   UNK N   1      26.244  15.109   3.567  0.00  0.00     0.162 C 
HETATM   17  C   UNK N   1      28.635  14.593   5.242  0.00  0.00     0.059 C 
HETATM   18  C   UNK N   1      28.202  13.614   4.137  0.00  0.00     0.014 C 
HETATM   19  C   UNK N   1      26.699  13.691   3.799  0.00  0.00     0.084 C 
HETATM   20  O   UNK N   1      25.245  15.336   2.904  0.00  0.00    -0.292 OA
ENDBRANCH   6   7
BRANCH   4  21
HETATM   21  N   UNK N   1      33.576  17.177   5.642  0.00  0.00    -0.387 N 
HETATM   22  H   UNK N   1      34.139  17.975   5.516  0.00  0.00     0.159 HD
BRANCH  21  23
HETATM   23  C   UNK N   1      34.038  15.902   5.162  0.00  0.00     0.146 C 
BRANCH  23  24
HETATM   24  C   UNK N   1      35.132  15.376   6.079  0.00  0.00     0.186 C 
BRANCH  24  25
HETATM   25  O   UNK N   1      34.571  14.729   7.186  0.00  0.00    -0.394 OA
HETATM   26  C   UNK N   1      33.745  13.740   6.652  0.00  0.00     0.201 C 
ENDBRANCH  24  25
ENDBRANCH  23  24
ENDBRANCH  21  23
ENDBRANCH   4  21
BRANCH   1  27
HETATM   27  C   UNK N   1      33.442  17.576   8.572  0.00  0.00     0.251 C 
HETATM   28  O   UNK N   1      34.279  18.453   8.443  0.00  0.00    -0.268 OA
HETATM   29  N   UNK N   1      33.630  16.626   9.509  0.00  0.00    -0.366 N 
HETATM   30  H   UNK N   1      33.004  15.869   9.585  0.00  0.00     0.159 HD
HETATM   31  H   UNK N   1      34.398  16.687  10.122  0.00  0.00     0.159 HD
ENDBRANCH   1  27
TORSDOF 6
ENDMDL
MODEL 6
REMARK VINA RESULT:      -6.7      9.438     13.814
REMARK  6 active torsions:
REMARK  status: ('A' for Active; 'I' for Inactive)
REMARK       I    between atoms: C_2  and  N_3 
REMARK    1  A    between atoms: C_2  and  C_4 
REMARK    2  A    between atoms: C_7  and  N_8 
REMARK    3  A    between atoms: N_8  and  C_9 
REMARK    4  A    between atoms: C_9  and  C_10 
REMARK    5  A    between atoms: C_10  and  O_11 
REMARK    6  A    between atoms: C_14  and  N_15 
ROOT
HETATM    1  C   UNK N   1      20.451  16.394   1.756  0.00  0.00     0.058 A 
HETATM    2  C   UNK N   1      20.778  15.038   1.883  0.00  0.00     0.022 A 
HETATM    3  C   UNK N   1      21.344  14.544   3.057  0.00  0.00     0.031 A 
HETATM    4  C   UNK N   1      20.735  17.266   2.837  0.00  0.00     0.046 A 
HETATM    5  C   UNK N   1      21.292  16.755   4.014  0.00  0.00     0.060 A 
HETATM    6  C   UNK N   1      21.593  15.392   4.145  0.00  0.00     0.042 A 
ENDROOT
BRANCH   6   7
HETATM    7  N   UNK N   1      22.079  14.853   5.401  0.00  0.00    -0.314 N 
HETATM    8  C   UNK N   1      23.309  14.321   5.644  0.00  0.00     0.051 A 
HETATM    9  C   UNK N   1      24.370  14.146   4.754  0.00  0.00     0.031 A 
HETATM   10  C   UNK N   1      23.427  13.971   6.971  0.00  0.00     0.007 A 
HETATM   11  C   UNK N   1      25.567  13.598   5.250  0.00  0.00     0.002 A 
HETATM   12  C   UNK N   1      25.682  13.241   6.611  0.00  0.00     0.001 A 
HETATM   13  C   UNK N   1      24.600  13.427   7.489  0.00  0.00     0.015 A 
HETATM   14  C   UNK N   1      22.234  14.288   7.576  0.00  0.00     0.045 A 
HETATM   15  C   UNK N   1      21.425  14.823   6.596  0.00  0.00     0.032 A 
HETATM   16  C   UNK N   1      21.798  14.156   8.971  0.00  0.00     0.162 C 
HETATM   17  C   UNK N   1      20.027  15.293   6.885  0.00  0.00     0.059 C 
HETATM   18  C   UNK N   1      19.893  15.702   8.361  0.00  0.00     0.014 C 
HETATM   19  C   UNK N   1      20.421  14.639   9.346  0.00  0.00     0.084 C 
HETATM   20  O   UNK N   1      22.528  13.659   9.814  0.00  0.00    -0.292 OA
ENDBRANCH   6   7
BRANCH   4  21
HETATM   21  N   UNK N   1      20.474  18.651   2.751  0.00  0.00    -0.387 N 
HETATM   22  H   UNK N   1      19.728  18.970   2.193  0.00  0.00     0.159 HD
BRANCH  21  23
HETATM   23  C   UNK N   1      21.281  19.603   3.465  0.00  0.00     0.146 C 
BRANCH  23  24
HETATM   24  C   UNK N   1      21.577  20.797   2.570  0.00  0.00     0.186 C 
BRANCH  24  25
HETATM   25  O   UNK N   1      22.862  21.289   2.821  0.00  0.00    -0.394 OA
HETATM   26  C   UNK N   1      23.631  20.166   3.126  0.00  0.00     0.201 C 
ENDBRANCH  24  25
ENDBRANCH  23  24
ENDBRANCH  21  23
ENDBRANCH   4  21
BRANCH   1  27
HETATM   27  C   UNK N   1      19.807  16.855   0.495  0.00  0.00     0.251 C 
HETATM   28  O   UNK N   1      20.404  17.576  -0.287  0.00  0.00    -0.268 OA
HETATM   29  N   UNK N   1      18.535  16.502   0.218  0.00  0.00    -0.366 N 
HETATM   30  H   UNK N   1      18.011  15.979   0.867  0.00  0.00     0.159 HD
HETATM   31  H   UNK N   1      18.128  16.770  -0.637  0.00  0.00     0.159 HD
ENDBRANCH   1  27
TORSDOF 6
ENDMDL
MODEL 7
REMARK VINA RESULT:      -6.6      6.466     11.707
REMARK  6 active torsions:
REMARK  status: ('A' for Active; 'I' for Inactive)
REMARK       I    between atoms: C_2  and  N_3 
REMARK    1  A    between atoms: C_2  and  C_4 
REMARK    2  A    between atoms: C_7  and  N_8 
REMARK    3  A    between atoms: N_8  and  C_9 
REMARK    4  A    between atoms: C_9  and  C_10 
REMARK    5  A    between atoms: C_10  and  O_11 
REMARK    6  A    between atoms: C_14  and  N_15 
ROOT
HETATM    1  C   UNK N   1      22.533  19.708   3.293  0.00  0.00     0.058 A 
HETATM    2  C   UNK N   1      23.754  20.342   3.028  0.00  0.00     0.022 A 
HETATM    3  C   UNK N   1      24.965  19.721   3.330  0.00  0.00     0.031 A 
HETATM    4  C   UNK N   1      22.549  18.430   3.905  0.00  0.00     0.046 A 
HETATM    5  C   UNK N   1      23.772  17.813   4.192  0.00  0.00     0.060 A 
HETATM    6  C   UNK N   1      24.991  18.441   3.900  0.00  0.00     0.042 A 
ENDROOT
BRANCH   6   7
HETATM    7  N   UNK N   1      26.252  17.756   4.110  0.00  0.00    -0.314 N 
HETATM    8  C   UNK N   1      27.155  17.986   5.103  0.00  0.00     0.051 A 
HETATM    9  C   UNK N   1      27.098  18.935   6.125  0.00  0.00     0.031 A 
HETATM   10  C   UNK N   1      28.202  17.096   5.015  0.00  0.00     0.007 A 
HETATM   11  C   UNK N   1      28.146  18.962   7.064  0.00  0.00     0.002 A 
HETATM   12  C   UNK N   1      29.217  18.048   6.967  0.00  0.00     0.001 A 
HETATM   13  C   UNK N   1      29.253  17.099   5.930  0.00  0.00     0.015 A 
HETATM   14  C   UNK N   1      27.952  16.289   3.931  0.00  0.00     0.045 A 
HETATM   15  C   UNK N   1      26.755  16.712   3.393  0.00  0.00     0.032 A 
HETATM   16  C   UNK N   1      28.709  15.161   3.376  0.00  0.00     0.162 C 
HETATM   17  C   UNK N   1      26.149  16.058   2.182  0.00  0.00     0.059 C 
HETATM   18  C   UNK N   1      26.618  14.598   2.071  0.00  0.00     0.014 C 
HETATM   19  C   UNK N   1      28.147  14.431   2.183  0.00  0.00     0.084 C 
HETATM   20  O   UNK N   1      29.777  14.820   3.861  0.00  0.00    -0.292 OA
ENDBRANCH   6   7
BRANCH   4  21
HETATM   21  N   UNK N   1      21.352  17.762   4.242  0.00  0.00    -0.387 N 
HETATM   22  H   UNK N   1      20.824  18.073   5.013  0.00  0.00     0.159 HD
BRANCH  21  23
HETATM   23  C   UNK N   1      20.891  16.635   3.478  0.00  0.00     0.146 C 
BRANCH  23  24
HETATM   24  C   UNK N   1      19.782  17.076   2.534  0.00  0.00     0.186 C 
BRANCH  24  25
HETATM   25  O   UNK N   1      20.325  17.593   1.352  0.00  0.00    -0.394 OA
HETATM   26  C   UNK N   1      19.834  16.774   0.335  0.00  0.00     0.201 C 
ENDBRANCH  24  25
ENDBRANCH  23  24
ENDBRANCH  21  23
ENDBRANCH   4  21
BRANCH   1  27
HETATM   27  C   UNK N   1      21.273  20.402   2.907  0.00  0.00     0.251 C 
HETATM   28  O   UNK N   1      20.446  20.714   3.747  0.00  0.00    -0.268 OA
HETATM   29  N   UNK N   1      21.018  20.666   1.609  0.00  0.00    -0.366 N 
HETATM   30  H   UNK N   1      21.639  20.361   0.908  0.00  0.00     0.159 HD
HETATM   31  H   UNK N   1      20.207  21.165   1.361  0.00  0.00     0.159 HD
ENDBRANCH   1  27
TORSDOF 6
ENDMDL
MODEL 8
REMARK VINA RESULT:      -6.6     14.209     17.807
REMARK  6 active torsions:
REMARK  status: ('A' for Active; 'I' for Inactive)
REMARK       I    between atoms: C_2  and  N_3 
REMARK    1  A    between atoms: C_2  and  C_4 
REMARK    2  A    between atoms: C_7  and  N_8 
REMARK    3  A    between atoms: N_8  and  C_9 
REMARK    4  A    between atoms: C_9  and  C_10 
REMARK    5  A    between atoms: C_10  and  O_11 
REMARK    6  A    between atoms: C_14  and  N_15 
ROOT
HETATM    1  C   UNK N   1      27.137  26.729  -3.887  0.00  0.00     0.058 A 
HETATM    2  C   UNK N   1      26.497  25.488  -3.781  0.00  0.00     0.022 A 
HETATM    3  C   UNK N   1      27.104  24.325  -4.254  0.00  0.00     0.031 A 
HETATM    4  C   UNK N   1      28.407  26.788  -4.514  0.00  0.00     0.046 A 
HETATM    5  C   UNK N   1      29.010  25.612  -4.973  0.00  0.00     0.060 A 
HETATM    6  C   UNK N   1      28.375  24.368  -4.841  0.00  0.00     0.042 A 
ENDROOT
BRANCH   6   7
HETATM    7  N   UNK N   1      29.047  23.144  -5.231  0.00  0.00    -0.314 N 
HETATM    8  C   UNK N   1      30.041  22.503  -4.557  0.00  0.00     0.051 A 
HETATM    9  C   UNK N   1      30.660  22.876  -3.361  0.00  0.00     0.031 A 
HETATM   10  C   UNK N   1      30.386  21.337  -5.202  0.00  0.00     0.007 A 
HETATM   11  C   UNK N   1      31.651  22.028  -2.835  0.00  0.00     0.002 A 
HETATM   12  C   UNK N   1      32.000  20.834  -3.503  0.00  0.00     0.001 A 
HETATM   13  C   UNK N   1      31.363  20.477  -4.705  0.00  0.00     0.015 A 
HETATM   14  C   UNK N   1      29.588  21.247  -6.318  0.00  0.00     0.045 A 
HETATM   15  C   UNK N   1      28.780  22.364  -6.316  0.00  0.00     0.032 A 
HETATM   16  C   UNK N   1      29.502  20.215  -7.358  0.00  0.00     0.162 C 
HETATM   17  C   UNK N   1      27.762  22.614  -7.394  0.00  0.00     0.059 C 
HETATM   18  C   UNK N   1      27.310  21.286  -8.023  0.00  0.00     0.014 C 
HETATM   19  C   UNK N   1      28.480  20.378  -8.454  0.00  0.00     0.084 C 
HETATM   20  O   UNK N   1      30.245  19.246  -7.347  0.00  0.00    -0.292 OA
ENDBRANCH   6   7
BRANCH   4  21
HETATM   21  N   UNK N   1      29.080  28.016  -4.695  0.00  0.00    -0.387 N 
HETATM   22  H   UNK N   1      29.397  28.516  -3.908  0.00  0.00     0.159 HD
BRANCH  21  23
HETATM   23  C   UNK N   1      29.311  28.547  -6.011  0.00  0.00     0.146 C 
BRANCH  23  24
HETATM   24  C   UNK N   1      27.991  28.643  -6.763  0.00  0.00     0.186 C 
BRANCH  24  25
HETATM   25  O   UNK N   1      28.052  27.908  -7.951  0.00  0.00    -0.394 OA
HETATM   26  C   UNK N   1      27.061  26.933  -7.829  0.00  0.00     0.201 C 
ENDBRANCH  24  25
ENDBRANCH  23  24
ENDBRANCH  21  23
ENDBRANCH   4  21
BRANCH   1  27
HETATM   27  C   UNK N   1      26.459  27.929  -3.323  0.00  0.00     0.251 C 
HETATM   28  O   UNK N   1      26.925  28.520  -2.363  0.00  0.00    -0.268 OA
HETATM   29  N   UNK N   1      25.295  28.358  -3.852  0.00  0.00    -0.366 N 
HETATM   30  H   UNK N   1      24.865  27.855  -4.581  0.00  0.00     0.159 HD
HETATM   31  H   UNK N   1      24.873  29.177  -3.507  0.00  0.00     0.159 HD
ENDBRANCH   1  27
TORSDOF 6
ENDMDL
MODEL 9
REMARK VINA RESULT:      -6.6      3.629      6.007
REMARK  6 active torsions:
REMARK  status: ('A' for Active; 'I' for Inactive)
REMARK       I    between atoms: C_2  and  N_3 
REMARK    1  A    between atoms: C_2  and  C_4 
REMARK    2  A    between atoms: C_7  and  N_8 
REMARK    3  A    between atoms: N_8  and  C_9 
REMARK    4  A    between atoms: C_9  and  C_10 
REMARK    5  A    between atoms: C_10  and  O_11 
REMARK    6  A    between atoms: C_14  and  N_15 
ROOT
HETATM    1  C   UNK N   1      31.461  17.514   7.612  0.00  0.00     0.058 A 
HETATM    2  C   UNK N   1      30.341  17.943   8.336  0.00  0.00     0.022 A 
HETATM    3  C   UNK N   1      29.077  17.975   7.748  0.00  0.00     0.031 A 
HETATM    4  C   UNK N   1      31.293  17.141   6.255  0.00  0.00     0.046 A 
HETATM    5  C   UNK N   1      30.017  17.167   5.681  0.00  0.00     0.060 A 
HETATM    6  C   UNK N   1      28.895  17.572   6.418  0.00  0.00     0.042 A 
ENDROOT
BRANCH   6   7
HETATM    7  N   UNK N   1      27.564  17.504   5.846  0.00  0.00    -0.314 N 
HETATM    8  C   UNK N   1      26.595  16.590   6.128  0.00  0.00     0.051 A 
HETATM    9  C   UNK N   1      26.657  15.502   7.002  0.00  0.00     0.031 A 
HETATM   10  C   UNK N   1      25.441  16.883   5.437  0.00  0.00     0.007 A 
HETATM   11  C   UNK N   1      25.506  14.708   7.154  0.00  0.00     0.002 A 
HETATM   12  C   UNK N   1      24.326  15.014   6.440  0.00  0.00     0.001 A 
HETATM   13  C   UNK N   1      24.286  16.115   5.568  0.00  0.00     0.015 A 
HETATM   14  C   UNK N   1      25.695  18.011   4.694  0.00  0.00     0.045 A 
HETATM   15  C   UNK N   1      27.000  18.372   4.959  0.00  0.00     0.032 A 
HETATM   16  C   UNK N   1      24.834  18.782   3.790  0.00  0.00     0.162 C 
HETATM   17  C   UNK N   1      27.640  19.573   4.322  0.00  0.00     0.059 C 
HETATM   18  C   UNK N   1      26.572  20.613   3.943  0.00  0.00     0.014 C 
HETATM   19  C   UNK N   1      25.395  20.022   3.141  0.00  0.00     0.084 C 
HETATM   20  O   UNK N   1      23.689  18.428   3.558  0.00  0.00    -0.292 OA
ENDBRANCH   6   7
BRANCH   4  21
HETATM   21  N   UNK N   1      32.391  16.748   5.460  0.00  0.00    -0.387 N 
HETATM   22  H   UNK N   1      33.063  16.132   5.832  0.00  0.00     0.159 HD
BRANCH  21  23
HETATM   23  C   UNK N   1      32.544  17.233   4.115  0.00  0.00     0.146 C 
BRANCH  23  24
HETATM   24  C   UNK N   1      32.400  16.078   3.135  0.00  0.00     0.186 C 
BRANCH  24  25
HETATM   25  O   UNK N   1      33.576  15.919   2.393  0.00  0.00    -0.394 OA
HETATM   26  C   UNK N   1      34.022  14.630   2.687  0.00  0.00     0.201 C 
ENDBRANCH  24  25
ENDBRANCH  23  24
ENDBRANCH  21  23
ENDBRANCH   4  21
BRANCH   1  27
HETATM   27  C   UNK N   1      32.777  17.457   8.307  0.00  0.00     0.251 C 
HETATM   28  O   UNK N   1      33.697  18.184   7.970  0.00  0.00    -0.268 OA
HETATM   29  N   UNK N   1      32.976  16.572   9.305  0.00  0.00    -0.366 N 
HETATM   30  H   UNK N   1      32.271  15.928   9.547  0.00  0.00     0.159 HD
HETATM   31  H   UNK N   1      33.831  16.567   9.793  0.00  0.00     0.159 HD
ENDBRANCH   1  27
TORSDOF 6
ENDMDL
