MODEL 1
REMARK VINA RESULT:      -5.3      0.000      0.000
REMARK  13 active torsions:
REMARK  status: ('A' for Active; 'I' for Inactive)
REMARK    1  A    between atoms: C_1  and  S_15 
REMARK    2  A    between atoms: C_2  and  O_16 
REMARK    3  A    between atoms: C_3  and  O_17 
REMARK    4  A    between atoms: C_4  and  O_18 
REMARK    5  A    between atoms: C_5  and  C_6 
REMARK    6  A    between atoms: C_6  and  O_20 
REMARK    7  A    between atoms: C_7  and  C_8 
REMARK    8  A    between atoms: C_7  and  S_15 
REMARK    9  A    between atoms: C_8  and  C_9 
REMARK   10  A    between atoms: C_9  and  C_10 
REMARK   11  A    between atoms: C_10  and  C_11 
REMARK   12  A    between atoms: C_11  and  C_12 
REMARK   13  A    between atoms: C_12  and  C_13 
ROOT
HETATM    1  C   UNK N   1      22.232  19.376   3.408  0.00  0.00     0.214 C 
HETATM    2  C   UNK N   1      21.708  20.383   2.349  0.00  0.00     0.188 C 
HETATM    3  C   UNK N   1      20.361  19.918   1.743  0.00  0.00     0.181 C 
HETATM    4  C   UNK N   1      19.620  19.094   2.794  0.00  0.00     0.180 C 
HETATM    5  C   UNK N   1      20.477  17.827   3.096  0.00  0.00     0.178 C 
HETATM    6  O   UNK N   1      21.897  18.047   3.077  0.00  0.00    -0.363 OA
ENDROOT
BRANCH   1   7
HETATM    7  S   UNK N   1      24.047  19.543   3.563  0.00  0.00    -0.135 SA
BRANCH   7   8
HETATM    8  C   UNK N   1      24.345  17.763   3.750  0.00  0.00     0.076 C 
BRANCH   8   9
HETATM    9  C   UNK N   1      25.002  17.517   5.092  0.00  0.00     0.010 C 
BRANCH   9  10
HETATM   10  C   UNK N   1      25.900  16.299   5.009  0.00  0.00     0.001 C 
BRANCH  10  11
HETATM   11  C   UNK N   1      27.335  16.648   5.366  0.00  0.00     0.000 C 
BRANCH  11  12
HETATM   12  C   UNK N   1      27.980  17.480   4.273  0.00  0.00     0.000 C 
BRANCH  12  13
HETATM   13  C   UNK N   1      28.564  18.745   4.873  0.00  0.00    -0.000 C 
BRANCH  13  14
HETATM   14  C   UNK N   1      27.755  19.956   4.442  0.00  0.00    -0.005 C 
HETATM   15  C   UNK N   1      27.301  20.748   5.654  0.00  0.00     0.005 C 
ENDBRANCH  13  14
ENDBRANCH  12  13
ENDBRANCH  11  12
ENDBRANCH  10  11
ENDBRANCH   9  10
ENDBRANCH   8   9
ENDBRANCH   7   8
ENDBRANCH   1   7
BRANCH   2  16
HETATM   16  O   UNK N   1      21.552  21.624   2.973  0.00  0.00    -0.389 OA
HETATM   17  H   UNK N   1      20.892  22.325   3.090  0.00  0.00     0.210 HD
ENDBRANCH   2  16
BRANCH   3  18
HETATM   18  O   UNK N   1      20.603  19.116   0.620  0.00  0.00    -0.390 OA
HETATM   19  H   UNK N   1      20.594  18.943  -0.334  0.00  0.00     0.210 HD
ENDBRANCH   3  18
BRANCH   5  20
HETATM   20  C   UNK N   1      20.039  17.189   4.409  0.00  0.00     0.198 C 
BRANCH  20  21
HETATM   21  O   UNK N   1      18.777  16.612   4.276  0.00  0.00    -0.398 OA
HETATM   22  H   UNK N   1      17.894  17.015   4.293  0.00  0.00     0.209 HD
ENDBRANCH  20  21
ENDBRANCH   5  20
BRANCH   4  23
HETATM   23  O   UNK N   1      18.350  18.721   2.337  0.00  0.00    -0.390 OA
HETATM   24  H   UNK N   1      18.132  18.703   1.393  0.00  0.00     0.210 HD
ENDBRANCH   4  23
TORSDOF 13
ENDMDL
MODEL 2
REMARK VINA RESULT:      -5.3      8.930     12.216
REMARK  13 active torsions:
REMARK  status: ('A' for Active; 'I' for Inactive)
REMARK    1  A    between atoms: C_1  and  S_15 
REMARK    2  A    between atoms: C_2  and  O_16 
REMARK    3  A    between atoms: C_3  and  O_17 
REMARK    4  A    between atoms: C_4  and  O_18 
REMARK    5  A    between atoms: C_5  and  C_6 
REMARK    6  A    between atoms: C_6  and  O_20 
REMARK    7  A    between atoms: C_7  and  C_8 
REMARK    8  A    between atoms: C_7  and  S_15 
REMARK    9  A    between atoms: C_8  and  C_9 
REMARK   10  A    between atoms: C_9  and  C_10 
REMARK   11  A    between atoms: C_10  and  C_11 
REMARK   12  A    between atoms: C_11  and  C_12 
REMARK   13  A    between atoms: C_12  and  C_13 
ROOT
HETATM    1  C   UNK N   1      32.624  15.919   8.130  0.00  0.00     0.214 C 
HETATM    2  C   UNK N   1      32.919  14.956   9.311  0.00  0.00     0.188 C 
HETATM    3  C   UNK N   1      34.260  15.305  10.005  0.00  0.00     0.181 C 
HETATM    4  C   UNK N   1      34.506  16.804   9.849  0.00  0.00     0.180 C 
HETATM    5  C   UNK N   1      34.656  17.106   8.326  0.00  0.00     0.178 C 
HETATM    6  O   UNK N   1      33.806  16.321   7.474  0.00  0.00    -0.363 OA
ENDROOT
BRANCH   1   7
HETATM    7  S   UNK N   1      31.499  15.099   6.942  0.00  0.00    -0.135 SA
BRANCH   7   8
HETATM    8  C   UNK N   1      32.055  16.072   5.515  0.00  0.00     0.076 C 
BRANCH   8   9
HETATM    9  C   UNK N   1      31.164  17.288   5.376  0.00  0.00     0.010 C 
BRANCH   9  10
HETATM   10  C   UNK N   1      29.709  16.872   5.474  0.00  0.00     0.001 C 
BRANCH  10  11
HETATM   11  C   UNK N   1      28.786  18.075   5.387  0.00  0.00     0.000 C 
BRANCH  11  12
HETATM   12  C   UNK N   1      27.780  18.072   6.523  0.00  0.00     0.000 C 
BRANCH  12  13
HETATM   13  C   UNK N   1      28.267  18.978   7.639  0.00  0.00    -0.000 C 
BRANCH  13  14
HETATM   14  C   UNK N   1      28.708  18.152   8.835  0.00  0.00    -0.005 C 
HETATM   15  C   UNK N   1      30.042  18.652   9.359  0.00  0.00     0.005 C 
ENDBRANCH  13  14
ENDBRANCH  12  13
ENDBRANCH  11  12
ENDBRANCH  10  11
ENDBRANCH   9  10
ENDBRANCH   8   9
ENDBRANCH   7   8
ENDBRANCH   1   7
BRANCH   2  16
HETATM   16  O   UNK N   1      31.865  15.056  10.224  0.00  0.00    -0.389 OA
HETATM   17  H   UNK N   1      30.986  15.456  10.311  0.00  0.00     0.210 HD
ENDBRANCH   2  16
BRANCH   3  18
HETATM   18  O   UNK N   1      35.304  14.604   9.389  0.00  0.00    -0.390 OA
HETATM   19  H   UNK N   1      35.704  13.802   9.017  0.00  0.00     0.210 HD
ENDBRANCH   3  18
BRANCH   5  20
HETATM   20  C   UNK N   1      34.474  18.595   8.059  0.00  0.00     0.198 C 
BRANCH  20  21
HETATM   21  O   UNK N   1      35.502  19.329   8.651  0.00  0.00    -0.398 OA
HETATM   22  H   UNK N   1      36.345  19.038   9.033  0.00  0.00     0.209 HD
ENDBRANCH  20  21
ENDBRANCH   5  20
BRANCH   4  23
HETATM   23  O   UNK N   1      35.659  17.200  10.537  0.00  0.00    -0.390 OA
HETATM   24  H   UNK N   1      35.792  18.116  10.825  0.00  0.00     0.210 HD
ENDBRANCH   4  23
TORSDOF 13
ENDMDL
MODEL 3
REMARK VINA RESULT:      -5.2     12.758     15.653
REMARK  13 active torsions:
REMARK  status: ('A' for Active; 'I' for Inactive)
REMARK    1  A    between atoms: C_1  and  S_15 
REMARK    2  A    between atoms: C_2  and  O_16 
REMARK    3  A    between atoms: C_3  and  O_17 
REMARK    4  A    between atoms: C_4  and  O_18 
REMARK    5  A    between atoms: C_5  and  C_6 
REMARK    6  A    between atoms: C_6  and  O_20 
REMARK    7  A    between atoms: C_7  and  C_8 
REMARK    8  A    between atoms: C_7  and  S_15 
REMARK    9  A    between atoms: C_8  and  C_9 
REMARK   10  A    between atoms: C_9  and  C_10 
REMARK   11  A    between atoms: C_10  and  C_11 
REMARK   12  A    between atoms: C_11  and  C_12 
REMARK   13  A    between atoms: C_12  and  C_13 
ROOT
HETATM    1  C   UNK N   1      34.914  14.146   9.633  0.00  0.00     0.214 C 
HETATM    2  C   UNK N   1      34.537  15.195  10.712  0.00  0.00     0.188 C 
HETATM    3  C   UNK N   1      34.466  16.622  10.113  0.00  0.00     0.181 C 
HETATM    4  C   UNK N   1      34.065  16.508   8.644  0.00  0.00     0.180 C 
HETATM    5  C   UNK N   1      35.193  15.728   7.903  0.00  0.00     0.178 C 
HETATM    6  O   UNK N   1      35.799  14.676   8.673  0.00  0.00    -0.363 OA
ENDROOT
BRANCH   1   7
HETATM    7  S   UNK N   1      35.668  12.687  10.440  0.00  0.00    -0.135 SA
BRANCH   7   8
HETATM    8  C   UNK N   1      36.696  13.661  11.575  0.00  0.00     0.076 C 
BRANCH   8   9
HETATM    9  C   UNK N   1      36.506  13.130  12.981  0.00  0.00     0.010 C 
BRANCH   9  10
HETATM   10  C   UNK N   1      36.417  14.285  13.958  0.00  0.00     0.001 C 
BRANCH  10  11
HETATM   11  C   UNK N   1      36.792  13.847  15.364  0.00  0.00     0.000 C 
BRANCH  11  12
HETATM   12  C   UNK N   1      36.197  12.488  15.686  0.00  0.00     0.000 C 
BRANCH  12  13
HETATM   13  C   UNK N   1      34.952  12.665  16.536  0.00  0.00    -0.000 C 
BRANCH  13  14
HETATM   14  C   UNK N   1      35.200  13.691  17.629  0.00  0.00    -0.005 C 
HETATM   15  C   UNK N   1      35.161  13.030  18.994  0.00  0.00     0.005 C 
ENDBRANCH  13  14
ENDBRANCH  12  13
ENDBRANCH  11  12
ENDBRANCH  10  11
ENDBRANCH   9  10
ENDBRANCH   8   9
ENDBRANCH   7   8
ENDBRANCH   1   7
BRANCH   2  16
HETATM   16  O   UNK N   1      33.297  14.837  11.249  0.00  0.00    -0.389 OA
HETATM   17  H   UNK N   1      32.389  14.642  10.970  0.00  0.00     0.210 HD
ENDBRANCH   2  16
BRANCH   3  18
HETATM   18  O   UNK N   1      35.725  17.231  10.198  0.00  0.00    -0.390 OA
HETATM   19  H   UNK N   1      36.343  17.960  10.037  0.00  0.00     0.210 HD
ENDBRANCH   3  18
BRANCH   5  20
HETATM   20  C   UNK N   1      34.687  15.205   6.564  0.00  0.00     0.198 C 
BRANCH  20  21
HETATM   21  O   UNK N   1      34.761  16.199   5.589  0.00  0.00    -0.398 OA
HETATM   22  H   UNK N   1      34.273  17.033   5.501  0.00  0.00     0.209 HD
ENDBRANCH  20  21
ENDBRANCH   5  20
BRANCH   4  23
HETATM   23  O   UNK N   1      33.893  17.773   8.069  0.00  0.00    -0.390 OA
HETATM   24  H   UNK N   1      33.017  18.182   7.989  0.00  0.00     0.210 HD
ENDBRANCH   4  23
TORSDOF 13
ENDMDL
MODEL 4
REMARK VINA RESULT:      -5.2     10.904     13.224
REMARK  13 active torsions:
REMARK  status: ('A' for Active; 'I' for Inactive)
REMARK    1  A    between atoms: C_1  and  S_15 
REMARK    2  A    between atoms: C_2  and  O_16 
REMARK    3  A    between atoms: C_3  and  O_17 
REMARK    4  A    between atoms: C_4  and  O_18 
REMARK    5  A    between atoms: C_5  and  C_6 
REMARK    6  A    between atoms: C_6  and  O_20 
REMARK    7  A    between atoms: C_7  and  C_8 
REMARK    8  A    between atoms: C_7  and  S_15 
REMARK    9  A    between atoms: C_8  and  C_9 
REMARK   10  A    between atoms: C_9  and  C_10 
REMARK   11  A    between atoms: C_10  and  C_11 
REMARK   12  A    between atoms: C_11  and  C_12 
REMARK   13  A    between atoms: C_12  and  C_13 
ROOT
HETATM    1  C   UNK N   1      30.021  23.026  -4.837  0.00  0.00     0.214 C 
HETATM    2  C   UNK N   1      30.470  23.990  -3.707  0.00  0.00     0.188 C 
HETATM    3  C   UNK N   1      31.194  23.230  -2.568  0.00  0.00     0.181 C 
HETATM    4  C   UNK N   1      31.878  22.003  -3.167  0.00  0.00     0.180 C 
HETATM    5  C   UNK N   1      30.766  21.071  -3.740  0.00  0.00     0.178 C 
HETATM    6  O   UNK N   1      29.653  21.762  -4.331  0.00  0.00    -0.363 OA
ENDROOT
BRANCH   1   7
HETATM    7  S   UNK N   1      28.619  23.766  -5.749  0.00  0.00    -0.135 SA
BRANCH   7   8
HETATM    8  C   UNK N   1      27.792  24.399  -4.262  0.00  0.00     0.076 C 
BRANCH   8   9
HETATM    9  C   UNK N   1      26.294  24.336  -4.472  0.00  0.00     0.010 C 
BRANCH   9  10
HETATM   10  C   UNK N   1      25.939  24.934  -5.819  0.00  0.00     0.001 C 
BRANCH  10  11
HETATM   11  C   UNK N   1      25.125  26.206  -5.658  0.00  0.00     0.000 C 
BRANCH  11  12
HETATM   12  C   UNK N   1      26.018  27.432  -5.698  0.00  0.00     0.000 C 
BRANCH  12  13
HETATM   13  C   UNK N   1      26.982  27.323  -6.865  0.00  0.00    -0.000 C 
BRANCH  13  14
HETATM   14  C   UNK N   1      27.885  28.543  -6.920  0.00  0.00    -0.005 C 
HETATM   15  C   UNK N   1      27.694  29.398  -5.680  0.00  0.00     0.005 C 
ENDBRANCH  13  14
ENDBRANCH  12  13
ENDBRANCH  11  12
ENDBRANCH  10  11
ENDBRANCH   9  10
ENDBRANCH   8   9
ENDBRANCH   7   8
ENDBRANCH   1   7
BRANCH   2  16
HETATM   16  O   UNK N   1      31.324  24.945  -4.266  0.00  0.00    -0.389 OA
HETATM   17  H   UNK N   1      31.720  25.186  -5.118  0.00  0.00     0.210 HD
ENDBRANCH   2  16
BRANCH   3  18
HETATM   18  O   UNK N   1      30.258  22.811  -1.613  0.00  0.00    -0.390 OA
HETATM   19  H   UNK N   1      29.965  22.243  -0.883  0.00  0.00     0.210 HD
ENDBRANCH   3  18
BRANCH   5  20
HETATM   20  C   UNK N   1      31.366  20.064  -4.714  0.00  0.00     0.198 C 
BRANCH  20  21
HETATM   21  O   UNK N   1      32.220  19.186  -4.047  0.00  0.00    -0.398 OA
HETATM   22  H   UNK N   1      32.119  18.243  -3.842  0.00  0.00     0.209 HD
ENDBRANCH  20  21
ENDBRANCH   5  20
BRANCH   4  23
HETATM   23  O   UNK N   1      32.629  21.323  -2.201  0.00  0.00    -0.390 OA
HETATM   24  H   UNK N   1      33.105  20.504  -2.409  0.00  0.00     0.210 HD
ENDBRANCH   4  23
TORSDOF 13
ENDMDL
MODEL 5
REMARK VINA RESULT:      -5.1     12.025     15.035
REMARK  13 active torsions:
REMARK  status: ('A' for Active; 'I' for Inactive)
REMARK    1  A    between atoms: C_1  and  S_15 
REMARK    2  A    between atoms: C_2  and  O_16 
REMARK    3  A    between atoms: C_3  and  O_17 
REMARK    4  A    between atoms: C_4  and  O_18 
REMARK    5  A    between atoms: C_5  and  C_6 
REMARK    6  A    between atoms: C_6  and  O_20 
REMARK    7  A    between atoms: C_7  and  C_8 
REMARK    8  A    between atoms: C_7  and  S_15 
REMARK    9  A    between atoms: C_8  and  C_9 
REMARK   10  A    between atoms: C_9  and  C_10 
REMARK   11  A    between atoms: C_10  and  C_11 
REMARK   12  A    between atoms: C_11  and  C_12 
REMARK   13  A    between atoms: C_12  and  C_13 
ROOT
HETATM    1  C   UNK N   1      35.192  15.305   9.371  0.00  0.00     0.214 C 
HETATM    2  C   UNK N   1      34.051  14.257   9.283  0.00  0.00     0.188 C 
HETATM    3  C   UNK N   1      32.694  14.925   8.946  0.00  0.00     0.181 C 
HETATM    4  C   UNK N   1      32.967  16.180   8.121  0.00  0.00     0.180 C 
HETATM    5  C   UNK N   1      33.784  17.166   9.011  0.00  0.00     0.178 C 
HETATM    6  O   UNK N   1      34.735  16.536   9.885  0.00  0.00    -0.363 OA
ENDROOT
BRANCH   1   7
HETATM    7  S   UNK N   1      36.539  14.651  10.423  0.00  0.00    -0.135 SA
BRANCH   7   8
HETATM    8  C   UNK N   1      35.762  15.149  11.986  0.00  0.00     0.076 C 
BRANCH   8   9
HETATM    9  C   UNK N   1      35.941  14.035  12.995  0.00  0.00     0.010 C 
BRANCH   9  10
HETATM   10  C   UNK N   1      36.562  14.585  14.263  0.00  0.00     0.001 C 
BRANCH  10  11
HETATM   11  C   UNK N   1      36.755  13.492  15.300  0.00  0.00     0.000 C 
BRANCH  11  12
HETATM   12  C   UNK N   1      35.652  12.454  15.208  0.00  0.00     0.000 C 
BRANCH  12  13
HETATM   13  C   UNK N   1      34.990  12.291  16.564  0.00  0.00    -0.000 C 
BRANCH  13  14
HETATM   14  C   UNK N   1      35.237  13.519  17.423  0.00  0.00    -0.005 C 
HETATM   15  C   UNK N   1      35.159  13.159  18.896  0.00  0.00     0.005 C 
ENDBRANCH  13  14
ENDBRANCH  12  13
ENDBRANCH  11  12
ENDBRANCH  10  11
ENDBRANCH   9  10
ENDBRANCH   8   9
ENDBRANCH   7   8
ENDBRANCH   1   7
BRANCH   2  16
HETATM   16  O   UNK N   1      34.390  13.332   8.292  0.00  0.00    -0.389 OA
HETATM   17  H   UNK N   1      34.172  13.104   7.374  0.00  0.00     0.210 HD
ENDBRANCH   2  16
BRANCH   3  18
HETATM   18  O   UNK N   1      32.043  15.290  10.132  0.00  0.00    -0.390 OA
HETATM   19  H   UNK N   1      31.257  15.375  10.694  0.00  0.00     0.210 HD
ENDBRANCH   3  18
BRANCH   5  20
HETATM   20  C   UNK N   1      34.454  18.230   8.149  0.00  0.00     0.198 C 
BRANCH  20  21
HETATM   21  O   UNK N   1      34.330  17.915   6.796  0.00  0.00    -0.398 OA
HETATM   22  H   UNK N   1      34.877  18.170   6.037  0.00  0.00     0.209 HD
ENDBRANCH  20  21
ENDBRANCH   5  20
BRANCH   4  23
HETATM   23  O   UNK N   1      31.772  16.780   7.705  0.00  0.00    -0.390 OA
HETATM   24  H   UNK N   1      31.532  16.841   6.768  0.00  0.00     0.210 HD
ENDBRANCH   4  23
TORSDOF 13
ENDMDL
MODEL 6
REMARK VINA RESULT:      -5.1     12.694     15.397
REMARK  13 active torsions:
REMARK  status: ('A' for Active; 'I' for Inactive)
REMARK    1  A    between atoms: C_1  and  S_15 
REMARK    2  A    between atoms: C_2  and  O_16 
REMARK    3  A    between atoms: C_3  and  O_17 
REMARK    4  A    between atoms: C_4  and  O_18 
REMARK    5  A    between atoms: C_5  and  C_6 
REMARK    6  A    between atoms: C_6  and  O_20 
REMARK    7  A    between atoms: C_7  and  C_8 
REMARK    8  A    between atoms: C_7  and  S_15 
REMARK    9  A    between atoms: C_8  and  C_9 
REMARK   10  A    between atoms: C_9  and  C_10 
REMARK   11  A    between atoms: C_10  and  C_11 
REMARK   12  A    between atoms: C_11  and  C_12 
REMARK   13  A    between atoms: C_12  and  C_13 
ROOT
HETATM    1  C   UNK N   1      34.435  14.169   9.493  0.00  0.00     0.214 C 
HETATM    2  C   UNK N   1      34.661  14.867  10.861  0.00  0.00     0.188 C 
HETATM    3  C   UNK N   1      35.225  16.299  10.680  0.00  0.00     0.181 C 
HETATM    4  C   UNK N   1      34.724  16.848   9.346  0.00  0.00     0.180 C 
HETATM    5  C   UNK N   1      35.308  15.950   8.212  0.00  0.00     0.178 C 
HETATM    6  O   UNK N   1      35.402  14.555   8.542  0.00  0.00    -0.363 OA
ENDROOT
BRANCH   1   7
HETATM    7  S   UNK N   1      34.473  12.354   9.722  0.00  0.00    -0.135 SA
BRANCH   7   8
HETATM    8  C   UNK N   1      35.847  12.383  10.907  0.00  0.00     0.076 C 
BRANCH   8   9
HETATM    9  C   UNK N   1      35.782  11.133  11.759  0.00  0.00     0.010 C 
BRANCH   9  10
HETATM   10  C   UNK N   1      34.376  10.565  11.732  0.00  0.00     0.001 C 
BRANCH  10  11
HETATM   11  C   UNK N   1      33.821  10.403  13.137  0.00  0.00     0.000 C 
BRANCH  11  12
HETATM   12  C   UNK N   1      34.854  10.792  14.178  0.00  0.00     0.000 C 
BRANCH  12  13
HETATM   13  C   UNK N   1      34.299  11.894  15.061  0.00  0.00    -0.000 C 
BRANCH  13  14
HETATM   14  C   UNK N   1      35.421  12.571  15.829  0.00  0.00    -0.005 C 
HETATM   15  C   UNK N   1      34.900  13.139  17.136  0.00  0.00     0.005 C 
ENDBRANCH  13  14
ENDBRANCH  12  13
ENDBRANCH  11  12
ENDBRANCH  10  11
ENDBRANCH   9  10
ENDBRANCH   8   9
ENDBRANCH   7   8
ENDBRANCH   1   7
BRANCH   2  16
HETATM   16  O   UNK N   1      33.434  14.915  11.530  0.00  0.00    -0.389 OA
HETATM   17  H   UNK N   1      33.039  15.263  12.344  0.00  0.00     0.210 HD
ENDBRANCH   2  16
BRANCH   3  18
HETATM   18  O   UNK N   1      36.625  16.253  10.658  0.00  0.00    -0.390 OA
HETATM   19  H   UNK N   1      37.475  15.807  10.794  0.00  0.00     0.210 HD
ENDBRANCH   3  18
BRANCH   5  20
HETATM   20  C   UNK N   1      34.532  16.156   6.917  0.00  0.00     0.198 C 
BRANCH  20  21
HETATM   21  O   UNK N   1      34.557  17.498   6.538  0.00  0.00    -0.398 OA
HETATM   22  H   UNK N   1      33.883  18.191   6.627  0.00  0.00     0.209 HD
ENDBRANCH  20  21
ENDBRANCH   5  20
BRANCH   4  23
HETATM   23  O   UNK N   1      35.124  18.177   9.166  0.00  0.00    -0.390 OA
HETATM   24  H   UNK N   1      35.266  18.773   9.917  0.00  0.00     0.210 HD
ENDBRANCH   4  23
TORSDOF 13
ENDMDL
MODEL 7
REMARK VINA RESULT:      -5.1     15.124     17.634
REMARK  13 active torsions:
REMARK  status: ('A' for Active; 'I' for Inactive)
REMARK    1  A    between atoms: C_1  and  S_15 
REMARK    2  A    between atoms: C_2  and  O_16 
REMARK    3  A    between atoms: C_3  and  O_17 
REMARK    4  A    between atoms: C_4  and  O_18 
REMARK    5  A    between atoms: C_5  and  C_6 
REMARK    6  A    between atoms: C_6  and  O_20 
REMARK    7  A    between atoms: C_7  and  C_8 
REMARK    8  A    between atoms: C_7  and  S_15 
REMARK    9  A    between atoms: C_8  and  C_9 
REMARK   10  A    between atoms: C_9  and  C_10 
REMARK   11  A    between atoms: C_10  and  C_11 
REMARK   12  A    between atoms: C_11  and  C_12 
REMARK   13  A    between atoms: C_12  and  C_13 
ROOT
HETATM    1  C   UNK N   1      35.768  13.314  12.174  0.00  0.00     0.214 C 
HETATM    2  C   UNK N   1      35.219  14.690  11.713  0.00  0.00     0.188 C 
HETATM    3  C   UNK N   1      35.962  15.204  10.455  0.00  0.00     0.181 C 
HETATM    4  C   UNK N   1      36.440  13.997   9.652  0.00  0.00     0.180 C 
HETATM    5  C   UNK N   1      37.462  13.214  10.531  0.00  0.00     0.178 C 
HETATM    6  O   UNK N   1      37.153  13.196  11.935  0.00  0.00    -0.363 OA
ENDROOT
BRANCH   1   7
HETATM    7  S   UNK N   1      35.421  13.085  13.956  0.00  0.00    -0.135 SA
BRANCH   7   8
HETATM    8  C   UNK N   1      34.461  11.562  13.724  0.00  0.00     0.076 C 
BRANCH   8   9
HETATM    9  C   UNK N   1      33.940  11.104  15.071  0.00  0.00     0.010 C 
BRANCH   9  10
HETATM   10  C   UNK N   1      34.735   9.905  15.548  0.00  0.00     0.001 C 
BRANCH  10  11
HETATM   11  C   UNK N   1      34.830   9.876  17.064  0.00  0.00     0.000 C 
BRANCH  11  12
HETATM   12  C   UNK N   1      35.711  11.001  17.576  0.00  0.00     0.000 C 
BRANCH  12  13
HETATM   13  C   UNK N   1      35.289  11.380  18.983  0.00  0.00    -0.000 C 
BRANCH  13  14
HETATM   14  C   UNK N   1      35.240  12.891  19.132  0.00  0.00    -0.005 C 
HETATM   15  C   UNK N   1      35.130  13.553  17.771  0.00  0.00     0.005 C 
ENDBRANCH  13  14
ENDBRANCH  12  13
ENDBRANCH  11  12
ENDBRANCH  10  11
ENDBRANCH   9  10
ENDBRANCH   8   9
ENDBRANCH   7   8
ENDBRANCH   1   7
BRANCH   2  16
HETATM   16  O   UNK N   1      33.856  14.542  11.439  0.00  0.00    -0.389 OA
HETATM   17  H   UNK N   1      33.067  15.075  11.257  0.00  0.00     0.210 HD
ENDBRANCH   2  16
BRANCH   3  18
HETATM   18  O   UNK N   1      37.073  15.964  10.843  0.00  0.00    -0.390 OA
HETATM   19  H   UNK N   1      37.545  16.553  11.452  0.00  0.00     0.210 HD
ENDBRANCH   3  18
BRANCH   5  20
HETATM   20  C   UNK N   1      37.654  11.801   9.994  0.00  0.00     0.198 C 
BRANCH  20  21
HETATM   21  O   UNK N   1      38.209  11.833   8.716  0.00  0.00    -0.398 OA
HETATM   22  H   UNK N   1      39.135  11.889   8.431  0.00  0.00     0.209 HD
ENDBRANCH  20  21
ENDBRANCH   5  20
BRANCH   4  23
HETATM   23  O   UNK N   1      37.040  14.396   8.451  0.00  0.00    -0.390 OA
HETATM   24  H   UNK N   1      37.379  13.751   7.812  0.00  0.00     0.210 HD
ENDBRANCH   4  23
TORSDOF 13
ENDMDL
MODEL 8
REMARK VINA RESULT:      -5.1     10.794     14.216
REMARK  13 active torsions:
REMARK  status: ('A' for Active; 'I' for Inactive)
REMARK    1  A    between atoms: C_1  and  S_15 
REMARK    2  A    between atoms: C_2  and  O_16 
REMARK    3  A    between atoms: C_3  and  O_17 
REMARK    4  A    between atoms: C_4  and  O_18 
REMARK    5  A    between atoms: C_5  and  C_6 
REMARK    6  A    between atoms: C_6  and  O_20 
REMARK    7  A    between atoms: C_7  and  C_8 
REMARK    8  A    between atoms: C_7  and  S_15 
REMARK    9  A    between atoms: C_8  and  C_9 
REMARK   10  A    between atoms: C_9  and  C_10 
REMARK   11  A    between atoms: C_10  and  C_11 
REMARK   12  A    between atoms: C_11  and  C_12 
REMARK   13  A    between atoms: C_12  and  C_13 
ROOT
HETATM    1  C   UNK N   1      34.229  14.422  10.073  0.00  0.00     0.214 C 
HETATM    2  C   UNK N   1      35.472  14.934   9.298  0.00  0.00     0.188 C 
HETATM    3  C   UNK N   1      36.757  14.832  10.159  0.00  0.00     0.181 C 
HETATM    4  C   UNK N   1      36.592  13.668  11.132  0.00  0.00     0.180 C 
HETATM    5  C   UNK N   1      35.401  14.004  12.080  0.00  0.00     0.178 C 
HETATM    6  O   UNK N   1      34.316  14.707  11.451  0.00  0.00    -0.363 OA
ENDROOT
BRANCH   1   7
HETATM    7  S   UNK N   1      32.719  15.184   9.373  0.00  0.00    -0.135 SA
BRANCH   7   8
HETATM    8  C   UNK N   1      33.517  16.768   8.989  0.00  0.00     0.076 C 
BRANCH   8   9
HETATM    9  C   UNK N   1      32.540  17.632   8.220  0.00  0.00     0.010 C 
BRANCH   9  10
HETATM   10  C   UNK N   1      32.675  17.362   6.734  0.00  0.00     0.001 C 
BRANCH  10  11
HETATM   11  C   UNK N   1      31.316  17.168   6.084  0.00  0.00     0.000 C 
BRANCH  11  12
HETATM   12  C   UNK N   1      30.250  16.882   7.126  0.00  0.00     0.000 C 
BRANCH  12  13
HETATM   13  C   UNK N   1      29.044  17.768   6.879  0.00  0.00    -0.000 C 
BRANCH  13  14
HETATM   14  C   UNK N   1      28.799  18.673   8.074  0.00  0.00    -0.005 C 
HETATM   15  C   UNK N   1      28.159  17.892   9.207  0.00  0.00     0.005 C 
ENDBRANCH  13  14
ENDBRANCH  12  13
ENDBRANCH  11  12
ENDBRANCH  10  11
ENDBRANCH   9  10
ENDBRANCH   8   9
ENDBRANCH   7   8
ENDBRANCH   1   7
BRANCH   2  16
HETATM   16  O   UNK N   1      35.607  14.163   8.140  0.00  0.00    -0.389 OA
HETATM   17  H   UNK N   1      35.260  13.353   7.736  0.00  0.00     0.210 HD
ENDBRANCH   2  16
BRANCH   3  18
HETATM   18  O   UNK N   1      36.929  16.016  10.887  0.00  0.00    -0.390 OA
HETATM   19  H   UNK N   1      36.652  16.672  11.546  0.00  0.00     0.210 HD
ENDBRANCH   3  18
BRANCH   5  20
HETATM   20  C   UNK N   1      34.904  12.743  12.778  0.00  0.00     0.198 C 
BRANCH  20  21
HETATM   21  O   UNK N   1      34.532  13.025  14.092  0.00  0.00    -0.398 OA
HETATM   22  H   UNK N   1      34.017  13.761  14.458  0.00  0.00     0.209 HD
ENDBRANCH  20  21
ENDBRANCH   5  20
BRANCH   4  23
HETATM   23  O   UNK N   1      37.761  13.465  11.877  0.00  0.00    -0.390 OA
HETATM   24  H   UNK N   1      38.635  13.444  11.458  0.00  0.00     0.210 HD
ENDBRANCH   4  23
TORSDOF 13
ENDMDL
MODEL 9
REMARK VINA RESULT:      -5.0     10.680     14.097
REMARK  13 active torsions:
REMARK  status: ('A' for Active; 'I' for Inactive)
REMARK    1  A    between atoms: C_1  and  S_15 
REMARK    2  A    between atoms: C_2  and  O_16 
REMARK    3  A    between atoms: C_3  and  O_17 
REMARK    4  A    between atoms: C_4  and  O_18 
REMARK    5  A    between atoms: C_5  and  C_6 
REMARK    6  A    between atoms: C_6  and  O_20 
REMARK    7  A    between atoms: C_7  and  C_8 
REMARK    8  A    between atoms: C_7  and  S_15 
REMARK    9  A    between atoms: C_8  and  C_9 
REMARK   10  A    between atoms: C_9  and  C_10 
REMARK   11  A    between atoms: C_10  and  C_11 
REMARK   12  A    between atoms: C_11  and  C_12 
REMARK   13  A    between atoms: C_12  and  C_13 
ROOT
HETATM    1  C   UNK N   1      35.487  15.324   8.774  0.00  0.00     0.214 C 
HETATM    2  C   UNK N   1      34.714  16.217   9.781  0.00  0.00     0.188 C 
HETATM    3  C   UNK N   1      34.903  15.724  11.237  0.00  0.00     0.181 C 
HETATM    4  C   UNK N   1      36.268  15.046  11.341  0.00  0.00     0.180 C 
HETATM    5  C   UNK N   1      36.253  13.799  10.406  0.00  0.00     0.178 C 
HETATM    6  O   UNK N   1      35.515  13.976   9.185  0.00  0.00    -0.363 OA
ENDROOT
BRANCH   1   7
HETATM    7  S   UNK N   1      34.711  15.457   7.122  0.00  0.00    -0.135 SA
BRANCH   7   8
HETATM    8  C   UNK N   1      33.026  15.156   7.725  0.00  0.00     0.076 C 
BRANCH   8   9
HETATM    9  C   UNK N   1      32.043  15.786   6.760  0.00  0.00     0.010 C 
BRANCH   9  10
HETATM   10  C   UNK N   1      32.026  17.290   6.953  0.00  0.00     0.001 C 
BRANCH  10  11
HETATM   11  C   UNK N   1      31.803  17.654   8.411  0.00  0.00     0.000 C 
BRANCH  11  12
HETATM   12  C   UNK N   1      30.392  17.308   8.848  0.00  0.00     0.000 C 
BRANCH  12  13
HETATM   13  C   UNK N   1      29.661  18.572   9.262  0.00  0.00    -0.000 C 
BRANCH  13  14
HETATM   14  C   UNK N   1      28.250  18.573   8.702  0.00  0.00    -0.005 C 
HETATM   15  C   UNK N   1      28.241  18.019   7.289  0.00  0.00     0.005 C 
ENDBRANCH  13  14
ENDBRANCH  12  13
ENDBRANCH  11  12
ENDBRANCH  10  11
ENDBRANCH   9  10
ENDBRANCH   8   9
ENDBRANCH   7   8
ENDBRANCH   1   7
BRANCH   2  16
HETATM   16  O   UNK N   1      35.189  17.525   9.651  0.00  0.00    -0.389 OA
HETATM   17  H   UNK N   1      34.877  18.416   9.424  0.00  0.00     0.210 HD
ENDBRANCH   2  16
BRANCH   3  18
HETATM   18  O   UNK N   1      33.905  14.792  11.551  0.00  0.00    -0.390 OA
HETATM   19  H   UNK N   1      33.276  14.092  11.320  0.00  0.00     0.210 HD
ENDBRANCH   3  18
BRANCH   5  20
HETATM   20  C   UNK N   1      37.674  13.328  10.123  0.00  0.00     0.198 C 
BRANCH  20  21
HETATM   21  O   UNK N   1      38.367  13.118  11.316  0.00  0.00    -0.398 OA
HETATM   22  H   UNK N   1      39.206  12.662  11.485  0.00  0.00     0.209 HD
ENDBRANCH  20  21
ENDBRANCH   5  20
BRANCH   4  23
HETATM   23  O   UNK N   1      36.539  14.660  12.659  0.00  0.00    -0.390 OA
HETATM   24  H   UNK N   1      37.444  14.493  12.966  0.00  0.00     0.210 HD
ENDBRANCH   4  23
TORSDOF 13
ENDMDL
