MODEL 1
REMARK VINA RESULT:      -7.3      0.000      0.000
REMARK  6 active torsions:
REMARK  status: ('A' for Active; 'I' for Inactive)
REMARK    1  A    between atoms: C_4  and  C_5 
REMARK    2  A    between atoms: C_5  and  O_7 
REMARK    3  A    between atoms: S_11  and  O_24 
REMARK    4  A    between atoms: C_13  and  N_14 
REMARK       I    between atoms: N_14  and  C_15 
REMARK    5  A    between atoms: C_15  and  C_17 
REMARK    6  A    between atoms: C_17  and  C_18 
ROOT
HETATM    1  O   UNK N   1      36.167  14.884  13.211  0.00  0.00    -0.277 OA
HETATM    2  C   UNK N   1      35.621  13.926  12.683  0.00  0.00     0.227 A 
HETATM    3  N   UNK N   1      34.821  13.907  11.633  0.00  0.00    -0.219 NA
HETATM    4  C   UNK N   1      34.751  14.898  10.531  0.00  0.00     0.183 C 
HETATM    5  C   UNK N   1      34.937  14.086   9.178  0.00  0.00     0.031 C 
HETATM    6  C   UNK N   1      35.742  14.746   8.065  0.00  0.00     0.029 C 
HETATM    7  C   UNK N   1      33.572  13.749   8.598  0.00  0.00     0.029 C 
HETATM    8  S   UNK N   1      35.651  12.472   9.744  0.00  0.00    -0.127 S 
HETATM    9  C   UNK N   1      34.997  12.493  11.426  0.00  0.00     0.164 A 
HETATM   10  C   UNK N   1      35.992  12.491  12.692  0.00  0.00     0.199 A 
HETATM   11  H   UNK N   1      36.844  12.598   8.939  0.00  0.00     0.111 HD
ENDROOT
BRANCH  10  12
HETATM   12  N   UNK N   1      35.515  11.738  13.844  0.00  0.00    -0.346 N 
HETATM   13  C   UNK N   1      36.287  11.209  14.834  0.00  0.00     0.222 C 
HETATM   14  O   UNK N   1      37.505  11.286  14.800  0.00  0.00    -0.273 OA
HETATM   15  H   UNK N   1      34.544  11.597  13.912  0.00  0.00     0.163 HD
BRANCH  13  16
HETATM   16  C   UNK N   1      35.628  10.579  16.021  0.00  0.00     0.141 C 
BRANCH  16  17
HETATM   17  C   UNK N   1      35.494  11.474  17.217  0.00  0.00    -0.050 A 
HETATM   18  C   UNK N   1      35.559  10.899  18.491  0.00  0.00     0.007 A 
HETATM   19  C   UNK N   1      35.414  11.695  19.630  0.00  0.00     0.001 A 
HETATM   20  C   UNK N   1      35.191  13.069  19.500  0.00  0.00     0.000 A 
HETATM   21  C   UNK N   1      35.118  13.648  18.230  0.00  0.00     0.001 A 
HETATM   22  C   UNK N   1      35.269  12.854  17.090  0.00  0.00     0.007 A 
ENDBRANCH  16  17
ENDBRANCH  13  16
ENDBRANCH  10  12
BRANCH   8  23
HETATM   23  O   UNK N   1      35.223  11.038   8.862  0.00  0.00    -0.351 OA
HETATM   24  H   UNK N   1      35.728  10.685   8.113  0.00  0.00     0.225 HD
ENDBRANCH   8  23
BRANCH   4  25
HETATM   25  C   UNK N   1      35.681  16.094  10.750  0.00  0.00     0.160 C 
HETATM   26  O   UNK N   1      35.251  17.217  10.952  0.00  0.00    -0.649 OA
BRANCH  25  27
HETATM   27  O   UNK N   1      37.013  15.891  10.782  0.00  0.00    -0.775 OA
HETATM   28  H   UNK N   1      37.355  15.051  11.014  0.00  0.00     0.167 HD
ENDBRANCH  25  27
ENDBRANCH   4  25
TORSDOF 6
ENDMDL
MODEL 2
REMARK VINA RESULT:      -7.1      2.548      3.791
REMARK  6 active torsions:
REMARK  status: ('A' for Active; 'I' for Inactive)
REMARK    1  A    between atoms: C_4  and  C_5 
REMARK    2  A    between atoms: C_5  and  O_7 
REMARK    3  A    between atoms: S_11  and  O_24 
REMARK    4  A    between atoms: C_13  and  N_14 
REMARK       I    between atoms: N_14  and  C_15 
REMARK    5  A    between atoms: C_15  and  C_17 
REMARK    6  A    between atoms: C_17  and  C_18 
ROOT
HETATM    1  O   UNK N   1      35.776  17.551  10.055  0.00  0.00    -0.277 OA
HETATM    2  C   UNK N   1      34.947  16.662  10.184  0.00  0.00     0.227 A 
HETATM    3  N   UNK N   1      33.728  16.592   9.683  0.00  0.00    -0.219 NA
HETATM    4  C   UNK N   1      33.207  17.270   8.471  0.00  0.00     0.183 C 
HETATM    5  C   UNK N   1      32.601  16.136   7.538  0.00  0.00     0.031 C 
HETATM    6  C   UNK N   1      32.793  16.283   6.034  0.00  0.00     0.029 C 
HETATM    7  C   UNK N   1      31.106  16.021   7.787  0.00  0.00     0.029 C 
HETATM    8  S   UNK N   1      33.341  14.580   8.225  0.00  0.00    -0.127 S 
HETATM    9  C   UNK N   1      33.635  15.171   9.905  0.00  0.00     0.164 A 
HETATM   10  C   UNK N   1      35.129  15.227  10.504  0.00  0.00     0.199 A 
HETATM   11  H   UNK N   1      33.968  14.205   6.979  0.00  0.00     0.111 HD
ENDROOT
BRANCH  10  12
HETATM   12  N   UNK N   1      35.229  14.919  11.924  0.00  0.00    -0.346 N 
HETATM   13  C   UNK N   1      36.140  14.088  12.504  0.00  0.00     0.222 C 
HETATM   14  O   UNK N   1      36.949  13.465  11.835  0.00  0.00    -0.273 OA
HETATM   15  H   UNK N   1      34.577  15.352  12.521  0.00  0.00     0.163 HD
BRANCH  13  16
HETATM   16  C   UNK N   1      36.195  13.986  13.996  0.00  0.00     0.141 C 
BRANCH  16  17
HETATM   17  C   UNK N   1      35.531  12.771  14.570  0.00  0.00    -0.050 A 
HETATM   18  C   UNK N   1      35.896  12.354  15.855  0.00  0.00     0.007 A 
HETATM   19  C   UNK N   1      35.319  11.212  16.416  0.00  0.00     0.001 A 
HETATM   20  C   UNK N   1      34.382  10.473  15.689  0.00  0.00     0.000 A 
HETATM   21  C   UNK N   1      34.017  10.879  14.401  0.00  0.00     0.001 A 
HETATM   22  C   UNK N   1      34.590  12.025  13.842  0.00  0.00     0.007 A 
ENDBRANCH  16  17
ENDBRANCH  13  16
ENDBRANCH  10  12
BRANCH   8  23
HETATM   23  O   UNK N   1      32.387  13.130   8.168  0.00  0.00    -0.351 OA
HETATM   24  H   UNK N   1      31.850  12.799   8.905  0.00  0.00     0.225 HD
ENDBRANCH   8  23
BRANCH   4  25
HETATM   25  C   UNK N   1      34.232  18.212   7.833  0.00  0.00     0.160 C 
HETATM   26  O   UNK N   1      34.745  17.973   6.753  0.00  0.00    -0.649 OA
BRANCH  25  27
HETATM   27  O   UNK N   1      34.534  19.370   8.454  0.00  0.00    -0.775 OA
HETATM   28  H   UNK N   1      34.454  19.438   9.385  0.00  0.00     0.167 HD
ENDBRANCH  25  27
ENDBRANCH   4  25
TORSDOF 6
ENDMDL
MODEL 3
REMARK VINA RESULT:      -7.0      2.395      3.566
REMARK  6 active torsions:
REMARK  status: ('A' for Active; 'I' for Inactive)
REMARK    1  A    between atoms: C_4  and  C_5 
REMARK    2  A    between atoms: C_5  and  O_7 
REMARK    3  A    between atoms: S_11  and  O_24 
REMARK    4  A    between atoms: C_13  and  N_14 
REMARK       I    between atoms: N_14  and  C_15 
REMARK    5  A    between atoms: C_15  and  C_17 
REMARK    6  A    between atoms: C_17  and  C_18 
ROOT
HETATM    1  O   UNK N   1      36.706  13.779   8.832  0.00  0.00    -0.277 OA
HETATM    2  C   UNK N   1      35.898  14.354   9.546  0.00  0.00     0.227 A 
HETATM    3  N   UNK N   1      35.106  15.367   9.247  0.00  0.00    -0.219 NA
HETATM    4  C   UNK N   1      34.608  15.761   7.906  0.00  0.00     0.183 C 
HETATM    5  C   UNK N   1      33.024  15.823   8.009  0.00  0.00     0.031 C 
HETATM    6  C   UNK N   1      32.221  15.344   6.806  0.00  0.00     0.029 C 
HETATM    7  C   UNK N   1      32.590  17.253   8.291  0.00  0.00     0.029 C 
HETATM    8  S   UNK N   1      32.661  14.876   9.560  0.00  0.00    -0.127 S 
HETATM    9  C   UNK N   1      34.248  15.132  10.380  0.00  0.00     0.164 A 
HETATM   10  C   UNK N   1      35.187  13.879  10.757  0.00  0.00     0.199 A 
HETATM   11  H   UNK N   1      31.817  13.909   8.896  0.00  0.00     0.111 HD
ENDROOT
BRANCH  10  12
HETATM   12  N   UNK N   1      35.927  14.023  12.003  0.00  0.00    -0.346 N 
HETATM   13  C   UNK N   1      35.583  13.490  13.208  0.00  0.00     0.222 C 
HETATM   14  O   UNK N   1      34.547  12.862  13.353  0.00  0.00    -0.273 OA
HETATM   15  H   UNK N   1      36.753  14.558  11.972  0.00  0.00     0.163 HD
BRANCH  13  16
HETATM   16  C   UNK N   1      36.527  13.618  14.364  0.00  0.00     0.141 C 
BRANCH  16  17
HETATM   17  C   UNK N   1      36.126  12.857  15.592  0.00  0.00    -0.050 A 
HETATM   18  C   UNK N   1      35.473  13.546  16.620  0.00  0.00     0.007 A 
HETATM   19  C   UNK N   1      35.105  12.879  17.791  0.00  0.00     0.001 A 
HETATM   20  C   UNK N   1      35.400  11.521  17.945  0.00  0.00     0.000 A 
HETATM   21  C   UNK N   1      36.058  10.829  16.926  0.00  0.00     0.001 A 
HETATM   22  C   UNK N   1      36.422  11.494  15.751  0.00  0.00     0.007 A 
ENDBRANCH  16  17
ENDBRANCH  13  16
ENDBRANCH  10  12
BRANCH   8  23
HETATM   23  O   UNK N   1      31.305  15.379  10.523  0.00  0.00    -0.351 OA
HETATM   24  H   UNK N   1      30.804  14.792  11.111  0.00  0.00     0.225 HD
ENDBRANCH   8  23
BRANCH   4  25
HETATM   25  C   UNK N   1      35.193  14.902   6.782  0.00  0.00     0.160 C 
HETATM   26  O   UNK N   1      35.975  15.354   5.963  0.00  0.00    -0.649 OA
BRANCH  25  27
HETATM   27  O   UNK N   1      34.881  13.591   6.729  0.00  0.00    -0.775 OA
HETATM   28  H   UNK N   1      35.526  12.966   6.463  0.00  0.00     0.167 HD
ENDBRANCH  25  27
ENDBRANCH   4  25
TORSDOF 6
ENDMDL
MODEL 4
REMARK VINA RESULT:      -6.8      6.105     10.420
REMARK  6 active torsions:
REMARK  status: ('A' for Active; 'I' for Inactive)
REMARK    1  A    between atoms: C_4  and  C_5 
REMARK    2  A    between atoms: C_5  and  O_7 
REMARK    3  A    between atoms: S_11  and  O_24 
REMARK    4  A    between atoms: C_13  and  N_14 
REMARK       I    between atoms: N_14  and  C_15 
REMARK    5  A    between atoms: C_15  and  C_17 
REMARK    6  A    between atoms: C_17  and  C_18 
ROOT
HETATM    1  O   UNK N   1      32.662  16.612   5.656  0.00  0.00    -0.277 OA
HETATM    2  C   UNK N   1      32.296  16.155   6.728  0.00  0.00     0.227 A 
HETATM    3  N   UNK N   1      32.626  15.009   7.293  0.00  0.00    -0.219 NA
HETATM    4  C   UNK N   1      33.854  14.208   7.067  0.00  0.00     0.183 C 
HETATM    5  C   UNK N   1      34.518  13.980   8.492  0.00  0.00     0.031 C 
HETATM    6  C   UNK N   1      36.039  14.013   8.574  0.00  0.00     0.029 C 
HETATM    7  C   UNK N   1      34.072  12.637   9.049  0.00  0.00     0.029 C 
HETATM    8  S   UNK N   1      33.696  15.258   9.554  0.00  0.00    -0.127 S 
HETATM    9  C   UNK N   1      32.177  15.432   8.595  0.00  0.00     0.164 A 
HETATM   10  C   UNK N   1      31.783  16.847   7.934  0.00  0.00     0.199 A 
HETATM   11  H   UNK N   1      34.937  15.897   9.926  0.00  0.00     0.111 HD
ENDROOT
BRANCH  10  12
HETATM   12  N   UNK N   1      30.356  17.137   7.919  0.00  0.00    -0.346 N 
HETATM   13  C   UNK N   1      29.752  18.227   8.470  0.00  0.00     0.222 C 
HETATM   14  O   UNK N   1      30.389  19.058   9.097  0.00  0.00    -0.273 OA
HETATM   15  H   UNK N   1      29.773  16.484   7.469  0.00  0.00     0.163 HD
BRANCH  13  16
HETATM   16  C   UNK N   1      28.287  18.446   8.247  0.00  0.00     0.141 C 
BRANCH  16  17
HETATM   17  C   UNK N   1      27.942  19.139   6.963  0.00  0.00    -0.050 A 
HETATM   18  C   UNK N   1      27.435  20.442   7.023  0.00  0.00     0.007 A 
HETATM   19  C   UNK N   1      27.078  21.113   5.851  0.00  0.00     0.001 A 
HETATM   20  C   UNK N   1      27.214  20.479   4.613  0.00  0.00     0.000 A 
HETATM   21  C   UNK N   1      27.713  19.175   4.545  0.00  0.00     0.001 A 
HETATM   22  C   UNK N   1      28.076  18.505   5.717  0.00  0.00     0.007 A 
ENDBRANCH  16  17
ENDBRANCH  13  16
ENDBRANCH  10  12
BRANCH   8  23
HETATM   23  O   UNK N   1      33.410  14.869  11.223  0.00  0.00    -0.351 OA
HETATM   24  H   UNK N   1      33.857  15.298  11.969  0.00  0.00     0.225 HD
ENDBRANCH   8  23
BRANCH   4  25
HETATM   25  C   UNK N   1      34.751  14.798   5.975  0.00  0.00     0.160 C 
HETATM   26  O   UNK N   1      34.932  14.231   4.911  0.00  0.00    -0.649 OA
BRANCH  25  27
HETATM   27  O   UNK N   1      35.311  16.009   6.170  0.00  0.00    -0.775 OA
HETATM   28  H   UNK N   1      34.769  16.762   6.300  0.00  0.00     0.167 HD
ENDBRANCH  25  27
ENDBRANCH   4  25
TORSDOF 6
ENDMDL
MODEL 5
REMARK VINA RESULT:      -6.7     12.831     16.017
REMARK  6 active torsions:
REMARK  status: ('A' for Active; 'I' for Inactive)
REMARK    1  A    between atoms: C_4  and  C_5 
REMARK    2  A    between atoms: C_5  and  O_7 
REMARK    3  A    between atoms: S_11  and  O_24 
REMARK    4  A    between atoms: C_13  and  N_14 
REMARK       I    between atoms: N_14  and  C_15 
REMARK    5  A    between atoms: C_15  and  C_17 
REMARK    6  A    between atoms: C_17  and  C_18 
ROOT
HETATM    1  O   UNK N   1      23.502  21.048   2.782  0.00  0.00    -0.277 OA
HETATM    2  C   UNK N   1      23.347  20.068   3.497  0.00  0.00     0.227 A 
HETATM    3  N   UNK N   1      22.227  19.448   3.816  0.00  0.00    -0.219 NA
HETATM    4  C   UNK N   1      20.955  19.426   3.051  0.00  0.00     0.183 C 
HETATM    5  C   UNK N   1      20.589  17.897   2.822  0.00  0.00     0.031 C 
HETATM    6  C   UNK N   1      19.965  17.515   1.486  0.00  0.00     0.029 C 
HETATM    7  C   UNK N   1      19.629  17.439   3.908  0.00  0.00     0.029 C 
HETATM    8  S   UNK N   1      22.186  17.020   3.166  0.00  0.00    -0.127 S 
HETATM    9  C   UNK N   1      22.917  18.262   4.253  0.00  0.00     0.164 A 
HETATM   10  C   UNK N   1      24.297  18.989   3.855  0.00  0.00     0.199 A 
HETATM   11  H   UNK N   1      22.252  16.410   1.858  0.00  0.00     0.111 HD
ENDROOT
BRANCH  10  12
HETATM   12  N   UNK N   1      25.177  19.287   4.977  0.00  0.00    -0.346 N 
HETATM   13  C   UNK N   1      26.369  19.943   4.911  0.00  0.00     0.222 C 
HETATM   14  O   UNK N   1      26.839  20.301   3.843  0.00  0.00    -0.273 OA
HETATM   15  H   UNK N   1      24.882  18.985   5.866  0.00  0.00     0.163 HD
BRANCH  13  16
HETATM   16  C   UNK N   1      27.087  20.290   6.178  0.00  0.00     0.141 C 
BRANCH  16  17
HETATM   17  C   UNK N   1      27.938  19.193   6.741  0.00  0.00    -0.050 A 
HETATM   18  C   UNK N   1      28.124  19.136   8.127  0.00  0.00     0.007 A 
HETATM   19  C   UNK N   1      28.931  18.143   8.689  0.00  0.00     0.001 A 
HETATM   20  C   UNK N   1      29.567  17.209   7.867  0.00  0.00     0.000 A 
HETATM   21  C   UNK N   1      29.391  17.264   6.481  0.00  0.00     0.001 A 
HETATM   22  C   UNK N   1      28.579  18.253   5.918  0.00  0.00     0.007 A 
ENDBRANCH  16  17
ENDBRANCH  13  16
ENDBRANCH  10  12
BRANCH   8  23
HETATM   23  O   UNK N   1      22.109  15.441   3.885  0.00  0.00    -0.351 OA
HETATM   24  H   UNK N   1      22.060  15.277   4.840  0.00  0.00     0.225 HD
ENDBRANCH   8  23
BRANCH   4  25
HETATM   25  C   UNK N   1      20.997  20.318   1.808  0.00  0.00     0.160 C 
HETATM   26  O   UNK N   1      21.130  19.858   0.687  0.00  0.00    -0.649 OA
BRANCH  25  27
HETATM   27  O   UNK N   1      20.821  21.648   1.949  0.00  0.00    -0.775 OA
HETATM   28  H   UNK N   1      20.827  22.205   1.197  0.00  0.00     0.167 HD
ENDBRANCH  25  27
ENDBRANCH   4  25
TORSDOF 6
ENDMDL
MODEL 6
REMARK VINA RESULT:      -6.6      2.009      2.775
REMARK  6 active torsions:
REMARK  status: ('A' for Active; 'I' for Inactive)
REMARK    1  A    between atoms: C_4  and  C_5 
REMARK    2  A    between atoms: C_5  and  O_7 
REMARK    3  A    between atoms: S_11  and  O_24 
REMARK    4  A    between atoms: C_13  and  N_14 
REMARK       I    between atoms: N_14  and  C_15 
REMARK    5  A    between atoms: C_15  and  C_17 
REMARK    6  A    between atoms: C_17  and  C_18 
ROOT
HETATM    1  O   UNK N   1      37.633  10.982  11.154  0.00  0.00    -0.277 OA
HETATM    2  C   UNK N   1      36.877  11.777  11.693  0.00  0.00     0.227 A 
HETATM    3  N   UNK N   1      36.795  13.083  11.521  0.00  0.00    -0.219 NA
HETATM    4  C   UNK N   1      37.205  13.867  10.330  0.00  0.00     0.183 C 
HETATM    5  C   UNK N   1      35.936  14.713   9.883  0.00  0.00     0.031 C 
HETATM    6  C   UNK N   1      35.700  14.892   8.388  0.00  0.00     0.029 C 
HETATM    7  C   UNK N   1      36.016  16.105  10.490  0.00  0.00     0.029 C 
HETATM    8  S   UNK N   1      34.534  13.869  10.754  0.00  0.00    -0.127 S 
HETATM    9  C   UNK N   1      35.484  13.156  12.113  0.00  0.00     0.164 A 
HETATM   10  C   UNK N   1      35.551  11.561  12.317  0.00  0.00     0.199 A 
HETATM   11  H   UNK N   1      33.816  13.577   9.534  0.00  0.00     0.111 HD
ENDROOT
BRANCH  10  12
HETATM   12  N   UNK N   1      35.587  11.123  13.706  0.00  0.00    -0.346 N 
HETATM   13  C   UNK N   1      34.522  10.700  14.443  0.00  0.00     0.222 C 
HETATM   14  O   UNK N   1      33.390  10.706  13.986  0.00  0.00    -0.273 OA
HETATM   15  H   UNK N   1      36.462  11.136  14.155  0.00  0.00     0.163 HD
BRANCH  13  16
HETATM   16  C   UNK N   1      34.751  10.153  15.817  0.00  0.00     0.141 C 
BRANCH  16  17
HETATM   17  C   UNK N   1      34.958  11.189  16.881  0.00  0.00    -0.050 A 
HETATM   18  C   UNK N   1      35.184  10.761  18.194  0.00  0.00     0.007 A 
HETATM   19  C   UNK N   1      35.356  11.696  19.219  0.00  0.00     0.001 A 
HETATM   20  C   UNK N   1      35.291  13.063  18.937  0.00  0.00     0.000 A 
HETATM   21  C   UNK N   1      35.059  13.497  17.629  0.00  0.00     0.001 A 
HETATM   22  C   UNK N   1      34.892  12.564  16.602  0.00  0.00     0.007 A 
ENDBRANCH  16  17
ENDBRANCH  13  16
ENDBRANCH  10  12
BRANCH   8  23
HETATM   23  O   UNK N   1      33.202  14.847  11.289  0.00  0.00    -0.351 OA
HETATM   24  H   UNK N   1      32.486  15.158  10.713  0.00  0.00     0.225 HD
ENDBRANCH   8  23
BRANCH   4  25
HETATM   25  C   UNK N   1      37.871  13.005   9.255  0.00  0.00     0.160 C 
HETATM   26  O   UNK N   1      39.063  13.084   9.011  0.00  0.00    -0.649 OA
BRANCH  25  27
HETATM   27  O   UNK N   1      37.132  12.088   8.599  0.00  0.00    -0.775 OA
HETATM   28  H   UNK N   1      37.544  11.335   8.223  0.00  0.00     0.167 HD
ENDBRANCH  25  27
ENDBRANCH   4  25
TORSDOF 6
ENDMDL
MODEL 7
REMARK VINA RESULT:      -6.6     19.862     23.488
REMARK  6 active torsions:
REMARK  status: ('A' for Active; 'I' for Inactive)
REMARK    1  A    between atoms: C_4  and  C_5 
REMARK    2  A    between atoms: C_5  and  O_7 
REMARK    3  A    between atoms: S_11  and  O_24 
REMARK    4  A    between atoms: C_13  and  N_14 
REMARK       I    between atoms: N_14  and  C_15 
REMARK    5  A    between atoms: C_15  and  C_17 
REMARK    6  A    between atoms: C_17  and  C_18 
ROOT
HETATM    1  O   UNK N   1      28.628  23.545  -2.719  0.00  0.00    -0.277 OA
HETATM    2  C   UNK N   1      28.732  23.816  -3.907  0.00  0.00     0.227 A 
HETATM    3  N   UNK N   1      29.799  23.740  -4.680  0.00  0.00    -0.219 NA
HETATM    4  C   UNK N   1      30.991  22.876  -4.496  0.00  0.00     0.183 C 
HETATM    5  C   UNK N   1      31.164  22.048  -5.840  0.00  0.00     0.031 C 
HETATM    6  C   UNK N   1      31.627  20.601  -5.721  0.00  0.00     0.029 C 
HETATM    7  C   UNK N   1      32.155  22.757  -6.749  0.00  0.00     0.029 C 
HETATM    8  S   UNK N   1      29.514  22.227  -6.666  0.00  0.00    -0.127 S 
HETATM    9  C   UNK N   1      29.020  23.780  -5.891  0.00  0.00     0.164 A 
HETATM   10  C   UNK N   1      27.701  23.854  -4.971  0.00  0.00     0.199 A 
HETATM   11  H   UNK N   1      29.270  20.804  -6.719  0.00  0.00     0.111 HD
ENDROOT
BRANCH  10  12
HETATM   12  N   UNK N   1      26.959  25.103  -5.066  0.00  0.00    -0.346 N 
HETATM   13  C   UNK N   1      25.815  25.306  -5.779  0.00  0.00     0.222 C 
HETATM   14  O   UNK N   1      25.332  24.423  -6.470  0.00  0.00    -0.273 OA
HETATM   15  H   UNK N   1      27.317  25.873  -4.570  0.00  0.00     0.163 HD
BRANCH  13  16
HETATM   16  C   UNK N   1      25.100  26.615  -5.661  0.00  0.00     0.141 C 
BRANCH  16  17
HETATM   17  C   UNK N   1      25.968  27.777  -5.282  0.00  0.00    -0.050 A 
HETATM   18  C   UNK N   1      25.724  28.424  -4.066  0.00  0.00     0.007 A 
HETATM   19  C   UNK N   1      26.495  29.526  -3.687  0.00  0.00     0.001 A 
HETATM   20  C   UNK N   1      27.508  29.994  -4.530  0.00  0.00     0.000 A 
HETATM   21  C   UNK N   1      27.753  29.356  -5.749  0.00  0.00     0.001 A 
HETATM   22  C   UNK N   1      26.986  28.250  -6.126  0.00  0.00     0.007 A 
ENDBRANCH  16  17
ENDBRANCH  13  16
ENDBRANCH  10  12
BRANCH   8  23
HETATM   23  O   UNK N   1      29.474  22.285  -8.402  0.00  0.00    -0.351 OA
HETATM   24  H   UNK N   1      30.074  22.820  -8.945  0.00  0.00     0.225 HD
ENDBRANCH   8  23
BRANCH   4  25
HETATM   25  C   UNK N   1      30.945  22.074  -3.193  0.00  0.00     0.160 C 
HETATM   26  O   UNK N   1      31.594  22.396  -2.212  0.00  0.00    -0.649 OA
BRANCH  25  27
HETATM   27  O   UNK N   1      30.117  21.014  -3.105  0.00  0.00    -0.775 OA
HETATM   28  H   UNK N   1      30.395  20.236  -2.663  0.00  0.00     0.167 HD
ENDBRANCH  25  27
ENDBRANCH   4  25
TORSDOF 6
ENDMDL
MODEL 8
REMARK VINA RESULT:      -6.5     19.324     22.569
REMARK  6 active torsions:
REMARK  status: ('A' for Active; 'I' for Inactive)
REMARK    1  A    between atoms: C_4  and  C_5 
REMARK    2  A    between atoms: C_5  and  O_7 
REMARK    3  A    between atoms: S_11  and  O_24 
REMARK    4  A    between atoms: C_13  and  N_14 
REMARK       I    between atoms: N_14  and  C_15 
REMARK    5  A    between atoms: C_15  and  C_17 
REMARK    6  A    between atoms: C_17  and  C_18 
ROOT
HETATM    1  O   UNK N   1      26.178  24.782  -3.706  0.00  0.00    -0.277 OA
HETATM    2  C   UNK N   1      27.264  24.958  -4.239  0.00  0.00     0.227 A 
HETATM    3  N   UNK N   1      27.564  25.734  -5.264  0.00  0.00    -0.219 NA
HETATM    4  C   UNK N   1      26.838  26.942  -5.728  0.00  0.00     0.183 C 
HETATM    5  C   UNK N   1      27.903  28.120  -5.779  0.00  0.00     0.031 C 
HETATM    6  C   UNK N   1      27.436  29.510  -5.362  0.00  0.00     0.029 C 
HETATM    7  C   UNK N   1      28.456  28.243  -7.190  0.00  0.00     0.029 C 
HETATM    8  S   UNK N   1      29.303  27.475  -4.749  0.00  0.00    -0.127 S 
HETATM    9  C   UNK N   1      28.973  25.713  -4.966  0.00  0.00     0.164 A 
HETATM   10  C   UNK N   1      28.632  24.781  -3.698  0.00  0.00     0.199 A 
HETATM   11  H   UNK N   1      29.262  28.577  -3.816  0.00  0.00     0.111 HD
ENDROOT
BRANCH  10  12
HETATM   12  N   UNK N   1      29.156  23.425  -3.778  0.00  0.00    -0.346 N 
HETATM   13  C   UNK N   1      29.982  22.828  -2.874  0.00  0.00     0.222 C 
HETATM   14  O   UNK N   1      30.409  23.435  -1.905  0.00  0.00    -0.273 OA
HETATM   15  H   UNK N   1      28.890  22.890  -4.560  0.00  0.00     0.163 HD
BRANCH  13  16
HETATM   16  C   UNK N   1      30.321  21.379  -3.034  0.00  0.00     0.141 C 
BRANCH  16  17
HETATM   17  C   UNK N   1      31.665  21.109  -3.640  0.00  0.00    -0.050 A 
HETATM   18  C   UNK N   1      31.728  20.757  -4.993  0.00  0.00     0.007 A 
HETATM   19  C   UNK N   1      32.959  20.473  -5.590  0.00  0.00     0.001 A 
HETATM   20  C   UNK N   1      34.133  20.528  -4.833  0.00  0.00     0.000 A 
HETATM   21  C   UNK N   1      34.077  20.872  -3.479  0.00  0.00     0.001 A 
HETATM   22  C   UNK N   1      32.846  21.162  -2.883  0.00  0.00     0.007 A 
ENDBRANCH  16  17
ENDBRANCH  13  16
ENDBRANCH  10  12
BRANCH   8  23
HETATM   23  O   UNK N   1      30.919  27.928  -5.195  0.00  0.00    -0.351 OA
HETATM   24  H   UNK N   1      31.494  27.404  -5.774  0.00  0.00     0.225 HD
ENDBRANCH   8  23
BRANCH   4  25
HETATM   25  C   UNK N   1      25.557  27.205  -4.932  0.00  0.00     0.160 C 
HETATM   26  O   UNK N   1      24.450  27.060  -5.423  0.00  0.00    -0.649 OA
BRANCH  25  27
HETATM   27  O   UNK N   1      25.652  27.549  -3.631  0.00  0.00    -0.775 OA
HETATM   28  H   UNK N   1      25.644  28.452  -3.383  0.00  0.00     0.167 HD
ENDBRANCH  25  27
ENDBRANCH   4  25
TORSDOF 6
ENDMDL
MODEL 9
REMARK VINA RESULT:      -6.4      1.867      3.478
REMARK  6 active torsions:
REMARK  status: ('A' for Active; 'I' for Inactive)
REMARK    1  A    between atoms: C_4  and  C_5 
REMARK    2  A    between atoms: C_5  and  O_7 
REMARK    3  A    between atoms: S_11  and  O_24 
REMARK    4  A    between atoms: C_13  and  N_14 
REMARK       I    between atoms: N_14  and  C_15 
REMARK    5  A    between atoms: C_15  and  C_17 
REMARK    6  A    between atoms: C_17  and  C_18 
ROOT
HETATM    1  O   UNK N   1      34.398  11.145  12.708  0.00  0.00    -0.277 OA
HETATM    2  C   UNK N   1      35.257  12.015  12.729  0.00  0.00     0.227 A 
HETATM    3  N   UNK N   1      36.173  12.291  11.820  0.00  0.00    -0.219 NA
HETATM    4  C   UNK N   1      36.125  11.996  10.366  0.00  0.00     0.183 C 
HETATM    5  C   UNK N   1      36.366  13.374   9.614  0.00  0.00     0.031 C 
HETATM    6  C   UNK N   1      35.578  13.626   8.335  0.00  0.00     0.029 C 
HETATM    7  C   UNK N   1      37.839  13.508   9.262  0.00  0.00     0.029 C 
HETATM    8  S   UNK N   1      36.052  14.640  10.932  0.00  0.00    -0.127 S 
HETATM    9  C   UNK N   1      36.426  13.602  12.361  0.00  0.00     0.164 A 
HETATM   10  C   UNK N   1      35.298  13.297  13.470  0.00  0.00     0.199 A 
HETATM   11  H   UNK N   1      34.998  15.298  10.194  0.00  0.00     0.111 HD
ENDROOT
BRANCH  10  12
HETATM   12  N   UNK N   1      35.794  13.205  14.836  0.00  0.00    -0.346 N 
HETATM   13  C   UNK N   1      35.034  13.154  15.965  0.00  0.00     0.222 C 
HETATM   14  O   UNK N   1      33.817  13.240  15.917  0.00  0.00    -0.273 OA
HETATM   15  H   UNK N   1      36.771  13.178  14.955  0.00  0.00     0.163 HD
BRANCH  13  16
HETATM   16  C   UNK N   1      35.697  12.922  17.287  0.00  0.00     0.141 C 
BRANCH  16  17
HETATM   17  C   UNK N   1      35.307  11.647  17.973  0.00  0.00    -0.050 A 
HETATM   18  C   UNK N   1      35.258  11.629  19.371  0.00  0.00     0.007 A 
HETATM   19  C   UNK N   1      34.923  10.454  20.049  0.00  0.00     0.001 A 
HETATM   20  C   UNK N   1      34.647   9.287  19.332  0.00  0.00     0.000 A 
HETATM   21  C   UNK N   1      34.701   9.296  17.935  0.00  0.00     0.001 A 
HETATM   22  C   UNK N   1      35.030  10.472  17.255  0.00  0.00     0.007 A 
ENDBRANCH  16  17
ENDBRANCH  13  16
ENDBRANCH  10  12
BRANCH   8  23
HETATM   23  O   UNK N   1      36.980  16.107  10.891  0.00  0.00    -0.351 OA
HETATM   24  H   UNK N   1      37.946  16.145  10.967  0.00  0.00     0.225 HD
ENDBRANCH   8  23
BRANCH   4  25
HETATM   25  C   UNK N   1      34.880  11.201   9.965  0.00  0.00     0.160 C 
HETATM   26  O   UNK N   1      34.948  10.049   9.572  0.00  0.00    -0.649 OA
BRANCH  25  27
HETATM   27  O   UNK N   1      33.665  11.768  10.108  0.00  0.00    -0.775 OA
HETATM   28  H   UNK N   1      33.591  12.695  10.226  0.00  0.00     0.167 HD
ENDBRANCH  25  27
ENDBRANCH   4  25
TORSDOF 6
ENDMDL
