MODEL 1
REMARK VINA RESULT:      -7.0      0.000      0.000
REMARK  5 active torsions:
REMARK  status: ('A' for Active; 'I' for Inactive)
REMARK    1  A    between atoms: C_7  and  S_8 
REMARK    2  A    between atoms: S_8  and  N_11 
REMARK    3  A    between atoms: N_11  and  C_12 
REMARK    4  A    between atoms: C_14  and  C_15 
REMARK    5  A    between atoms: N_22  and  C_23 
ROOT
HETATM    1  C   UNK N   1      36.596  14.326  11.078  0.00  0.00     0.139 A 
HETATM    2  C   UNK N   1      36.206  14.942   9.915  0.00  0.00     0.083 A 
HETATM    3  C   UNK N   1      35.033  15.586  10.270  0.00  0.00     0.069 A 
HETATM    4  N   UNK N   1      34.738  15.337  11.570  0.00  0.00    -0.291 N 
ATOM      5  HN  UNK N   1      33.925  15.681  12.081  1.00  0.00     0.187 HD
HETATM    6  N   UNK N   1      35.702  14.563  12.056  0.00  0.00    -0.239 N 
ENDROOT
BRANCH   1   7
HETATM    7  N   UNK N   1      37.701  13.466  11.217  0.00  0.00    -0.264 N 
HETATM    8  H   UNK N   1      38.594  13.837  11.408  0.00  0.00     0.180 HD
BRANCH   7   9
HETATM    9  S   UNK N   1      37.492  11.744  11.051  0.00  0.00     0.264 S 
HETATM   10  O   UNK N   1      36.295  11.602  10.098  0.00  0.00    -0.200 OA
HETATM   11  O   UNK N   1      38.661  11.282  10.165  0.00  0.00    -0.200 OA
BRANCH   9  12
HETATM   12  C   UNK N   1      37.318  10.808  12.548  0.00  0.00     0.082 A 
HETATM   13  C   UNK N   1      36.392   9.766  12.611  0.00  0.00     0.067 A 
HETATM   14  C   UNK N   1      36.250   9.032  13.788  0.00  0.00     0.117 A 
HETATM   15  F   UNK N   1      35.352   8.021  13.847  0.00  0.00    -0.206 F 
HETATM   16  C   UNK N   1      37.035   9.342  14.904  0.00  0.00     0.042 A 
HETATM   17  C   UNK N   1      37.962  10.387  14.840  0.00  0.00     0.005 A 
HETATM   18  C   UNK N   1      38.103  11.121  13.660  0.00  0.00     0.025 A 
ENDBRANCH   9  12
ENDBRANCH   7   9
ENDBRANCH   1   7
BRANCH   6  19
HETATM   19  C   UNK N   1      35.732  13.986  13.380  0.00  0.00     0.058 A 
HETATM   20  C   UNK N   1      36.600  14.477  14.366  0.00  0.00     0.034 A 
HETATM   21  C   UNK N   1      36.550  13.956  15.669  0.00  0.00     0.044 A 
HETATM   22  C   UNK N   1      35.637  12.943  15.990  0.00  0.00     0.116 A 
HETATM   23  F   UNK N   1      35.573  12.450  17.251  0.00  0.00    -0.206 F 
HETATM   24  C   UNK N   1      34.784  12.441  15.014  0.00  0.00     0.044 A 
HETATM   25  C   UNK N   1      34.830  12.961  13.725  0.00  0.00     0.034 A 
ENDBRANCH   6  19
BRANCH   3  26
HETATM   26  C   UNK N   1      34.237  16.405   9.346  0.00  0.00     0.033 A 
HETATM   27  C   UNK N   1      34.627  17.639   8.822  0.00  0.00     0.021 A 
HETATM   28  C   UNK N   1      33.649  18.212   7.961  0.00  0.00     0.008 A 
HETATM   29  C   UNK N   1      32.493  17.431   7.813  0.00  0.00     0.050 A 
HETATM   30  S   UNK N   1      32.734  16.074   8.745  0.00  0.00    -0.100 SA
ENDBRANCH   3  26
TORSDOF 5
ENDMDL
MODEL 2
REMARK VINA RESULT:      -7.0      2.486      3.398
REMARK  5 active torsions:
REMARK  status: ('A' for Active; 'I' for Inactive)
REMARK    1  A    between atoms: C_7  and  S_8 
REMARK    2  A    between atoms: S_8  and  N_11 
REMARK    3  A    between atoms: N_11  and  C_12 
REMARK    4  A    between atoms: C_14  and  C_15 
REMARK    5  A    between atoms: N_22  and  C_23 
ROOT
HETATM    1  C   UNK N   1      35.816  13.993  11.917  0.00  0.00     0.139 A 
HETATM    2  C   UNK N   1      35.476  15.184  11.326  0.00  0.00     0.083 A 
HETATM    3  C   UNK N   1      34.483  14.828  10.431  0.00  0.00     0.069 A 
HETATM    4  N   UNK N   1      34.270  13.489  10.477  0.00  0.00    -0.291 N 
ATOM      5  HN  UNK N   1      33.600  12.964   9.915  1.00  0.00     0.187 HD
HETATM    6  N   UNK N   1      35.093  12.987  11.391  0.00  0.00    -0.239 N 
ENDROOT
BRANCH   1   7
HETATM    7  N   UNK N   1      36.854  13.809  12.850  0.00  0.00    -0.264 N 
HETATM    8  H   UNK N   1      37.791  13.945  12.578  0.00  0.00     0.180 HD
BRANCH   7   9
HETATM    9  S   UNK N   1      36.481  13.343  14.487  0.00  0.00     0.264 S 
HETATM   10  O   UNK N   1      37.118  14.447  15.345  0.00  0.00    -0.200 OA
HETATM   11  O   UNK N   1      34.982  13.633  14.655  0.00  0.00    -0.200 OA
BRANCH   9  12
HETATM   12  C   UNK N   1      36.951  11.705  14.982  0.00  0.00     0.082 A 
HETATM   13  C   UNK N   1      38.069  11.100  14.406  0.00  0.00     0.067 A 
HETATM   14  C   UNK N   1      38.437   9.810  14.791  0.00  0.00     0.117 A 
HETATM   15  F   UNK N   1      39.521   9.225  14.231  0.00  0.00    -0.206 F 
HETATM   16  C   UNK N   1      37.684   9.126  15.751  0.00  0.00     0.042 A 
HETATM   17  C   UNK N   1      36.563   9.733  16.326  0.00  0.00     0.005 A 
HETATM   18  C   UNK N   1      36.196  11.024  15.941  0.00  0.00     0.025 A 
ENDBRANCH   9  12
ENDBRANCH   7   9
ENDBRANCH   1   7
BRANCH   6  19
HETATM   19  C   UNK N   1      35.260  11.583  11.693  0.00  0.00     0.058 A 
HETATM   20  C   UNK N   1      36.348  10.857  11.187  0.00  0.00     0.034 A 
HETATM   21  C   UNK N   1      36.535   9.517  11.564  0.00  0.00     0.044 A 
HETATM   22  C   UNK N   1      35.636   8.899  12.443  0.00  0.00     0.116 A 
HETATM   23  F   UNK N   1      35.822   7.612  12.823  0.00  0.00    -0.206 F 
HETATM   24  C   UNK N   1      34.547   9.609  12.936  0.00  0.00     0.044 A 
HETATM   25  C   UNK N   1      34.366  10.938  12.568  0.00  0.00     0.034 A 
ENDBRANCH   6  19
BRANCH   3  26
HETATM   26  C   UNK N   1      33.784  15.782   9.560  0.00  0.00     0.033 A 
HETATM   27  C   UNK N   1      34.273  17.034   9.179  0.00  0.00     0.021 A 
HETATM   28  C   UNK N   1      33.376  17.750   8.338  0.00  0.00     0.008 A 
HETATM   29  C   UNK N   1      32.184  17.063   8.062  0.00  0.00     0.050 A 
HETATM   30  S   UNK N   1      32.296  15.609   8.863  0.00  0.00    -0.100 SA
ENDBRANCH   3  26
TORSDOF 5
ENDMDL
MODEL 3
REMARK VINA RESULT:      -6.8     13.606     17.673
REMARK  5 active torsions:
REMARK  status: ('A' for Active; 'I' for Inactive)
REMARK    1  A    between atoms: C_7  and  S_8 
REMARK    2  A    between atoms: S_8  and  N_11 
REMARK    3  A    between atoms: N_11  and  C_12 
REMARK    4  A    between atoms: C_14  and  C_15 
REMARK    5  A    between atoms: N_22  and  C_23 
ROOT
HETATM    1  C   UNK N   1      21.014  13.777   6.479  0.00  0.00     0.139 A 
HETATM    2  C   UNK N   1      21.004  13.379   7.793  0.00  0.00     0.083 A 
HETATM    3  C   UNK N   1      22.342  13.170   8.076  0.00  0.00     0.069 A 
HETATM    4  N   UNK N   1      23.096  13.408   6.974  0.00  0.00    -0.291 N 
ATOM      5  HN  UNK N   1      24.110  13.320   6.905  1.00  0.00     0.187 HD
HETATM    6  N   UNK N   1      22.272  13.779   6.000  0.00  0.00    -0.239 N 
ENDROOT
BRANCH   1   7
HETATM    7  N   UNK N   1      19.875  14.031   5.693  0.00  0.00    -0.264 N 
HETATM    8  H   UNK N   1      19.298  13.285   5.406  0.00  0.00     0.180 HD
BRANCH   7   9
HETATM    9  S   UNK N   1      19.482  15.664   5.227  0.00  0.00     0.264 S 
HETATM   10  O   UNK N   1      18.018  15.834   5.658  0.00  0.00    -0.200 OA
HETATM   11  O   UNK N   1      20.219  16.556   6.239  0.00  0.00    -0.200 OA
BRANCH   9  12
HETATM   12  C   UNK N   1      19.778  16.109   3.535  0.00  0.00     0.082 A 
HETATM   13  C   UNK N   1      19.997  17.446   3.198  0.00  0.00     0.067 A 
HETATM   14  C   UNK N   1      20.225  17.799   1.868  0.00  0.00     0.117 A 
HETATM   15  F   UNK N   1      20.438  19.095   1.543  0.00  0.00    -0.206 F 
HETATM   16  C   UNK N   1      20.231  16.814   0.874  0.00  0.00     0.042 A 
HETATM   17  C   UNK N   1      20.009  15.475   1.213  0.00  0.00     0.005 A 
HETATM   18  C   UNK N   1      19.782  15.123   2.546  0.00  0.00     0.025 A 
ENDBRANCH   9  12
ENDBRANCH   7   9
ENDBRANCH   1   7
BRANCH   6  19
HETATM   19  C   UNK N   1      22.650  14.038   4.630  0.00  0.00     0.058 A 
HETATM   20  C   UNK N   1      23.168  15.283   4.243  0.00  0.00     0.034 A 
HETATM   21  C   UNK N   1      23.607  15.482   2.925  0.00  0.00     0.044 A 
HETATM   22  C   UNK N   1      23.527  14.443   1.989  0.00  0.00     0.116 A 
HETATM   23  F   UNK N   1      23.966  14.626   0.720  0.00  0.00    -0.206 F 
HETATM   24  C   UNK N   1      23.000  13.211   2.361  0.00  0.00     0.044 A 
HETATM   25  C   UNK N   1      22.571  13.012   3.669  0.00  0.00     0.034 A 
ENDBRANCH   6  19
BRANCH   3  26
HETATM   26  C   UNK N   1      22.845  12.739   9.388  0.00  0.00     0.033 A 
HETATM   27  C   UNK N   1      22.050  12.448  10.499  0.00  0.00     0.021 A 
HETATM   28  C   UNK N   1      22.810  12.066  11.640  0.00  0.00     0.008 A 
HETATM   29  C   UNK N   1      24.196  12.061  11.426  0.00  0.00     0.050 A 
HETATM   30  S   UNK N   1      24.417  12.523   9.843  0.00  0.00    -0.100 SA
ENDBRANCH   3  26
TORSDOF 5
ENDMDL
MODEL 4
REMARK VINA RESULT:      -6.8     13.684     16.769
REMARK  5 active torsions:
REMARK  status: ('A' for Active; 'I' for Inactive)
REMARK    1  A    between atoms: C_7  and  S_8 
REMARK    2  A    between atoms: S_8  and  N_11 
REMARK    3  A    between atoms: N_11  and  C_12 
REMARK    4  A    between atoms: C_14  and  C_15 
REMARK    5  A    between atoms: N_22  and  C_23 
ROOT
HETATM    1  C   UNK N   1      23.876  16.345   4.721  0.00  0.00     0.139 A 
HETATM    2  C   UNK N   1      23.418  15.251   4.030  0.00  0.00     0.083 A 
HETATM    3  C   UNK N   1      24.316  15.130   2.985  0.00  0.00     0.069 A 
HETATM    4  N   UNK N   1      25.240  16.121   3.046  0.00  0.00    -0.291 N 
ATOM      5  HN  UNK N   1      26.009  16.270   2.393  1.00  0.00     0.187 HD
HETATM    6  N   UNK N   1      24.961  16.860   4.113  0.00  0.00    -0.239 N 
ENDROOT
BRANCH   1   7
HETATM    7  N   UNK N   1      23.246  16.933   5.834  0.00  0.00    -0.264 N 
HETATM    8  H   UNK N   1      23.726  17.003   6.691  0.00  0.00     0.180 HD
BRANCH   7   9
HETATM    9  S   UNK N   1      21.618  17.539   5.695  0.00  0.00     0.264 S 
HETATM   10  O   UNK N   1      20.742  16.371   6.172  0.00  0.00    -0.200 OA
HETATM   11  O   UNK N   1      21.466  18.544   6.848  0.00  0.00    -0.200 OA
BRANCH   9  12
HETATM   12  C   UNK N   1      21.134  18.186   4.116  0.00  0.00     0.082 A 
HETATM   13  C   UNK N   1      21.394  19.521   3.803  0.00  0.00     0.067 A 
HETATM   14  C   UNK N   1      21.009  20.033   2.564  0.00  0.00     0.117 A 
HETATM   15  F   UNK N   1      21.263  21.328   2.263  0.00  0.00    -0.206 F 
HETATM   16  C   UNK N   1      20.362  19.209   1.637  0.00  0.00     0.042 A 
HETATM   17  C   UNK N   1      20.100  17.871   1.952  0.00  0.00     0.005 A 
HETATM   18  C   UNK N   1      20.487  17.360   3.193  0.00  0.00     0.025 A 
ENDBRANCH   9  12
ENDBRANCH   7   9
ENDBRANCH   1   7
BRANCH   6  19
HETATM   19  C   UNK N   1      25.642  18.076   4.498  0.00  0.00     0.058 A 
HETATM   20  C   UNK N   1      25.191  19.330   4.061  0.00  0.00     0.034 A 
HETATM   21  C   UNK N   1      25.818  20.500   4.517  0.00  0.00     0.044 A 
HETATM   22  C   UNK N   1      26.898  20.422   5.405  0.00  0.00     0.116 A 
HETATM   23  F   UNK N   1      27.495  21.550   5.861  0.00  0.00    -0.206 F 
HETATM   24  C   UNK N   1      27.361  19.182   5.830  0.00  0.00     0.044 A 
HETATM   25  C   UNK N   1      26.735  18.023   5.383  0.00  0.00     0.034 A 
ENDBRANCH   6  19
BRANCH   3  26
HETATM   26  C   UNK N   1      24.248  14.076   1.964  0.00  0.00     0.033 A 
HETATM   27  C   UNK N   1      23.493  14.140   0.790  0.00  0.00     0.021 A 
HETATM   28  C   UNK N   1      23.609  12.968  -0.010  0.00  0.00     0.008 A 
HETATM   29  C   UNK N   1      24.450  11.987   0.537  0.00  0.00     0.050 A 
HETATM   30  S   UNK N   1      25.011  12.611   1.973  0.00  0.00    -0.100 SA
ENDBRANCH   3  26
TORSDOF 5
ENDMDL
MODEL 5
REMARK VINA RESULT:      -6.8     21.539     23.638
REMARK  5 active torsions:
REMARK  status: ('A' for Active; 'I' for Inactive)
REMARK    1  A    between atoms: C_7  and  S_8 
REMARK    2  A    between atoms: S_8  and  N_11 
REMARK    3  A    between atoms: N_11  and  C_12 
REMARK    4  A    between atoms: C_14  and  C_15 
REMARK    5  A    between atoms: N_22  and  C_23 
ROOT
HETATM    1  C   UNK N   1      29.161  23.456  -5.277  0.00  0.00     0.139 A 
HETATM    2  C   UNK N   1      29.950  22.371  -5.566  0.00  0.00     0.083 A 
HETATM    3  C   UNK N   1      29.339  21.815  -6.676  0.00  0.00     0.069 A 
HETATM    4  N   UNK N   1      28.231  22.525  -7.005  0.00  0.00    -0.291 N 
ATOM      5  HN  UNK N   1      27.593  22.325  -7.775  1.00  0.00     0.187 HD
HETATM    6  N   UNK N   1      28.130  23.528  -6.140  0.00  0.00    -0.239 N 
ENDROOT
BRANCH   1   7
HETATM    7  N   UNK N   1      29.317  24.310  -4.170  0.00  0.00    -0.264 N 
HETATM    8  H   UNK N   1      29.004  24.025  -3.280  0.00  0.00     0.180 HD
BRANCH   7   9
HETATM    9  S   UNK N   1      30.065  25.871  -4.370  0.00  0.00     0.264 S 
HETATM   10  O   UNK N   1      30.905  26.050  -3.097  0.00  0.00    -0.200 OA
HETATM   11  O   UNK N   1      31.148  25.661  -5.440  0.00  0.00    -0.200 OA
BRANCH   9  12
HETATM   12  C   UNK N   1      28.988  27.241  -4.705  0.00  0.00     0.082 A 
HETATM   13  C   UNK N   1      27.978  27.566  -3.799  0.00  0.00     0.067 A 
HETATM   14  C   UNK N   1      27.127  28.640  -4.062  0.00  0.00     0.117 A 
HETATM   15  F   UNK N   1      26.148  28.954  -3.182  0.00  0.00    -0.206 F 
HETATM   16  C   UNK N   1      27.287  29.387  -5.234  0.00  0.00     0.042 A 
HETATM   17  C   UNK N   1      28.299  29.059  -6.142  0.00  0.00     0.005 A 
HETATM   18  C   UNK N   1      29.151  27.985  -5.877  0.00  0.00     0.025 A 
ENDBRANCH   9  12
ENDBRANCH   7   9
ENDBRANCH   1   7
BRANCH   6  19
HETATM   19  C   UNK N   1      27.041  24.476  -6.073  0.00  0.00     0.058 A 
HETATM   20  C   UNK N   1      26.183  24.517  -4.963  0.00  0.00     0.034 A 
HETATM   21  C   UNK N   1      25.186  25.502  -4.883  0.00  0.00     0.044 A 
HETATM   22  C   UNK N   1      25.039  26.444  -5.909  0.00  0.00     0.116 A 
HETATM   23  F   UNK N   1      24.089  27.406  -5.826  0.00  0.00    -0.206 F 
HETATM   24  C   UNK N   1      25.875  26.399  -7.019  0.00  0.00     0.044 A 
HETATM   25  C   UNK N   1      26.867  25.427  -7.095  0.00  0.00     0.034 A 
ENDBRANCH   6  19
BRANCH   3  26
HETATM   26  C   UNK N   1      29.835  20.619  -7.371  0.00  0.00     0.033 A 
HETATM   27  C   UNK N   1      29.062  19.507  -7.712  0.00  0.00     0.021 A 
HETATM   28  C   UNK N   1      29.810  18.491  -8.371  0.00  0.00     0.008 A 
HETATM   29  C   UNK N   1      31.167  18.804  -8.543  0.00  0.00     0.050 A 
HETATM   30  S   UNK N   1      31.376  20.316  -7.881  0.00  0.00    -0.100 SA
ENDBRANCH   3  26
TORSDOF 5
ENDMDL
MODEL 6
REMARK VINA RESULT:      -6.7     13.595     17.651
REMARK  5 active torsions:
REMARK  status: ('A' for Active; 'I' for Inactive)
REMARK    1  A    between atoms: C_7  and  S_8 
REMARK    2  A    between atoms: S_8  and  N_11 
REMARK    3  A    between atoms: N_11  and  C_12 
REMARK    4  A    between atoms: C_14  and  C_15 
REMARK    5  A    between atoms: N_22  and  C_23 
ROOT
HETATM    1  C   UNK N   1      21.503  15.212   6.822  0.00  0.00     0.139 A 
HETATM    2  C   UNK N   1      21.694  14.922   8.150  0.00  0.00     0.083 A 
HETATM    3  C   UNK N   1      22.491  13.792   8.121  0.00  0.00     0.069 A 
HETATM    4  N   UNK N   1      22.733  13.423   6.839  0.00  0.00    -0.291 N 
ATOM      5  HN  UNK N   1      23.284  12.620   6.536  1.00  0.00     0.187 HD
HETATM    6  N   UNK N   1      22.123  14.300   6.050  0.00  0.00    -0.239 N 
ENDROOT
BRANCH   1   7
HETATM    7  N   UNK N   1      20.681  16.238   6.318  0.00  0.00    -0.264 N 
HETATM    8  H   UNK N   1      19.705  16.111   6.277  0.00  0.00     0.180 HD
BRANCH   7   9
HETATM    9  S   UNK N   1      21.389  17.732   5.767  0.00  0.00     0.264 S 
HETATM   10  O   UNK N   1      21.010  18.749   6.854  0.00  0.00    -0.200 OA
HETATM   11  O   UNK N   1      22.900  17.567   5.995  0.00  0.00    -0.200 OA
BRANCH   9  12
HETATM   12  C   UNK N   1      20.969  18.262   4.126  0.00  0.00     0.082 A 
HETATM   13  C   UNK N   1      21.195  19.586   3.746  0.00  0.00     0.067 A 
HETATM   14  C   UNK N   1      20.861  20.006   2.459  0.00  0.00     0.117 A 
HETATM   15  F   UNK N   1      21.080  21.290   2.092  0.00  0.00    -0.206 F 
HETATM   16  C   UNK N   1      20.300  19.101   1.551  0.00  0.00     0.042 A 
HETATM   17  C   UNK N   1      20.073  17.775   1.934  0.00  0.00     0.005 A 
HETATM   18  C   UNK N   1      20.408  17.355   3.223  0.00  0.00     0.025 A 
ENDBRANCH   9  12
ENDBRANCH   7   9
ENDBRANCH   1   7
BRANCH   6  19
HETATM   19  C   UNK N   1      22.047  14.227   4.609  0.00  0.00     0.058 A 
HETATM   20  C   UNK N   1      20.938  13.655   3.968  0.00  0.00     0.034 A 
HETATM   21  C   UNK N   1      20.849  13.673   2.567  0.00  0.00     0.044 A 
HETATM   22  C   UNK N   1      21.867  14.257   1.802  0.00  0.00     0.116 A 
HETATM   23  F   UNK N   1      21.777  14.291   0.451  0.00  0.00    -0.206 F 
HETATM   24  C   UNK N   1      22.977  14.812   2.430  0.00  0.00     0.044 A 
HETATM   25  C   UNK N   1      23.061  14.800   3.818  0.00  0.00     0.034 A 
ENDBRANCH   6  19
BRANCH   3  26
HETATM   26  C   UNK N   1      22.979  13.103   9.324  0.00  0.00     0.033 A 
HETATM   27  C   UNK N   1      24.323  12.875   9.631  0.00  0.00     0.021 A 
HETATM   28  C   UNK N   1      24.500  12.174  10.857  0.00  0.00     0.008 A 
HETATM   29  C   UNK N   1      23.300  11.850  11.507  0.00  0.00     0.050 A 
HETATM   30  S   UNK N   1      22.082  12.445  10.544  0.00  0.00    -0.100 SA
ENDBRANCH   3  26
TORSDOF 5
ENDMDL
MODEL 7
REMARK VINA RESULT:      -6.6     18.538     21.737
REMARK  5 active torsions:
REMARK  status: ('A' for Active; 'I' for Inactive)
REMARK    1  A    between atoms: C_7  and  S_8 
REMARK    2  A    between atoms: S_8  and  N_11 
REMARK    3  A    between atoms: N_11  and  C_12 
REMARK    4  A    between atoms: C_14  and  C_15 
REMARK    5  A    between atoms: N_22  and  C_23 
ROOT
HETATM    1  C   UNK N   1      29.120  22.692  -5.145  0.00  0.00     0.139 A 
HETATM    2  C   UNK N   1      29.779  21.556  -5.542  0.00  0.00     0.083 A 
HETATM    3  C   UNK N   1      29.387  21.399  -6.859  0.00  0.00     0.069 A 
HETATM    4  N   UNK N   1      28.519  22.381  -7.209  0.00  0.00    -0.291 N 
ATOM      5  HN  UNK N   1      28.071  22.494  -8.118  1.00  0.00     0.187 HD
HETATM    6  N   UNK N   1      28.362  23.168  -6.151  0.00  0.00    -0.239 N 
ENDROOT
BRANCH   1   7
HETATM    7  N   UNK N   1      29.124  23.230  -3.845  0.00  0.00    -0.264 N 
HETATM    8  H   UNK N   1      28.273  23.428  -3.390  0.00  0.00     0.180 HD
BRANCH   7   9
HETATM    9  S   UNK N   1      30.636  23.544  -3.036  0.00  0.00     0.264 S 
HETATM   10  O   UNK N   1      30.720  25.077  -2.983  0.00  0.00    -0.200 OA
HETATM   11  O   UNK N   1      30.383  23.187  -1.562  0.00  0.00    -0.200 OA
BRANCH   9  12
HETATM   12  C   UNK N   1      32.085  22.780  -3.716  0.00  0.00     0.082 A 
HETATM   13  C   UNK N   1      32.507  21.540  -3.234  0.00  0.00     0.067 A 
HETATM   14  C   UNK N   1      33.649  20.940  -3.764  0.00  0.00     0.117 A 
HETATM   15  F   UNK N   1      34.056  19.737  -3.296  0.00  0.00    -0.206 F 
HETATM   16  C   UNK N   1      34.370  21.581  -4.777  0.00  0.00     0.042 A 
HETATM   17  C   UNK N   1      33.947  22.825  -5.258  0.00  0.00     0.005 A 
HETATM   18  C   UNK N   1      32.803  23.424  -4.727  0.00  0.00     0.025 A 
ENDBRANCH   9  12
ENDBRANCH   7   9
ENDBRANCH   1   7
BRANCH   6  19
HETATM   19  C   UNK N   1      27.450  24.286  -6.061  0.00  0.00     0.058 A 
HETATM   20  C   UNK N   1      27.762  25.525  -6.638  0.00  0.00     0.034 A 
HETATM   21  C   UNK N   1      26.823  26.569  -6.611  0.00  0.00     0.044 A 
HETATM   22  C   UNK N   1      25.574  26.380  -6.006  0.00  0.00     0.116 A 
HETATM   23  F   UNK N   1      24.659  27.380  -5.993  0.00  0.00    -0.206 F 
HETATM   24  C   UNK N   1      25.264  25.159  -5.418  0.00  0.00     0.044 A 
HETATM   25  C   UNK N   1      26.192  24.123  -5.451  0.00  0.00     0.034 A 
ENDBRANCH   6  19
BRANCH   3  26
HETATM   26  C   UNK N   1      29.850  20.307  -7.727  0.00  0.00     0.033 A 
HETATM   27  C   UNK N   1      29.385  18.991  -7.685  0.00  0.00     0.021 A 
HETATM   28  C   UNK N   1      30.022  18.146  -8.636  0.00  0.00     0.008 A 
HETATM   29  C   UNK N   1      30.986  18.796  -9.420  0.00  0.00     0.050 A 
HETATM   30  S   UNK N   1      31.004  20.378  -8.907  0.00  0.00    -0.100 SA
ENDBRANCH   3  26
TORSDOF 5
ENDMDL
MODEL 8
REMARK VINA RESULT:      -6.5      8.761     12.149
REMARK  5 active torsions:
REMARK  status: ('A' for Active; 'I' for Inactive)
REMARK    1  A    between atoms: C_7  and  S_8 
REMARK    2  A    between atoms: S_8  and  N_11 
REMARK    3  A    between atoms: N_11  and  C_12 
REMARK    4  A    between atoms: C_14  and  C_15 
REMARK    5  A    between atoms: N_22  and  C_23 
ROOT
HETATM    1  C   UNK N   1      28.535  16.365   3.198  0.00  0.00     0.139 A 
HETATM    2  C   UNK N   1      28.170  15.199   2.573  0.00  0.00     0.083 A 
HETATM    3  C   UNK N   1      26.788  15.253   2.572  0.00  0.00     0.069 A 
HETATM    4  N   UNK N   1      26.363  16.383   3.191  0.00  0.00    -0.291 N 
ATOM      5  HN  UNK N   1      25.393  16.663   3.336  1.00  0.00     0.187 HD
HETATM    6  N   UNK N   1      27.442  17.057   3.571  0.00  0.00    -0.239 N 
ENDROOT
BRANCH   1   7
HETATM    7  N   UNK N   1      29.851  16.743   3.523  0.00  0.00    -0.264 N 
HETATM    8  H   UNK N   1      30.248  17.547   3.115  0.00  0.00     0.180 HD
BRANCH   7   9
HETATM    9  S   UNK N   1      30.780  15.789   4.648  0.00  0.00     0.264 S 
HETATM   10  O   UNK N   1      29.753  14.821   5.254  0.00  0.00    -0.200 OA
HETATM   11  O   UNK N   1      31.626  14.851   3.773  0.00  0.00    -0.200 OA
BRANCH   9  12
HETATM   12  C   UNK N   1      31.722  16.673   5.864  0.00  0.00     0.082 A 
HETATM   13  C   UNK N   1      31.099  17.131   7.026  0.00  0.00     0.067 A 
HETATM   14  C   UNK N   1      31.836  17.830   7.981  0.00  0.00     0.117 A 
HETATM   15  F   UNK N   1      31.230  18.273   9.107  0.00  0.00    -0.206 F 
HETATM   16  C   UNK N   1      33.198  18.073   7.773  0.00  0.00     0.042 A 
HETATM   17  C   UNK N   1      33.821  17.615   6.607  0.00  0.00     0.005 A 
HETATM   18  C   UNK N   1      33.082  16.914   5.652  0.00  0.00     0.025 A 
ENDBRANCH   9  12
ENDBRANCH   7   9
ENDBRANCH   1   7
BRANCH   6  19
HETATM   19  C   UNK N   1      27.442  18.276   4.348  0.00  0.00     0.058 A 
HETATM   20  C   UNK N   1      27.053  19.498   3.780  0.00  0.00     0.034 A 
HETATM   21  C   UNK N   1      26.980  20.652   4.578  0.00  0.00     0.044 A 
HETATM   22  C   UNK N   1      27.299  20.590   5.940  0.00  0.00     0.116 A 
HETATM   23  F   UNK N   1      27.213  21.697   6.717  0.00  0.00    -0.206 F 
HETATM   24  C   UNK N   1      27.701  19.385   6.506  0.00  0.00     0.044 A 
HETATM   25  C   UNK N   1      27.767  18.241   5.717  0.00  0.00     0.034 A 
ENDBRANCH   6  19
BRANCH   3  26
HETATM   26  C   UNK N   1      25.928  14.214   1.989  0.00  0.00     0.033 A 
HETATM   27  C   UNK N   1      26.224  12.849   1.954  0.00  0.00     0.021 A 
HETATM   28  C   UNK N   1      25.212  12.077   1.316  0.00  0.00     0.008 A 
HETATM   29  C   UNK N   1      24.127  12.835   0.850  0.00  0.00     0.050 A 
HETATM   30  S   UNK N   1      24.465  14.414   1.248  0.00  0.00    -0.100 SA
ENDBRANCH   3  26
TORSDOF 5
ENDMDL
MODEL 9
REMARK VINA RESULT:      -6.5      8.736     13.464
REMARK  5 active torsions:
REMARK  status: ('A' for Active; 'I' for Inactive)
REMARK    1  A    between atoms: C_7  and  S_8 
REMARK    2  A    between atoms: S_8  and  N_11 
REMARK    3  A    between atoms: N_11  and  C_12 
REMARK    4  A    between atoms: C_14  and  C_15 
REMARK    5  A    between atoms: N_22  and  C_23 
ROOT
HETATM    1  C   UNK N   1      28.534  18.248   7.151  0.00  0.00     0.139 A 
HETATM    2  C   UNK N   1      29.709  18.321   7.857  0.00  0.00     0.083 A 
HETATM    3  C   UNK N   1      30.516  17.384   7.236  0.00  0.00     0.069 A 
HETATM    4  N   UNK N   1      29.837  16.773   6.233  0.00  0.00    -0.291 N 
ATOM      5  HN  UNK N   1      30.194  16.037   5.623  1.00  0.00     0.187 HD
HETATM    6  N   UNK N   1      28.623  17.310   6.190  0.00  0.00    -0.239 N 
ENDROOT
BRANCH   1   7
HETATM    7  N   UNK N   1      27.354  18.954   7.451  0.00  0.00    -0.264 N 
HETATM    8  H   UNK N   1      26.759  18.637   8.170  0.00  0.00     0.180 HD
BRANCH   7   9
HETATM    9  S   UNK N   1      26.945  20.390   6.553  0.00  0.00     0.264 S 
HETATM   10  O   UNK N   1      26.230  21.283   7.579  0.00  0.00    -0.200 OA
HETATM   11  O   UNK N   1      28.276  21.133   6.357  0.00  0.00    -0.200 OA
BRANCH   9  12
HETATM   12  C   UNK N   1      26.026  20.164   5.052  0.00  0.00     0.082 A 
HETATM   13  C   UNK N   1      24.845  19.420   5.067  0.00  0.00     0.067 A 
HETATM   14  C   UNK N   1      24.124  19.237   3.887  0.00  0.00     0.117 A 
HETATM   15  F   UNK N   1      22.979  18.515   3.903  0.00  0.00    -0.206 F 
HETATM   16  C   UNK N   1      24.585  19.798   2.692  0.00  0.00     0.042 A 
HETATM   17  C   UNK N   1      25.770  20.542   2.678  0.00  0.00     0.005 A 
HETATM   18  C   UNK N   1      26.490  20.725   3.860  0.00  0.00     0.025 A 
ENDBRANCH   9  12
ENDBRANCH   7   9
ENDBRANCH   1   7
BRANCH   6  19
HETATM   19  C   UNK N   1      27.544  16.885   5.327  0.00  0.00     0.058 A 
HETATM   20  C   UNK N   1      27.598  17.097   3.942  0.00  0.00     0.034 A 
HETATM   21  C   UNK N   1      26.578  16.600   3.115  0.00  0.00     0.044 A 
HETATM   22  C   UNK N   1      25.502  15.894   3.668  0.00  0.00     0.116 A 
HETATM   23  F   UNK N   1      24.524  15.397   2.872  0.00  0.00    -0.206 F 
HETATM   24  C   UNK N   1      25.435  15.693   5.042  0.00  0.00     0.044 A 
HETATM   25  C   UNK N   1      26.448  16.180   5.860  0.00  0.00     0.034 A 
ENDBRANCH   6  19
BRANCH   3  26
HETATM   26  C   UNK N   1      31.901  17.102   7.636  0.00  0.00     0.033 A 
HETATM   27  C   UNK N   1      32.757  18.007   8.268  0.00  0.00     0.021 A 
HETATM   28  C   UNK N   1      34.047  17.464   8.527  0.00  0.00     0.008 A 
HETATM   29  C   UNK N   1      34.204  16.138   8.096  0.00  0.00     0.050 A 
HETATM   30  S   UNK N   1      32.747  15.700   7.423  0.00  0.00    -0.100 SA
ENDBRANCH   3  26
TORSDOF 5
ENDMDL
