MODEL 1
REMARK VINA RESULT:      -8.3      0.000      0.000
REMARK  6 active torsions:
REMARK  status: ('A' for Active; 'I' for Inactive)
REMARK    1  A    between atoms: C_2  and  N_27 
REMARK    2  A    between atoms: C_2  and  C_12 
REMARK    3  A    between atoms: C_5  and  C_6 
REMARK    4  A    between atoms: C_5  and  O_14 
REMARK    5  A    between atoms: C_11  and  C_15 
REMARK    6  A    between atoms: O_14  and  C_15 
ROOT
HETATM    1  N   UNK N   1      35.264  15.351  10.542  0.00  0.00    -0.267 N 
HETATM    2  C   UNK N   1      34.963  16.356   9.651  0.00  0.00     0.336 A 
HETATM    3  C   UNK N   1      35.695  15.499  11.851  0.00  0.00     0.127 A 
HETATM    4  C   UNK N   1      35.881  14.264  12.525  0.00  0.00     0.098 A 
HETATM    5  C   UNK N   1      35.128  14.055  10.180  0.00  0.00     0.090 A 
HETATM    6  S   UNK N   1      35.504  13.075  11.435  0.00  0.00    -0.064 SA
HETATM    7  C   UNK N   1      34.696  13.679   8.934  0.00  0.00     0.112 A 
HETATM    8  C   UNK N   1      34.385  14.678   8.025  0.00  0.00     0.254 A 
HETATM    9  O   UNK N   1      33.973  14.338   6.931  0.00  0.00    -0.268 OA
HETATM   10  O   UNK N   1      35.070  17.526   9.990  0.00  0.00    -0.246 OA
HETATM   11  N   UNK N   1      34.522  16.031   8.371  0.00  0.00    -0.262 N 
ENDROOT
BRANCH   4  12
HETATM   12  C   UNK N   1      36.263  13.995  13.933  0.00  0.00     0.302 C 
HETATM   13  O   UNK N   1      36.814  14.883  14.565  0.00  0.00    -0.259 OA
BRANCH  12  14
HETATM   14  O   UNK N   1      36.045  12.808  14.549  0.00  0.00    -0.312 OA
BRANCH  14  15
HETATM   15  C   UNK N   1      34.856  12.450  15.138  0.00  0.00     0.217 C 
BRANCH  15  16
HETATM   16  C   UNK N   1      35.015  12.344  16.612  0.00  0.00    -0.034 A 
HETATM   17  C   UNK N   1      34.999  13.508  17.384  0.00  0.00     0.009 A 
HETATM   18  C   UNK N   1      35.156  13.430  18.769  0.00  0.00     0.001 A 
HETATM   19  C   UNK N   1      35.328  12.186  19.383  0.00  0.00     0.000 A 
HETATM   20  C   UNK N   1      35.346  11.020  18.612  0.00  0.00     0.001 A 
HETATM   21  C   UNK N   1      35.195  11.099  17.225  0.00  0.00     0.009 A 
ENDBRANCH  15  16
ENDBRANCH  14  15
ENDBRANCH  12  14
ENDBRANCH   4  12
BRANCH  11  22
HETATM   22  C   UNK N   1      34.177  17.139   7.446  0.00  0.00     0.175 C 
BRANCH  22  23
HETATM   23  C   UNK N   1      32.707  17.334   7.223  0.00  0.00    -0.040 A 
HETATM   24  C   UNK N   1      31.867  17.585   8.316  0.00  0.00     0.009 A 
HETATM   25  C   UNK N   1      30.481  17.643   8.135  0.00  0.00     0.001 A 
HETATM   26  C   UNK N   1      29.934  17.446   6.863  0.00  0.00     0.000 A 
HETATM   27  C   UNK N   1      30.772  17.207   5.769  0.00  0.00     0.001 A 
HETATM   28  C   UNK N   1      32.156  17.146   5.949  0.00  0.00     0.009 A 
ENDBRANCH  22  23
ENDBRANCH  11  22
TORSDOF 6
ENDMDL
MODEL 2
REMARK VINA RESULT:      -8.3      1.518      2.363
REMARK  6 active torsions:
REMARK  status: ('A' for Active; 'I' for Inactive)
REMARK    1  A    between atoms: C_2  and  N_27 
REMARK    2  A    between atoms: C_2  and  C_12 
REMARK    3  A    between atoms: C_5  and  C_6 
REMARK    4  A    between atoms: C_5  and  O_14 
REMARK    5  A    between atoms: C_11  and  C_15 
REMARK    6  A    between atoms: O_14  and  C_15 
ROOT
HETATM    1  N   UNK N   1      33.880  15.421  10.013  0.00  0.00    -0.267 N 
HETATM    2  C   UNK N   1      32.903  15.508   9.047  0.00  0.00     0.336 A 
HETATM    3  C   UNK N   1      34.008  14.439  10.983  0.00  0.00     0.127 A 
HETATM    4  C   UNK N   1      35.149  14.609  11.808  0.00  0.00     0.098 A 
HETATM    5  C   UNK N   1      34.867  16.344  10.070  0.00  0.00     0.090 A 
HETATM    6  S   UNK N   1      35.913  15.978  11.273  0.00  0.00    -0.064 SA
HETATM    7  C   UNK N   1      34.946  17.395   9.193  0.00  0.00     0.112 A 
HETATM    8  C   UNK N   1      33.972  17.497   8.212  0.00  0.00     0.254 A 
HETATM    9  O   UNK N   1      34.065  18.414   7.417  0.00  0.00    -0.268 OA
HETATM   10  O   UNK N   1      32.023  14.661   8.988  0.00  0.00    -0.246 OA
HETATM   11  N   UNK N   1      32.934  16.557   8.131  0.00  0.00    -0.262 N 
ENDROOT
BRANCH   4  12
HETATM   12  C   UNK N   1      35.672  13.751  12.899  0.00  0.00     0.302 C 
HETATM   13  O   UNK N   1      36.801  13.301  12.794  0.00  0.00    -0.259 OA
BRANCH  12  14
HETATM   14  O   UNK N   1      34.952  13.428  14.002  0.00  0.00    -0.312 OA
BRANCH  14  15
HETATM   15  C   UNK N   1      34.805  12.147  14.479  0.00  0.00     0.217 C 
BRANCH  15  16
HETATM   16  C   UNK N   1      34.971  12.119  15.955  0.00  0.00    -0.034 A 
HETATM   17  C   UNK N   1      34.981  13.324  16.663  0.00  0.00     0.009 A 
HETATM   18  C   UNK N   1      35.146  13.318  18.049  0.00  0.00     0.001 A 
HETATM   19  C   UNK N   1      35.297  12.106  18.730  0.00  0.00     0.000 A 
HETATM   20  C   UNK N   1      35.287  10.900  18.023  0.00  0.00     0.001 A 
HETATM   21  C   UNK N   1      35.129  10.905  16.635  0.00  0.00     0.009 A 
ENDBRANCH  15  16
ENDBRANCH  14  15
ENDBRANCH  12  14
ENDBRANCH   4  12
BRANCH  11  22
HETATM   22  C   UNK N   1      31.882  16.604   7.084  0.00  0.00     0.175 C 
BRANCH  22  23
HETATM   23  C   UNK N   1      30.593  17.235   7.520  0.00  0.00    -0.040 A 
HETATM   24  C   UNK N   1      29.461  17.135   6.702  0.00  0.00     0.009 A 
HETATM   25  C   UNK N   1      28.291  17.825   7.040  0.00  0.00     0.001 A 
HETATM   26  C   UNK N   1      28.255  18.618   8.191  0.00  0.00     0.000 A 
HETATM   27  C   UNK N   1      29.381  18.710   9.014  0.00  0.00     0.001 A 
HETATM   28  C   UNK N   1      30.551  18.023   8.677  0.00  0.00     0.009 A 
ENDBRANCH  22  23
ENDBRANCH  11  22
TORSDOF 6
ENDMDL
MODEL 3
REMARK VINA RESULT:      -8.2      1.278      1.858
REMARK  6 active torsions:
REMARK  status: ('A' for Active; 'I' for Inactive)
REMARK    1  A    between atoms: C_2  and  N_27 
REMARK    2  A    between atoms: C_2  and  C_12 
REMARK    3  A    between atoms: C_5  and  C_6 
REMARK    4  A    between atoms: C_5  and  O_14 
REMARK    5  A    between atoms: C_11  and  C_15 
REMARK    6  A    between atoms: O_14  and  C_15 
ROOT
HETATM    1  N   UNK N   1      34.803  15.063   9.739  0.00  0.00    -0.267 N 
HETATM    2  C   UNK N   1      34.420  16.211   9.084  0.00  0.00     0.336 A 
HETATM    3  C   UNK N   1      34.596  14.756  11.075  0.00  0.00     0.127 A 
HETATM    4  C   UNK N   1      35.075  13.471  11.437  0.00  0.00     0.098 A 
HETATM    5  C   UNK N   1      35.435  14.073   9.067  0.00  0.00     0.090 A 
HETATM    6  S   UNK N   1      35.732  12.813  10.066  0.00  0.00    -0.064 SA
HETATM    7  C   UNK N   1      35.725  14.158   7.730  0.00  0.00     0.112 A 
HETATM    8  C   UNK N   1      35.343  15.306   7.053  0.00  0.00     0.254 A 
HETATM    9  O   UNK N   1      35.576  15.362   5.860  0.00  0.00    -0.268 OA
HETATM   10  O   UNK N   1      33.832  17.095   9.692  0.00  0.00    -0.246 OA
HETATM   11  N   UNK N   1      34.691  16.351   7.725  0.00  0.00    -0.262 N 
ENDROOT
BRANCH   4  12
HETATM   12  C   UNK N   1      34.987  12.752  12.732  0.00  0.00     0.302 C 
HETATM   13  O   UNK N   1      35.006  11.531  12.720  0.00  0.00    -0.259 OA
BRANCH  12  14
HETATM   14  O   UNK N   1      34.871  13.381  13.927  0.00  0.00    -0.312 OA
BRANCH  14  15
HETATM   15  C   UNK N   1      35.923  13.625  14.776  0.00  0.00     0.217 C 
BRANCH  15  16
HETATM   16  C   UNK N   1      35.730  12.910  16.064  0.00  0.00    -0.034 A 
HETATM   17  C   UNK N   1      35.306  13.628  17.185  0.00  0.00     0.009 A 
HETATM   18  C   UNK N   1      35.128  12.975  18.407  0.00  0.00     0.001 A 
HETATM   19  C   UNK N   1      35.373  11.603  18.507  0.00  0.00     0.000 A 
HETATM   20  C   UNK N   1      35.799  10.883  17.387  0.00  0.00     0.001 A 
HETATM   21  C   UNK N   1      35.983  11.537  16.165  0.00  0.00     0.009 A 
ENDBRANCH  15  16
ENDBRANCH  14  15
ENDBRANCH  12  14
ENDBRANCH   4  12
BRANCH  11  22
HETATM   22  C   UNK N   1      34.237  17.589   7.044  0.00  0.00     0.175 C 
BRANCH  22  23
HETATM   23  C   UNK N   1      33.017  17.421   6.187  0.00  0.00    -0.040 A 
HETATM   24  C   UNK N   1      33.107  17.629   4.805  0.00  0.00     0.009 A 
HETATM   25  C   UNK N   1      31.952  17.597   4.016  0.00  0.00     0.001 A 
HETATM   26  C   UNK N   1      30.707  17.362   4.609  0.00  0.00     0.000 A 
HETATM   27  C   UNK N   1      30.618  17.142   5.987  0.00  0.00     0.001 A 
HETATM   28  C   UNK N   1      31.771  17.176   6.777  0.00  0.00     0.009 A 
ENDBRANCH  22  23
ENDBRANCH  11  22
TORSDOF 6
ENDMDL
MODEL 4
REMARK VINA RESULT:      -8.1      1.773      2.802
REMARK  6 active torsions:
REMARK  status: ('A' for Active; 'I' for Inactive)
REMARK    1  A    between atoms: C_2  and  N_27 
REMARK    2  A    between atoms: C_2  and  C_12 
REMARK    3  A    between atoms: C_5  and  C_6 
REMARK    4  A    between atoms: C_5  and  O_14 
REMARK    5  A    between atoms: C_11  and  C_15 
REMARK    6  A    between atoms: O_14  and  C_15 
ROOT
HETATM    1  N   UNK N   1      33.806  15.508   9.861  0.00  0.00    -0.267 N 
HETATM    2  C   UNK N   1      32.895  15.758   8.860  0.00  0.00     0.336 A 
HETATM    3  C   UNK N   1      33.821  14.421  10.722  0.00  0.00     0.127 A 
HETATM    4  C   UNK N   1      34.919  14.430  11.620  0.00  0.00     0.098 A 
HETATM    5  C   UNK N   1      34.838  16.357  10.073  0.00  0.00     0.090 A 
HETATM    6  S   UNK N   1      35.789  15.800  11.282  0.00  0.00    -0.064 SA
HETATM    7  C   UNK N   1      35.027  17.488   9.323  0.00  0.00     0.112 A 
HETATM    8  C   UNK N   1      34.121  17.756   8.308  0.00  0.00     0.254 A 
HETATM    9  O   UNK N   1      34.313  18.745   7.626  0.00  0.00    -0.268 OA
HETATM   10  O   UNK N   1      31.975  14.978   8.661  0.00  0.00    -0.246 OA
HETATM   11  N   UNK N   1      33.039  16.895   8.069  0.00  0.00    -0.262 N 
ENDROOT
BRANCH   4  12
HETATM   12  C   UNK N   1      35.327  13.430  12.636  0.00  0.00     0.302 C 
HETATM   13  O   UNK N   1      35.857  12.398  12.255  0.00  0.00    -0.259 OA
BRANCH  12  14
HETATM   14  O   UNK N   1      35.126  13.596  13.966  0.00  0.00    -0.312 OA
BRANCH  14  15
HETATM   15  C   UNK N   1      36.136  13.754  14.885  0.00  0.00     0.217 C 
BRANCH  15  16
HETATM   16  C   UNK N   1      35.853  12.965  16.112  0.00  0.00    -0.034 A 
HETATM   17  C   UNK N   1      35.355  13.619  17.242  0.00  0.00     0.009 A 
HETATM   18  C   UNK N   1      35.091  12.897  18.408  0.00  0.00     0.001 A 
HETATM   19  C   UNK N   1      35.324  11.519  18.444  0.00  0.00     0.000 A 
HETATM   20  C   UNK N   1      35.823  10.864  17.314  0.00  0.00     0.001 A 
HETATM   21  C   UNK N   1      36.093  11.587  16.149  0.00  0.00     0.009 A 
ENDBRANCH  15  16
ENDBRANCH  14  15
ENDBRANCH  12  14
ENDBRANCH   4  12
BRANCH  11  22
HETATM   22  C   UNK N   1      32.056  17.119   6.979  0.00  0.00     0.175 C 
BRANCH  22  23
HETATM   23  C   UNK N   1      32.563  16.802   5.604  0.00  0.00    -0.040 A 
HETATM   24  C   UNK N   1      32.075  17.517   4.503  0.00  0.00     0.009 A 
HETATM   25  C   UNK N   1      32.448  17.145   3.207  0.00  0.00     0.001 A 
HETATM   26  C   UNK N   1      33.303  16.056   3.010  0.00  0.00     0.000 A 
HETATM   27  C   UNK N   1      33.800  15.348   4.110  0.00  0.00     0.001 A 
HETATM   28  C   UNK N   1      33.427  15.717   5.405  0.00  0.00     0.009 A 
ENDBRANCH  22  23
ENDBRANCH  11  22
TORSDOF 6
ENDMDL
MODEL 5
REMARK VINA RESULT:      -8.0      1.737      9.149
REMARK  6 active torsions:
REMARK  status: ('A' for Active; 'I' for Inactive)
REMARK    1  A    between atoms: C_2  and  N_27 
REMARK    2  A    between atoms: C_2  and  C_12 
REMARK    3  A    between atoms: C_5  and  C_6 
REMARK    4  A    between atoms: C_5  and  O_14 
REMARK    5  A    between atoms: C_11  and  C_15 
REMARK    6  A    between atoms: O_14  and  C_15 
ROOT
HETATM    1  N   UNK N   1      35.336  14.382  11.739  0.00  0.00    -0.267 N 
HETATM    2  C   UNK N   1      36.064  14.168  12.888  0.00  0.00     0.336 A 
HETATM    3  C   UNK N   1      34.970  15.606  11.201  0.00  0.00     0.127 A 
HETATM    4  C   UNK N   1      34.255  15.493   9.981  0.00  0.00     0.098 A 
HETATM    5  C   UNK N   1      34.918  13.336  10.991  0.00  0.00     0.090 A 
HETATM    6  S   UNK N   1      34.122  13.872   9.666  0.00  0.00    -0.064 SA
HETATM    7  C   UNK N   1      35.186  12.034  11.328  0.00  0.00     0.112 A 
HETATM    8  C   UNK N   1      35.920  11.799  12.480  0.00  0.00     0.254 A 
HETATM    9  O   UNK N   1      36.181  10.643  12.757  0.00  0.00    -0.268 OA
HETATM   10  O   UNK N   1      36.455  15.118  13.550  0.00  0.00    -0.246 OA
HETATM   11  N   UNK N   1      36.363  12.865  13.278  0.00  0.00    -0.262 N 
ENDROOT
BRANCH   4  12
HETATM   12  C   UNK N   1      33.752  16.549   9.069  0.00  0.00     0.302 C 
HETATM   13  O   UNK N   1      34.253  17.661   9.138  0.00  0.00    -0.259 OA
BRANCH  12  14
HETATM   14  O   UNK N   1      32.754  16.348   8.175  0.00  0.00    -0.312 OA
BRANCH  14  15
HETATM   15  C   UNK N   1      32.159  17.349   7.445  0.00  0.00     0.217 C 
BRANCH  15  16
HETATM   16  C   UNK N   1      30.777  17.597   7.930  0.00  0.00    -0.034 A 
HETATM   17  C   UNK N   1      30.587  18.363   9.083  0.00  0.00     0.009 A 
HETATM   18  C   UNK N   1      29.296  18.599   9.560  0.00  0.00     0.001 A 
HETATM   19  C   UNK N   1      28.193  18.071   8.882  0.00  0.00     0.000 A 
HETATM   20  C   UNK N   1      28.382  17.303   7.729  0.00  0.00     0.001 A 
HETATM   21  C   UNK N   1      29.674  17.061   7.255  0.00  0.00     0.009 A 
ENDBRANCH  15  16
ENDBRANCH  14  15
ENDBRANCH  12  14
ENDBRANCH   4  12
BRANCH  11  22
HETATM   22  C   UNK N   1      37.175  12.670  14.506  0.00  0.00     0.175 C 
BRANCH  22  23
HETATM   23  C   UNK N   1      36.386  12.293  15.724  0.00  0.00    -0.040 A 
HETATM   24  C   UNK N   1      35.721  13.286  16.455  0.00  0.00     0.009 A 
HETATM   25  C   UNK N   1      35.088  12.962  17.660  0.00  0.00     0.001 A 
HETATM   26  C   UNK N   1      35.124  11.649  18.137  0.00  0.00     0.000 A 
HETATM   27  C   UNK N   1      35.778  10.654  17.403  0.00  0.00     0.001 A 
HETATM   28  C   UNK N   1      36.413  10.976  16.201  0.00  0.00     0.009 A 
ENDBRANCH  22  23
ENDBRANCH  11  22
TORSDOF 6
ENDMDL
MODEL 6
REMARK VINA RESULT:      -7.4      2.088      9.731
REMARK  6 active torsions:
REMARK  status: ('A' for Active; 'I' for Inactive)
REMARK    1  A    between atoms: C_2  and  N_27 
REMARK    2  A    between atoms: C_2  and  C_12 
REMARK    3  A    between atoms: C_5  and  C_6 
REMARK    4  A    between atoms: C_5  and  O_14 
REMARK    5  A    between atoms: C_11  and  C_15 
REMARK    6  A    between atoms: O_14  and  C_15 
ROOT
HETATM    1  N   UNK N   1      35.579  12.425  12.947  0.00  0.00    -0.267 N 
HETATM    2  C   UNK N   1      35.025  11.802  14.042  0.00  0.00     0.336 A 
HETATM    3  C   UNK N   1      34.934  13.258  12.046  0.00  0.00     0.127 A 
HETATM    4  C   UNK N   1      35.793  13.778  11.045  0.00  0.00     0.098 A 
HETATM    5  C   UNK N   1      36.894  12.273  12.668  0.00  0.00     0.090 A 
HETATM    6  S   UNK N   1      37.297  13.153  11.349  0.00  0.00    -0.064 SA
HETATM    7  C   UNK N   1      37.728  11.505  13.440  0.00  0.00     0.112 A 
HETATM    8  C   UNK N   1      37.188  10.872  14.549  0.00  0.00     0.254 A 
HETATM    9  O   UNK N   1      37.939  10.218  15.247  0.00  0.00    -0.268 OA
HETATM   10  O   UNK N   1      33.840  11.958  14.300  0.00  0.00    -0.246 OA
HETATM   11  N   UNK N   1      35.826  11.008  14.859  0.00  0.00    -0.262 N 
ENDROOT
BRANCH   4  12
HETATM   12  C   UNK N   1      35.511  14.743   9.955  0.00  0.00     0.302 C 
HETATM   13  O   UNK N   1      36.206  14.704   8.951  0.00  0.00    -0.259 OA
BRANCH  12  14
HETATM   14  O   UNK N   1      34.532  15.678  10.022  0.00  0.00    -0.312 OA
BRANCH  14  15
HETATM   15  C   UNK N   1      34.631  16.939   9.486  0.00  0.00     0.217 C 
BRANCH  15  16
HETATM   16  C   UNK N   1      33.750  17.070   8.296  0.00  0.00    -0.034 A 
HETATM   17  C   UNK N   1      34.328  17.261   7.039  0.00  0.00     0.009 A 
HETATM   18  C   UNK N   1      33.517  17.396   5.910  0.00  0.00     0.001 A 
HETATM   19  C   UNK N   1      32.126  17.338   6.039  0.00  0.00     0.000 A 
HETATM   20  C   UNK N   1      31.546  17.148   7.297  0.00  0.00     0.001 A 
HETATM   21  C   UNK N   1      32.357  17.020   8.428  0.00  0.00     0.009 A 
ENDBRANCH  15  16
ENDBRANCH  14  15
ENDBRANCH  12  14
ENDBRANCH   4  12
BRANCH  11  22
HETATM   22  C   UNK N   1      35.203  10.375  16.049  0.00  0.00     0.175 C 
BRANCH  22  23
HETATM   23  C   UNK N   1      35.322  11.170  17.315  0.00  0.00    -0.040 A 
HETATM   24  C   UNK N   1      35.404  10.506  18.546  0.00  0.00     0.009 A 
HETATM   25  C   UNK N   1      35.389  11.239  19.738  0.00  0.00     0.001 A 
HETATM   26  C   UNK N   1      35.288  12.633  19.701  0.00  0.00     0.000 A 
HETATM   27  C   UNK N   1      35.217  13.298  18.472  0.00  0.00     0.001 A 
HETATM   28  C   UNK N   1      35.230  12.567  17.280  0.00  0.00     0.009 A 
ENDBRANCH  22  23
ENDBRANCH  11  22
TORSDOF 6
ENDMDL
MODEL 7
REMARK VINA RESULT:      -7.4      8.704     14.932
REMARK  6 active torsions:
REMARK  status: ('A' for Active; 'I' for Inactive)
REMARK    1  A    between atoms: C_2  and  N_27 
REMARK    2  A    between atoms: C_2  and  C_12 
REMARK    3  A    between atoms: C_5  and  C_6 
REMARK    4  A    between atoms: C_5  and  O_14 
REMARK    5  A    between atoms: C_11  and  C_15 
REMARK    6  A    between atoms: O_14  and  C_15 
ROOT
HETATM    1  N   UNK N   1      25.247  18.443   4.363  0.00  0.00    -0.267 N 
HETATM    2  C   UNK N   1      25.924  17.493   5.095  0.00  0.00     0.336 A 
HETATM    3  C   UNK N   1      23.876  18.530   4.177  0.00  0.00     0.127 A 
HETATM    4  C   UNK N   1      23.484  19.651   3.402  0.00  0.00     0.098 A 
HETATM    5  C   UNK N   1      25.923  19.441   3.749  0.00  0.00     0.090 A 
HETATM    6  S   UNK N   1      24.878  20.449   2.995  0.00  0.00    -0.064 SA
HETATM    7  C   UNK N   1      27.287  19.558   3.817  0.00  0.00     0.112 A 
HETATM    8  C   UNK N   1      27.985  18.613   4.552  0.00  0.00     0.254 A 
HETATM    9  O   UNK N   1      29.193  18.741   4.634  0.00  0.00    -0.268 OA
HETATM   10  O   UNK N   1      25.306  16.604   5.663  0.00  0.00    -0.246 OA
HETATM   11  N   UNK N   1      27.311  17.564   5.195  0.00  0.00    -0.262 N 
ENDROOT
BRANCH   4  12
HETATM   12  C   UNK N   1      22.129  20.132   3.039  0.00  0.00     0.302 C 
HETATM   13  O   UNK N   1      22.004  21.287   2.661  0.00  0.00    -0.259 OA
BRANCH  12  14
HETATM   14  O   UNK N   1      21.018  19.360   3.121  0.00  0.00    -0.312 OA
BRANCH  14  15
HETATM   15  C   UNK N   1      20.264  18.975   2.038  0.00  0.00     0.217 C 
BRANCH  15  16
HETATM   16  C   UNK N   1      20.125  17.496   1.998  0.00  0.00    -0.034 A 
HETATM   17  C   UNK N   1      20.120  16.780   3.198  0.00  0.00     0.009 A 
HETATM   18  C   UNK N   1      20.000  15.389   3.182  0.00  0.00     0.001 A 
HETATM   19  C   UNK N   1      19.882  14.713   1.963  0.00  0.00     0.000 A 
HETATM   20  C   UNK N   1      19.888  15.428   0.762  0.00  0.00     0.001 A 
HETATM   21  C   UNK N   1      20.015  16.819   0.778  0.00  0.00     0.009 A 
ENDBRANCH  15  16
ENDBRANCH  14  15
ENDBRANCH  12  14
ENDBRANCH   4  12
BRANCH  11  22
HETATM   22  C   UNK N   1      28.007  16.541   6.017  0.00  0.00     0.175 C 
BRANCH  22  23
HETATM   23  C   UNK N   1      28.703  17.082   7.230  0.00  0.00    -0.040 A 
HETATM   24  C   UNK N   1      27.979  17.823   8.173  0.00  0.00     0.009 A 
HETATM   25  C   UNK N   1      28.643  18.435   9.241  0.00  0.00     0.001 A 
HETATM   26  C   UNK N   1      30.031  18.313   9.364  0.00  0.00     0.000 A 
HETATM   27  C   UNK N   1      30.754  17.565   8.429  0.00  0.00     0.001 A 
HETATM   28  C   UNK N   1      30.092  16.953   7.361  0.00  0.00     0.009 A 
ENDBRANCH  22  23
ENDBRANCH  11  22
TORSDOF 6
ENDMDL
MODEL 8
REMARK VINA RESULT:      -7.1      2.969      8.854
REMARK  6 active torsions:
REMARK  status: ('A' for Active; 'I' for Inactive)
REMARK    1  A    between atoms: C_2  and  N_27 
REMARK    2  A    between atoms: C_2  and  C_12 
REMARK    3  A    between atoms: C_5  and  C_6 
REMARK    4  A    between atoms: C_5  and  O_14 
REMARK    5  A    between atoms: C_11  and  C_15 
REMARK    6  A    between atoms: O_14  and  C_15 
ROOT
HETATM    1  N   UNK N   1      35.347  15.062   9.212  0.00  0.00    -0.267 N 
HETATM    2  C   UNK N   1      35.985  13.972   9.758  0.00  0.00     0.336 A 
HETATM    3  C   UNK N   1      34.912  15.204   7.903  0.00  0.00     0.127 A 
HETATM    4  C   UNK N   1      34.251  16.436   7.661  0.00  0.00     0.098 A 
HETATM    5  C   UNK N   1      35.062  16.140   9.978  0.00  0.00     0.090 A 
HETATM    6  S   UNK N   1      34.265  17.265   9.096  0.00  0.00    -0.064 SA
HETATM    7  C   UNK N   1      35.386  16.206  11.308  0.00  0.00     0.112 A 
HETATM    8  C   UNK N   1      36.026  15.116  11.876  0.00  0.00     0.254 A 
HETATM    9  O   UNK N   1      36.284  15.168  13.064  0.00  0.00    -0.268 OA
HETATM   10  O   UNK N   1      36.224  12.993   9.065  0.00  0.00    -0.246 OA
HETATM   11  N   UNK N   1      36.339  13.986  11.104  0.00  0.00    -0.262 N 
ENDROOT
BRANCH   4  12
HETATM   12  C   UNK N   1      33.588  16.936   6.432  0.00  0.00     0.302 C 
HETATM   13  O   UNK N   1      34.146  17.810   5.787  0.00  0.00    -0.259 OA
BRANCH  12  14
HETATM   14  O   UNK N   1      32.387  16.484   5.997  0.00  0.00    -0.312 OA
BRANCH  14  15
HETATM   15  C   UNK N   1      31.435  15.917   6.811  0.00  0.00     0.217 C 
BRANCH  15  16
HETATM   16  C   UNK N   1      30.446  16.937   7.246  0.00  0.00    -0.034 A 
HETATM   17  C   UNK N   1      30.547  17.481   8.529  0.00  0.00     0.009 A 
HETATM   18  C   UNK N   1      29.621  18.434   8.960  0.00  0.00     0.001 A 
HETATM   19  C   UNK N   1      28.595  18.845   8.105  0.00  0.00     0.000 A 
HETATM   20  C   UNK N   1      28.491  18.302   6.821  0.00  0.00     0.001 A 
HETATM   21  C   UNK N   1      29.414  17.344   6.392  0.00  0.00     0.009 A 
ENDBRANCH  15  16
ENDBRANCH  14  15
ENDBRANCH  12  14
ENDBRANCH   4  12
BRANCH  11  22
HETATM   22  C   UNK N   1      36.999  12.782  11.668  0.00  0.00     0.175 C 
BRANCH  22  23
HETATM   23  C   UNK N   1      36.064  11.661  12.015  0.00  0.00    -0.040 A 
HETATM   24  C   UNK N   1      35.017  11.886  12.918  0.00  0.00     0.009 A 
HETATM   25  C   UNK N   1      34.219  10.819  13.343  0.00  0.00     0.001 A 
HETATM   26  C   UNK N   1      34.468   9.527  12.870  0.00  0.00     0.000 A 
HETATM   27  C   UNK N   1      35.506   9.303  11.959  0.00  0.00     0.001 A 
HETATM   28  C   UNK N   1      36.307  10.368  11.536  0.00  0.00     0.009 A 
ENDBRANCH  22  23
ENDBRANCH  11  22
TORSDOF 6
ENDMDL
MODEL 9
REMARK VINA RESULT:      -7.1      2.242      3.226
REMARK  6 active torsions:
REMARK  status: ('A' for Active; 'I' for Inactive)
REMARK    1  A    between atoms: C_2  and  N_27 
REMARK    2  A    between atoms: C_2  and  C_12 
REMARK    3  A    between atoms: C_5  and  C_6 
REMARK    4  A    between atoms: C_5  and  O_14 
REMARK    5  A    between atoms: C_11  and  C_15 
REMARK    6  A    between atoms: O_14  and  C_15 
ROOT
HETATM    1  N   UNK N   1      33.812  14.873   9.307  0.00  0.00    -0.267 N 
HETATM    2  C   UNK N   1      32.848  15.357   8.452  0.00  0.00     0.336 A 
HETATM    3  C   UNK N   1      33.904  13.587   9.818  0.00  0.00     0.127 A 
HETATM    4  C   UNK N   1      35.041  13.390  10.643  0.00  0.00     0.098 A 
HETATM    5  C   UNK N   1      34.823  15.672   9.719  0.00  0.00     0.090 A 
HETATM    6  S   UNK N   1      35.846  14.837  10.684  0.00  0.00    -0.064 SA
HETATM    7  C   UNK N   1      34.939  16.979   9.320  0.00  0.00     0.112 A 
HETATM    8  C   UNK N   1      33.978  17.483   8.457  0.00  0.00     0.254 A 
HETATM    9  O   UNK N   1      34.104  18.634   8.082  0.00  0.00    -0.268 OA
HETATM   10  O   UNK N   1      31.947  14.624   8.069  0.00  0.00    -0.246 OA
HETATM   11  N   UNK N   1      32.916  16.678   8.017  0.00  0.00    -0.262 N 
ENDROOT
BRANCH   4  12
HETATM   12  C   UNK N   1      35.529  12.160  11.314  0.00  0.00     0.302 C 
HETATM   13  O   UNK N   1      36.297  11.432  10.704  0.00  0.00    -0.259 OA
BRANCH  12  14
HETATM   14  O   UNK N   1      35.154  11.796  12.564  0.00  0.00    -0.312 OA
BRANCH  14  15
HETATM   15  C   UNK N   1      34.305  10.750  12.841  0.00  0.00     0.217 C 
BRANCH  15  16
HETATM   16  C   UNK N   1      34.713  10.065  14.095  0.00  0.00    -0.034 A 
HETATM   17  C   UNK N   1      34.287  10.580  15.321  0.00  0.00     0.009 A 
HETATM   18  C   UNK N   1      34.667   9.956  16.511  0.00  0.00     0.001 A 
HETATM   19  C   UNK N   1      35.473   8.814  16.474  0.00  0.00     0.000 A 
HETATM   20  C   UNK N   1      35.901   8.298  15.247  0.00  0.00     0.001 A 
HETATM   21  C   UNK N   1      35.526   8.926  14.056  0.00  0.00     0.009 A 
ENDBRANCH  15  16
ENDBRANCH  14  15
ENDBRANCH  12  14
ENDBRANCH   4  12
BRANCH  11  22
HETATM   22  C   UNK N   1      31.876  17.158   7.072  0.00  0.00     0.175 C 
BRANCH  22  23
HETATM   23  C   UNK N   1      30.577  17.543   7.714  0.00  0.00    -0.040 A 
HETATM   24  C   UNK N   1      30.584  18.278   8.907  0.00  0.00     0.009 A 
HETATM   25  C   UNK N   1      29.383  18.533   9.578  0.00  0.00     0.001 A 
HETATM   26  C   UNK N   1      28.177  18.051   9.061  0.00  0.00     0.000 A 
HETATM   27  C   UNK N   1      28.167  17.327   7.864  0.00  0.00     0.001 A 
HETATM   28  C   UNK N   1      29.367  17.069   7.194  0.00  0.00     0.009 A 
ENDBRANCH  22  23
ENDBRANCH  11  22
TORSDOF 6
ENDMDL
