MODEL 1
REMARK VINA RESULT:      -7.2      0.000      0.000
REMARK  8 active torsions:
REMARK  status: ('A' for Active; 'I' for Inactive)
REMARK    1  A    between atoms: C_6  and  C_7 
REMARK    2  A    between atoms: C_8  and  C_9 
REMARK    3  A    between atoms: C_12  and  N_15 
REMARK       I    between atoms: N_15  and  C_16 
REMARK    4  A    between atoms: C_16  and  C_17 
REMARK    5  A    between atoms: C_17  and  C_18 
REMARK    6  A    between atoms: C_18  and  C_19 
REMARK    7  A    between atoms: C_19  and  C_20 
REMARK    8  A    between atoms: C_20  and  O_23 
ROOT
HETATM    1  C   UNK N   1      35.804  13.518  13.452  0.00  0.00    -0.036 A 
HETATM    2  C   UNK N   1      36.114  14.836  13.088  0.00  0.00     0.013 A 
HETATM    3  C   UNK N   1      35.814  15.297  11.794  0.00  0.00     0.030 A 
HETATM    4  C   UNK N   1      35.201  14.444  10.862  0.00  0.00     0.034 A 
HETATM    5  C   UNK N   1      34.891  13.134  11.246  0.00  0.00     0.030 A 
HETATM    6  C   UNK N   1      35.189  12.676  12.518  0.00  0.00     0.013 A 
ENDROOT
BRANCH   4   7
HETATM    7  N   UNK N   1      34.887  14.923   9.554  0.00  0.00    -0.327 N 
HETATM    8  C   UNK N   1      35.613  14.658   8.430  0.00  0.00     0.222 C 
HETATM    9  O   UNK N   1      36.640  13.991   8.488  0.00  0.00    -0.273 OA
HETATM   10  H   UNK N   1      34.086  15.487   9.456  0.00  0.00     0.169 HD
BRANCH   8  11
HETATM   11  C   UNK N   1      35.141  15.179   7.101  0.00  0.00     0.103 C 
BRANCH  11  12
HETATM   12  C   UNK N   1      33.843  15.981   7.212  0.00  0.00     0.019 C 
BRANCH  12  13
HETATM   13  C   UNK N   1      34.105  17.468   7.026  0.00  0.00     0.110 C 
BRANCH  13  14
HETATM   14  C   UNK N   1      34.438  18.114   8.333  0.00  0.00     0.139 C 
HETATM   15  O   UNK N   1      35.194  19.070   8.373  0.00  0.00    -0.650 OA
BRANCH  14  16
HETATM   16  O   UNK N   1      33.887  17.646   9.468  0.00  0.00    -0.776 OA
HETATM   17  H   UNK N   1      34.144  17.948  10.317  0.00  0.00     0.167 HD
ENDBRANCH  14  16
ENDBRANCH  13  14
ENDBRANCH  12  13
ENDBRANCH  11  12
ENDBRANCH   8  11
ENDBRANCH   4   7
BRANCH   1  18
HETATM   18  C   UNK N   1      36.107  13.003  14.802  0.00  0.00     0.012 C 
HETATM   19  C   UNK N   1      35.099  12.817  15.666  0.00  0.00     0.012 C 
BRANCH  19  20
HETATM   20  C   UNK N   1      35.235  12.381  17.058  0.00  0.00    -0.036 A 
HETATM   21  C   UNK N   1      35.084  13.342  18.064  0.00  0.00     0.011 A 
HETATM   22  C   UNK N   1      35.224  12.984  19.407  0.00  0.00     0.001 A 
HETATM   23  C   UNK N   1      35.524  11.663  19.747  0.00  0.00     0.000 A 
HETATM   24  C   UNK N   1      35.679  10.700  18.745  0.00  0.00     0.001 A 
HETATM   25  C   UNK N   1      35.534  11.055  17.399  0.00  0.00     0.011 A 
ENDBRANCH  19  20
ENDBRANCH   1  18
TORSDOF 8
ENDMDL
MODEL 2
REMARK VINA RESULT:      -6.7     10.219     14.370
REMARK  8 active torsions:
REMARK  status: ('A' for Active; 'I' for Inactive)
REMARK    1  A    between atoms: C_6  and  C_7 
REMARK    2  A    between atoms: C_8  and  C_9 
REMARK    3  A    between atoms: C_12  and  N_15 
REMARK       I    between atoms: N_15  and  C_16 
REMARK    4  A    between atoms: C_16  and  C_17 
REMARK    5  A    between atoms: C_17  and  C_18 
REMARK    6  A    between atoms: C_18  and  C_19 
REMARK    7  A    between atoms: C_19  and  C_20 
REMARK    8  A    between atoms: C_20  and  O_23 
ROOT
HETATM    1  C   UNK N   1      27.140  18.501   4.506  0.00  0.00    -0.036 A 
HETATM    2  C   UNK N   1      26.497  17.254   4.493  0.00  0.00     0.013 A 
HETATM    3  C   UNK N   1      25.122  17.176   4.207  0.00  0.00     0.030 A 
HETATM    4  C   UNK N   1      24.388  18.341   3.931  0.00  0.00     0.034 A 
HETATM    5  C   UNK N   1      25.048  19.575   3.941  0.00  0.00     0.030 A 
HETATM    6  C   UNK N   1      26.400  19.656   4.227  0.00  0.00     0.013 A 
ENDROOT
BRANCH   4   7
HETATM    7  N   UNK N   1      22.995  18.252   3.629  0.00  0.00    -0.327 N 
HETATM    8  C   UNK N   1      21.996  18.197   4.557  0.00  0.00     0.222 C 
HETATM    9  O   UNK N   1      22.252  18.188   5.756  0.00  0.00    -0.273 OA
HETATM   10  H   UNK N   1      22.736  18.228   2.680  0.00  0.00     0.169 HD
BRANCH   8  11
HETATM   11  C   UNK N   1      20.563  18.161   4.103  0.00  0.00     0.103 C 
BRANCH  11  12
HETATM   12  C   UNK N   1      20.418  18.377   2.596  0.00  0.00     0.019 C 
BRANCH  12  13
HETATM   13  C   UNK N   1      20.068  19.825   2.285  0.00  0.00     0.110 C 
BRANCH  13  14
HETATM   14  C   UNK N   1      21.019  20.395   1.282  0.00  0.00     0.139 C 
HETATM   15  O   UNK N   1      22.156  20.690   1.610  0.00  0.00    -0.650 OA
BRANCH  14  16
HETATM   16  O   UNK N   1      20.622  20.568   0.009  0.00  0.00    -0.776 OA
HETATM   17  H   UNK N   1      21.162  20.345  -0.725  0.00  0.00     0.167 HD
ENDBRANCH  14  16
ENDBRANCH  13  14
ENDBRANCH  12  13
ENDBRANCH  11  12
ENDBRANCH   8  11
ENDBRANCH   4   7
BRANCH   1  18
HETATM   18  C   UNK N   1      28.581  18.617   4.803  0.00  0.00     0.012 C 
HETATM   19  C   UNK N   1      29.353  17.526   4.708  0.00  0.00     0.012 C 
BRANCH  19  20
HETATM   20  C   UNK N   1      30.779  17.455   5.034  0.00  0.00    -0.036 A 
HETATM   21  C   UNK N   1      31.138  17.194   6.361  0.00  0.00     0.011 A 
HETATM   22  C   UNK N   1      32.483  17.137   6.729  0.00  0.00     0.001 A 
HETATM   23  C   UNK N   1      33.477  17.349   5.771  0.00  0.00     0.000 A 
HETATM   24  C   UNK N   1      33.124  17.615   4.443  0.00  0.00     0.001 A 
HETATM   25  C   UNK N   1      31.776  17.667   4.071  0.00  0.00     0.011 A 
ENDBRANCH  19  20
ENDBRANCH   1  18
TORSDOF 8
ENDMDL
MODEL 3
REMARK VINA RESULT:      -6.6      5.960     11.893
REMARK  8 active torsions:
REMARK  status: ('A' for Active; 'I' for Inactive)
REMARK    1  A    between atoms: C_6  and  C_7 
REMARK    2  A    between atoms: C_8  and  C_9 
REMARK    3  A    between atoms: C_12  and  N_15 
REMARK       I    between atoms: N_15  and  C_16 
REMARK    4  A    between atoms: C_16  and  C_17 
REMARK    5  A    between atoms: C_17  and  C_18 
REMARK    6  A    between atoms: C_18  and  C_19 
REMARK    7  A    between atoms: C_19  and  C_20 
REMARK    8  A    between atoms: C_20  and  O_23 
ROOT
HETATM    1  C   UNK N   1      28.986  18.207   7.200  0.00  0.00    -0.036 A 
HETATM    2  C   UNK N   1      29.839  17.312   6.539  0.00  0.00     0.013 A 
HETATM    3  C   UNK N   1      31.031  16.891   7.157  0.00  0.00     0.030 A 
HETATM    4  C   UNK N   1      31.370  17.361   8.435  0.00  0.00     0.034 A 
HETATM    5  C   UNK N   1      30.503  18.247   9.084  0.00  0.00     0.030 A 
HETATM    6  C   UNK N   1      29.332  18.667   8.477  0.00  0.00     0.013 A 
ENDROOT
BRANCH   4   7
HETATM    7  N   UNK N   1      32.576  16.918   9.062  0.00  0.00    -0.327 N 
HETATM    8  C   UNK N   1      33.812  17.453   8.843  0.00  0.00     0.222 C 
HETATM    9  O   UNK N   1      33.968  18.363   8.036  0.00  0.00    -0.273 OA
HETATM   10  H   UNK N   1      32.510  16.170   9.699  0.00  0.00     0.169 HD
BRANCH   8  11
HETATM   11  C   UNK N   1      34.993  16.930   9.611  0.00  0.00     0.103 C 
BRANCH  11  12
HETATM   12  C   UNK N   1      34.625  15.771  10.539  0.00  0.00     0.019 C 
BRANCH  12  13
HETATM   13  C   UNK N   1      35.688  15.573  11.609  0.00  0.00     0.110 C 
BRANCH  13  14
HETATM   14  C   UNK N   1      35.397  14.354  12.424  0.00  0.00     0.139 C 
HETATM   15  O   UNK N   1      36.133  14.039  13.345  0.00  0.00    -0.650 OA
BRANCH  14  16
HETATM   16  O   UNK N   1      34.310  13.611  12.150  0.00  0.00    -0.776 OA
HETATM   17  H   UNK N   1      34.252  13.056  11.397  0.00  0.00     0.167 HD
ENDBRANCH  14  16
ENDBRANCH  13  14
ENDBRANCH  12  13
ENDBRANCH  11  12
ENDBRANCH   8  11
ENDBRANCH   4   7
BRANCH   1  18
HETATM   18  C   UNK N   1      27.729  18.669   6.580  0.00  0.00     0.012 C 
HETATM   19  C   UNK N   1      27.667  18.778   5.245  0.00  0.00     0.012 C 
BRANCH  19  20
HETATM   20  C   UNK N   1      26.525  19.284   4.480  0.00  0.00    -0.036 A 
HETATM   21  C   UNK N   1      25.256  18.776   4.780  0.00  0.00     0.011 A 
HETATM   22  C   UNK N   1      24.137  19.209   4.067  0.00  0.00     0.001 A 
HETATM   23  C   UNK N   1      24.283  20.148   3.045  0.00  0.00     0.000 A 
HETATM   24  C   UNK N   1      25.550  20.658   2.738  0.00  0.00     0.001 A 
HETATM   25  C   UNK N   1      26.672  20.229   3.455  0.00  0.00     0.011 A 
ENDBRANCH  19  20
ENDBRANCH   1  18
TORSDOF 8
ENDMDL
MODEL 4
REMARK VINA RESULT:      -6.5      3.774      9.808
REMARK  8 active torsions:
REMARK  status: ('A' for Active; 'I' for Inactive)
REMARK    1  A    between atoms: C_6  and  C_7 
REMARK    2  A    between atoms: C_8  and  C_9 
REMARK    3  A    between atoms: C_12  and  N_15 
REMARK       I    between atoms: N_15  and  C_16 
REMARK    4  A    between atoms: C_16  and  C_17 
REMARK    5  A    between atoms: C_17  and  C_18 
REMARK    6  A    between atoms: C_18  and  C_19 
REMARK    7  A    between atoms: C_19  and  C_20 
REMARK    8  A    between atoms: C_20  and  O_23 
ROOT
HETATM    1  C   UNK N   1      35.165  15.254   9.096  0.00  0.00    -0.036 A 
HETATM    2  C   UNK N   1      35.815  14.024   9.269  0.00  0.00     0.013 A 
HETATM    3  C   UNK N   1      36.340  13.677  10.527  0.00  0.00     0.030 A 
HETATM    4  C   UNK N   1      36.214  14.557  11.614  0.00  0.00     0.034 A 
HETATM    5  C   UNK N   1      35.555  15.777  11.425  0.00  0.00     0.030 A 
HETATM    6  C   UNK N   1      35.042  16.123  10.187  0.00  0.00     0.013 A 
ENDROOT
BRANCH   4   7
HETATM    7  N   UNK N   1      36.738  14.192  12.892  0.00  0.00    -0.327 N 
HETATM    8  C   UNK N   1      36.057  13.491  13.844  0.00  0.00     0.222 C 
HETATM    9  O   UNK N   1      34.894  13.149  13.660  0.00  0.00    -0.273 OA
HETATM   10  H   UNK N   1      37.659  14.468  13.102  0.00  0.00     0.169 HD
BRANCH   8  11
HETATM   11  C   UNK N   1      36.745  13.124  15.129  0.00  0.00     0.103 C 
BRANCH  11  12
HETATM   12  C   UNK N   1      36.341  14.031  16.293  0.00  0.00     0.019 C 
BRANCH  12  13
HETATM   13  C   UNK N   1      35.234  13.395  17.119  0.00  0.00     0.110 C 
BRANCH  13  14
HETATM   14  C   UNK N   1      35.249  13.922  18.518  0.00  0.00     0.139 C 
HETATM   15  O   UNK N   1      35.448  13.171  19.458  0.00  0.00    -0.650 OA
BRANCH  14  16
HETATM   16  O   UNK N   1      35.059  15.236  18.738  0.00  0.00    -0.776 OA
HETATM   17  H   UNK N   1      34.208  15.627  18.767  0.00  0.00     0.167 HD
ENDBRANCH  14  16
ENDBRANCH  13  14
ENDBRANCH  12  13
ENDBRANCH  11  12
ENDBRANCH   8  11
ENDBRANCH   4   7
BRANCH   1  18
HETATM   18  C   UNK N   1      34.605  15.648   7.789  0.00  0.00     0.012 C 
HETATM   19  C   UNK N   1      33.545  16.469   7.758  0.00  0.00     0.012 C 
BRANCH  19  20
HETATM   20  C   UNK N   1      32.830  16.899   6.555  0.00  0.00    -0.036 A 
HETATM   21  C   UNK N   1      31.431  16.863   6.574  0.00  0.00     0.011 A 
HETATM   22  C   UNK N   1      30.700  17.242   5.447  0.00  0.00     0.001 A 
HETATM   23  C   UNK N   1      31.367  17.652   4.291  0.00  0.00     0.000 A 
HETATM   24  C   UNK N   1      32.766  17.687   4.264  0.00  0.00     0.001 A 
HETATM   25  C   UNK N   1      33.500  17.312   5.396  0.00  0.00     0.011 A 
ENDBRANCH  19  20
ENDBRANCH   1  18
TORSDOF 8
ENDMDL
MODEL 5
REMARK VINA RESULT:      -6.4      2.877      4.627
REMARK  8 active torsions:
REMARK  status: ('A' for Active; 'I' for Inactive)
REMARK    1  A    between atoms: C_6  and  C_7 
REMARK    2  A    between atoms: C_8  and  C_9 
REMARK    3  A    between atoms: C_12  and  N_15 
REMARK       I    between atoms: N_15  and  C_16 
REMARK    4  A    between atoms: C_16  and  C_17 
REMARK    5  A    between atoms: C_17  and  C_18 
REMARK    6  A    between atoms: C_18  and  C_19 
REMARK    7  A    between atoms: C_19  and  C_20 
REMARK    8  A    between atoms: C_20  and  O_23 
ROOT
HETATM    1  C   UNK N   1      35.540  11.439  17.271  0.00  0.00    -0.036 A 
HETATM    2  C   UNK N   1      36.196  10.845  16.183  0.00  0.00     0.013 A 
HETATM    3  C   UNK N   1      36.562  11.627  15.072  0.00  0.00     0.030 A 
HETATM    4  C   UNK N   1      36.276  13.001  15.048  0.00  0.00     0.034 A 
HETATM    5  C   UNK N   1      35.629  13.578  16.146  0.00  0.00     0.030 A 
HETATM    6  C   UNK N   1      35.264  12.811  17.239  0.00  0.00     0.013 A 
ENDROOT
BRANCH   4   7
HETATM    7  N   UNK N   1      36.663  13.791  13.922  0.00  0.00    -0.327 N 
HETATM    8  C   UNK N   1      35.859  14.082  12.858  0.00  0.00     0.222 C 
HETATM    9  O   UNK N   1      34.720  13.633  12.791  0.00  0.00    -0.273 OA
HETATM   10  H   UNK N   1      37.579  14.153  13.913  0.00  0.00     0.169 HD
BRANCH   8  11
HETATM   11  C   UNK N   1      36.373  14.972  11.762  0.00  0.00     0.103 C 
BRANCH  11  12
HETATM   12  C   UNK N   1      35.413  16.118  11.437  0.00  0.00     0.019 C 
BRANCH  12  13
HETATM   13  C   UNK N   1      34.939  16.036   9.993  0.00  0.00     0.110 C 
BRANCH  13  14
HETATM   14  C   UNK N   1      33.729  15.164   9.883  0.00  0.00     0.139 C 
HETATM   15  O   UNK N   1      33.503  14.553   8.852  0.00  0.00    -0.650 OA
BRANCH  14  16
HETATM   16  O   UNK N   1      32.897  15.040  10.933  0.00  0.00    -0.776 OA
HETATM   17  H   UNK N   1      31.981  14.867  10.835  0.00  0.00     0.167 HD
ENDBRANCH  14  16
ENDBRANCH  13  14
ENDBRANCH  12  13
ENDBRANCH  11  12
ENDBRANCH   8  11
ENDBRANCH   4   7
BRANCH   1  18
HETATM   18  C   UNK N   1      35.142  10.647  18.451  0.00  0.00     0.012 C 
HETATM   19  C   UNK N   1      34.405   9.541  18.271  0.00  0.00     0.012 C 
BRANCH  19  20
HETATM   20  C   UNK N   1      33.872   8.687  19.334  0.00  0.00    -0.036 A 
HETATM   21  C   UNK N   1      33.320   9.307  20.461  0.00  0.00     0.011 A 
HETATM   22  C   UNK N   1      32.816   8.539  21.512  0.00  0.00     0.001 A 
HETATM   23  C   UNK N   1      32.869   7.145  21.444  0.00  0.00     0.000 A 
HETATM   24  C   UNK N   1      33.423   6.519  20.322  0.00  0.00     0.001 A 
HETATM   25  C   UNK N   1      33.924   7.288  19.265  0.00  0.00     0.011 A 
ENDBRANCH  19  20
ENDBRANCH   1  18
TORSDOF 8
ENDMDL
MODEL 6
REMARK VINA RESULT:      -6.2      9.888     13.770
REMARK  8 active torsions:
REMARK  status: ('A' for Active; 'I' for Inactive)
REMARK    1  A    between atoms: C_6  and  C_7 
REMARK    2  A    between atoms: C_8  and  C_9 
REMARK    3  A    between atoms: C_12  and  N_15 
REMARK       I    between atoms: N_15  and  C_16 
REMARK    4  A    between atoms: C_16  and  C_17 
REMARK    5  A    between atoms: C_17  and  C_18 
REMARK    6  A    between atoms: C_18  and  C_19 
REMARK    7  A    between atoms: C_19  and  C_20 
REMARK    8  A    between atoms: C_20  and  O_23 
ROOT
HETATM    1  C   UNK N   1      27.614  18.385   4.610  0.00  0.00    -0.036 A 
HETATM    2  C   UNK N   1      26.833  17.580   3.769  0.00  0.00     0.013 A 
HETATM    3  C   UNK N   1      25.497  17.932   3.503  0.00  0.00     0.030 A 
HETATM    4  C   UNK N   1      24.941  19.088   4.074  0.00  0.00     0.034 A 
HETATM    5  C   UNK N   1      25.739  19.884   4.904  0.00  0.00     0.030 A 
HETATM    6  C   UNK N   1      27.053  19.537   5.171  0.00  0.00     0.013 A 
ENDROOT
BRANCH   4   7
HETATM    7  N   UNK N   1      23.588  19.446   3.789  0.00  0.00    -0.327 N 
HETATM    8  C   UNK N   1      23.202  20.353   2.846  0.00  0.00     0.222 C 
HETATM    9  O   UNK N   1      24.034  20.964   2.184  0.00  0.00    -0.273 OA
HETATM   10  H   UNK N   1      22.881  19.005   4.313  0.00  0.00     0.169 HD
BRANCH   8  11
HETATM   11  C   UNK N   1      21.739  20.598   2.608  0.00  0.00     0.103 C 
BRANCH  11  12
HETATM   12  C   UNK N   1      20.847  19.841   3.593  0.00  0.00     0.019 C 
BRANCH  12  13
HETATM   13  C   UNK N   1      19.946  18.856   2.864  0.00  0.00     0.110 C 
BRANCH  13  14
HETATM   14  C   UNK N   1      20.305  17.448   3.220  0.00  0.00     0.139 C 
HETATM   15  O   UNK N   1      21.474  17.111   3.292  0.00  0.00    -0.650 OA
BRANCH  14  16
HETATM   16  O   UNK N   1      19.331  16.556   3.478  0.00  0.00    -0.776 OA
HETATM   17  H   UNK N   1      19.416  15.889   4.132  0.00  0.00     0.167 HD
ENDBRANCH  14  16
ENDBRANCH  13  14
ENDBRANCH  12  13
ENDBRANCH  11  12
ENDBRANCH   8  11
ENDBRANCH   4   7
BRANCH   1  18
HETATM   18  C   UNK N   1      29.019  18.043   4.909  0.00  0.00     0.012 C 
HETATM   19  C   UNK N   1      29.327  17.580   6.129  0.00  0.00     0.012 C 
BRANCH  19  20
HETATM   20  C   UNK N   1      30.674  17.262   6.608  0.00  0.00    -0.036 A 
HETATM   21  C   UNK N   1      31.715  17.234   5.672  0.00  0.00     0.011 A 
HETATM   22  C   UNK N   1      33.014  16.917   6.072  0.00  0.00     0.001 A 
HETATM   23  C   UNK N   1      33.277  16.617   7.411  0.00  0.00     0.000 A 
HETATM   24  C   UNK N   1      32.240  16.639   8.350  0.00  0.00     0.001 A 
HETATM   25  C   UNK N   1      30.938  16.962   7.951  0.00  0.00     0.011 A 
ENDBRANCH  19  20
ENDBRANCH   1  18
TORSDOF 8
ENDMDL
MODEL 7
REMARK VINA RESULT:      -6.2      1.796      2.327
REMARK  8 active torsions:
REMARK  status: ('A' for Active; 'I' for Inactive)
REMARK    1  A    between atoms: C_6  and  C_7 
REMARK    2  A    between atoms: C_8  and  C_9 
REMARK    3  A    between atoms: C_12  and  N_15 
REMARK       I    between atoms: N_15  and  C_16 
REMARK    4  A    between atoms: C_16  and  C_17 
REMARK    5  A    between atoms: C_17  and  C_18 
REMARK    6  A    between atoms: C_18  and  C_19 
REMARK    7  A    between atoms: C_19  and  C_20 
REMARK    8  A    between atoms: C_20  and  O_23 
ROOT
HETATM    1  C   UNK N   1      35.792  13.527  13.402  0.00  0.00    -0.036 A 
HETATM    2  C   UNK N   1      36.026  14.865  13.052  0.00  0.00     0.013 A 
HETATM    3  C   UNK N   1      35.715  15.318  11.757  0.00  0.00     0.030 A 
HETATM    4  C   UNK N   1      35.170  14.436  10.810  0.00  0.00     0.034 A 
HETATM    5  C   UNK N   1      34.935  13.106  11.179  0.00  0.00     0.030 A 
HETATM    6  C   UNK N   1      35.243  12.657  12.452  0.00  0.00     0.013 A 
ENDROOT
BRANCH   4   7
HETATM    7  N   UNK N   1      34.845  14.905   9.501  0.00  0.00    -0.327 N 
HETATM    8  C   UNK N   1      33.586  15.205   9.068  0.00  0.00     0.222 C 
HETATM    9  O   UNK N   1      32.616  15.049   9.802  0.00  0.00    -0.273 OA
HETATM   10  H   UNK N   1      35.585  15.021   8.862  0.00  0.00     0.169 HD
BRANCH   8  11
HETATM   11  C   UNK N   1      33.387  15.744   7.680  0.00  0.00     0.103 C 
BRANCH  11  12
HETATM   12  C   UNK N   1      31.975  16.287   7.455  0.00  0.00     0.019 C 
BRANCH  12  13
HETATM   13  C   UNK N   1      31.843  17.700   8.004  0.00  0.00     0.110 C 
BRANCH  13  14
HETATM   14  C   UNK N   1      30.467  17.931   8.542  0.00  0.00     0.139 C 
HETATM   15  O   UNK N   1      29.493  17.790   7.823  0.00  0.00    -0.650 OA
BRANCH  14  16
HETATM   16  O   UNK N   1      30.304  18.280   9.832  0.00  0.00    -0.776 OA
HETATM   17  H   UNK N   1      29.476  18.232  10.268  0.00  0.00     0.167 HD
ENDBRANCH  14  16
ENDBRANCH  13  14
ENDBRANCH  12  13
ENDBRANCH  11  12
ENDBRANCH   8  11
ENDBRANCH   4   7
BRANCH   1  18
HETATM   18  C   UNK N   1      36.107  13.021  14.752  0.00  0.00     0.012 C 
HETATM   19  C   UNK N   1      35.125  12.946  15.662  0.00  0.00     0.012 C 
BRANCH  19  20
HETATM   20  C   UNK N   1      35.282  12.535  17.058  0.00  0.00    -0.036 A 
HETATM   21  C   UNK N   1      35.607  11.199  17.317  0.00  0.00     0.011 A 
HETATM   22  C   UNK N   1      35.748  10.749  18.631  0.00  0.00     0.001 A 
HETATM   23  C   UNK N   1      35.557  11.634  19.694  0.00  0.00     0.000 A 
HETATM   24  C   UNK N   1      35.228  12.970  19.442  0.00  0.00     0.001 A 
HETATM   25  C   UNK N   1      35.091  13.424  18.125  0.00  0.00     0.011 A 
ENDBRANCH  19  20
ENDBRANCH   1  18
TORSDOF 8
ENDMDL
MODEL 8
REMARK VINA RESULT:      -6.1     16.392     20.598
REMARK  8 active torsions:
REMARK  status: ('A' for Active; 'I' for Inactive)
REMARK    1  A    between atoms: C_6  and  C_7 
REMARK    2  A    between atoms: C_8  and  C_9 
REMARK    3  A    between atoms: C_12  and  N_15 
REMARK       I    between atoms: N_15  and  C_16 
REMARK    4  A    between atoms: C_16  and  C_17 
REMARK    5  A    between atoms: C_17  and  C_18 
REMARK    6  A    between atoms: C_18  and  C_19 
REMARK    7  A    between atoms: C_19  and  C_20 
REMARK    8  A    between atoms: C_20  and  O_23 
ROOT
HETATM    1  C   UNK N   1      29.701  23.061  -3.763  0.00  0.00    -0.036 A 
HETATM    2  C   UNK N   1      30.603  22.802  -2.721  0.00  0.00     0.013 A 
HETATM    3  C   UNK N   1      31.554  21.774  -2.854  0.00  0.00     0.030 A 
HETATM    4  C   UNK N   1      31.607  21.006  -4.028  0.00  0.00     0.034 A 
HETATM    5  C   UNK N   1      30.704  21.284  -5.061  0.00  0.00     0.030 A 
HETATM    6  C   UNK N   1      29.765  22.293  -4.931  0.00  0.00     0.013 A 
ENDROOT
BRANCH   4   7
HETATM    7  N   UNK N   1      32.584  19.972  -4.162  0.00  0.00    -0.327 N 
HETATM    8  C   UNK N   1      33.872  20.163  -4.571  0.00  0.00     0.222 C 
HETATM    9  O   UNK N   1      34.270  21.276  -4.892  0.00  0.00    -0.273 OA
HETATM   10  H   UNK N   1      32.307  19.053  -3.943  0.00  0.00     0.169 HD
BRANCH   8  11
HETATM   11  C   UNK N   1      34.816  18.994  -4.615  0.00  0.00     0.103 C 
BRANCH  11  12
HETATM   12  C   UNK N   1      34.259  17.760  -3.904  0.00  0.00     0.019 C 
BRANCH  12  13
HETATM   13  C   UNK N   1      35.050  16.515  -4.276  0.00  0.00     0.110 C 
BRANCH  13  14
HETATM   14  C   UNK N   1      35.258  15.643  -3.079  0.00  0.00     0.139 C 
HETATM   15  O   UNK N   1      36.299  15.704  -2.446  0.00  0.00    -0.650 OA
BRANCH  14  16
HETATM   16  O   UNK N   1      34.284  14.800  -2.690  0.00  0.00    -0.776 OA
HETATM   17  H   UNK N   1      34.336  14.296  -1.901  0.00  0.00     0.167 HD
ENDBRANCH  14  16
ENDBRANCH  13  14
ENDBRANCH  12  13
ENDBRANCH  11  12
ENDBRANCH   8  11
ENDBRANCH   4   7
BRANCH   1  18
HETATM   18  C   UNK N   1      28.691  24.132  -3.654  0.00  0.00     0.012 C 
HETATM   19  C   UNK N   1      27.946  24.432  -4.728  0.00  0.00     0.012 C 
BRANCH  19  20
HETATM   20  C   UNK N   1      26.955  25.507  -4.808  0.00  0.00    -0.036 A 
HETATM   21  C   UNK N   1      26.809  26.350  -3.701  0.00  0.00     0.011 A 
HETATM   22  C   UNK N   1      25.864  27.378  -3.717  0.00  0.00     0.001 A 
HETATM   23  C   UNK N   1      25.054  27.561  -4.840  0.00  0.00     0.000 A 
HETATM   24  C   UNK N   1      25.193  26.719  -5.948  0.00  0.00     0.001 A 
HETATM   25  C   UNK N   1      26.144  25.692  -5.936  0.00  0.00     0.011 A 
ENDBRANCH  19  20
ENDBRANCH   1  18
TORSDOF 8
ENDMDL
MODEL 9
REMARK VINA RESULT:      -6.0      9.146     14.328
REMARK  8 active torsions:
REMARK  status: ('A' for Active; 'I' for Inactive)
REMARK    1  A    between atoms: C_6  and  C_7 
REMARK    2  A    between atoms: C_8  and  C_9 
REMARK    3  A    between atoms: C_12  and  N_15 
REMARK       I    between atoms: N_15  and  C_16 
REMARK    4  A    between atoms: C_16  and  C_17 
REMARK    5  A    between atoms: C_17  and  C_18 
REMARK    6  A    between atoms: C_18  and  C_19 
REMARK    7  A    between atoms: C_19  and  C_20 
REMARK    8  A    between atoms: C_20  and  O_23 
ROOT
HETATM    1  C   UNK N   1      25.580  19.083   4.824  0.00  0.00    -0.036 A 
HETATM    2  C   UNK N   1      26.352  20.147   5.311  0.00  0.00     0.013 A 
HETATM    3  C   UNK N   1      27.543  19.887   6.014  0.00  0.00     0.030 A 
HETATM    4  C   UNK N   1      27.964  18.565   6.229  0.00  0.00     0.034 A 
HETATM    5  C   UNK N   1      27.186  17.516   5.727  0.00  0.00     0.030 A 
HETATM    6  C   UNK N   1      26.011  17.769   5.039  0.00  0.00     0.013 A 
ENDROOT
BRANCH   4   7
HETATM    7  N   UNK N   1      29.181  18.309   6.932  0.00  0.00    -0.327 N 
HETATM    8  C   UNK N   1      29.295  18.219   8.289  0.00  0.00     0.222 C 
HETATM    9  O   UNK N   1      28.322  18.393   9.013  0.00  0.00    -0.273 OA
HETATM   10  H   UNK N   1      29.999  18.190   6.397  0.00  0.00     0.169 HD
BRANCH   8  11
HETATM   11  C   UNK N   1      30.628  17.890   8.900  0.00  0.00     0.103 C 
BRANCH  11  12
HETATM   12  C   UNK N   1      31.653  17.427   7.864  0.00  0.00     0.019 C 
BRANCH  12  13
HETATM   13  C   UNK N   1      32.990  18.123   8.074  0.00  0.00     0.110 C 
BRANCH  13  14
HETATM   14  C   UNK N   1      34.074  17.424   7.317  0.00  0.00     0.139 C 
HETATM   15  O   UNK N   1      34.362  17.778   6.186  0.00  0.00    -0.650 OA
BRANCH  14  16
HETATM   16  O   UNK N   1      34.746  16.411   7.895  0.00  0.00    -0.776 OA
HETATM   17  H   UNK N   1      34.766  15.547   7.534  0.00  0.00     0.167 HD
ENDBRANCH  14  16
ENDBRANCH  13  14
ENDBRANCH  12  13
ENDBRANCH  11  12
ENDBRANCH   8  11
ENDBRANCH   4   7
BRANCH   1  18
HETATM   18  C   UNK N   1      24.326  19.322   4.083  0.00  0.00     0.012 C 
HETATM   19  C   UNK N   1      23.232  18.623   4.419  0.00  0.00     0.012 C 
BRANCH  19  20
HETATM   20  C   UNK N   1      21.934  18.689   3.743  0.00  0.00    -0.036 A 
HETATM   21  C   UNK N   1      21.638  19.836   2.998  0.00  0.00     0.011 A 
HETATM   22  C   UNK N   1      20.407  19.959   2.352  0.00  0.00     0.001 A 
HETATM   23  C   UNK N   1      19.462  18.936   2.454  0.00  0.00     0.000 A 
HETATM   24  C   UNK N   1      19.751  17.788   3.200  0.00  0.00     0.001 A 
HETATM   25  C   UNK N   1      20.986  17.661   3.845  0.00  0.00     0.011 A 
ENDBRANCH  19  20
ENDBRANCH   1  18
TORSDOF 8
ENDMDL
