MODEL 1
REMARK VINA RESULT:      -7.6      0.000      0.000
REMARK  6 active torsions:
REMARK  status: ('A' for Active; 'I' for Inactive)
REMARK    1  A    between atoms: N_8  and  C_7 
REMARK    2  A    between atoms: C_9  and  N_8 
REMARK    3  A    between atoms: N_21  and  C_20 
REMARK       I    between atoms: C_22  and  N_21 
REMARK    4  A    between atoms: C_24  and  C_22 
REMARK    5  A    between atoms: C_26  and  C_25 
REMARK    6  A    between atoms: N_27  and  C_26 
ROOT
HETATM    1  C   UNK N   1      29.081  17.351   6.210  0.00  0.00     0.119 A 
HETATM    2  C   UNK N   1      28.272  18.477   6.101  0.00  0.00     0.037 A 
HETATM    3  C   UNK N   1      27.733  18.846   4.869  0.00  0.00     0.047 A 
HETATM    4  N   UNK N   1      29.592  17.013   7.428  0.00  0.00    -0.338 N 
ATOM      5  HN  UNK N   1      30.187  16.190   7.513  1.00  0.00     0.168 HD
HETATM    6  C   UNK N   1      29.320  17.761   8.534  0.00  0.00     0.182 A 
HETATM    7  N   UNK N   1      28.538  18.872   8.439  0.00  0.00    -0.352 N 
ATOM      8  HN  UNK N   1      28.347  19.430   9.271  1.00  0.00     0.166 HD
HETATM    9  C   UNK N   1      28.012  19.247   7.242  0.00  0.00     0.047 A 
HETATM   10  C   UNK N   1      27.228  20.398   7.134  0.00  0.00     0.033 A 
HETATM   11  C   UNK N   1      26.703  20.768   5.884  0.00  0.00     0.032 A 
HETATM   12  C   UNK N   1      26.931  19.975   4.746  0.00  0.00     0.036 A 
ENDROOT
BRANCH  12  13
HETATM   13  N   UNK N   1      26.455  20.289   3.438  0.00  0.00    -0.324 N 
HETATM   14  C   UNK N   1      25.223  20.254   2.852  0.00  0.00     0.245 C 
HETATM   15  O   UNK N   1      25.122  20.705   1.724  0.00  0.00    -0.268 OA
HETATM   16  H   UNK N   1      27.167  20.594   2.829  0.00  0.00     0.169 HD
BRANCH  14  17
HETATM   17  C   UNK N   1      23.988  19.704   3.460  0.00  0.00     0.072 C 
HETATM   18  C   UNK N   1      22.744  20.048   3.146  0.00  0.00     0.008 C 
BRANCH  18  19
HETATM   19  C   UNK N   1      21.581  19.369   3.784  0.00  0.00     0.299 C 
BRANCH  19  20
HETATM   20  N   UNK N   1      20.346  19.795   3.146  0.00  0.00     0.083 N 
HETATM   21  C   UNK N   1      19.605  18.600   2.791  0.00  0.00     0.309 C 
HETATM   22  C   UNK N   1      20.711  20.457   1.906  0.00  0.00     0.309 C 
ENDBRANCH  19  20
ENDBRANCH  18  19
ENDBRANCH  14  17
ENDBRANCH  12  13
BRANCH   1  23
HETATM   23  N   UNK N   1      29.370  16.596   5.039  0.00  0.00    -0.342 N 
HETATM   24  H   UNK N   1      28.610  16.124   4.627  0.00  0.00     0.167 HD
BRANCH  23  25
HETATM   25  C   UNK N   1      30.622  16.446   4.397  0.00  0.00     0.034 A 
HETATM   26  C   UNK N   1      31.030  15.227   3.839  0.00  0.00     0.048 A 
HETATM   27  C   UNK N   1      32.281  15.120   3.229  0.00  0.00     0.013 A 
HETATM   28  C   UNK N   1      33.133  16.226   3.178  0.00  0.00     0.019 A 
HETATM   29 Br   UNK N   1      32.821  13.462   2.469  0.00  0.00    -0.051 Br
HETATM   30  C   UNK N   1      32.732  17.443   3.736  0.00  0.00     0.004 A 
HETATM   31  C   UNK N   1      31.479  17.550   4.343  0.00  0.00     0.029 A 
ENDBRANCH  23  25
ENDBRANCH   1  23
TORSDOF 6
ENDMDL
MODEL 2
REMARK VINA RESULT:      -7.1      4.990      9.957
REMARK  6 active torsions:
REMARK  status: ('A' for Active; 'I' for Inactive)
REMARK    1  A    between atoms: N_8  and  C_7 
REMARK    2  A    between atoms: C_9  and  N_8 
REMARK    3  A    between atoms: N_21  and  C_20 
REMARK       I    between atoms: C_22  and  N_21 
REMARK    4  A    between atoms: C_24  and  C_22 
REMARK    5  A    between atoms: C_26  and  C_25 
REMARK    6  A    between atoms: N_27  and  C_26 
ROOT
HETATM    1  C   UNK N   1      29.656  16.232   6.126  0.00  0.00     0.119 A 
HETATM    2  C   UNK N   1      31.038  16.125   6.003  0.00  0.00     0.037 A 
HETATM    3  C   UNK N   1      31.877  17.074   6.584  0.00  0.00     0.047 A 
HETATM    4  N   UNK N   1      28.860  15.288   5.549  0.00  0.00    -0.338 N 
ATOM      5  HN  UNK N   1      27.847  15.363   5.634  1.00  0.00     0.168 HD
HETATM    6  C   UNK N   1      29.399  14.244   4.859  0.00  0.00     0.182 A 
HETATM    7  N   UNK N   1      30.750  14.132   4.721  0.00  0.00    -0.352 N 
ATOM      8  HN  UNK N   1      31.143  13.352   4.196  1.00  0.00     0.166 HD
HETATM    9  C   UNK N   1      31.579  15.055   5.278  0.00  0.00     0.047 A 
HETATM   10  C   UNK N   1      32.964  14.959   5.122  0.00  0.00     0.033 A 
HETATM   11  C   UNK N   1      33.799  15.931   5.699  0.00  0.00     0.032 A 
HETATM   12  C   UNK N   1      33.259  16.982   6.460  0.00  0.00     0.036 A 
ENDROOT
BRANCH  12  13
HETATM   13  N   UNK N   1      34.031  18.020   7.061  0.00  0.00    -0.324 N 
HETATM   14  C   UNK N   1      34.603  18.176   8.291  0.00  0.00     0.245 C 
HETATM   15  O   UNK N   1      35.314  19.151   8.463  0.00  0.00    -0.268 OA
HETATM   16  H   UNK N   1      34.182  18.788   6.462  0.00  0.00     0.169 HD
BRANCH  14  17
HETATM   17  C   UNK N   1      34.429  17.268   9.450  0.00  0.00     0.072 C 
HETATM   18  C   UNK N   1      34.870  16.018   9.533  0.00  0.00     0.008 C 
BRANCH  18  19
HETATM   19  C   UNK N   1      34.690  15.229  10.785  0.00  0.00     0.299 C 
BRANCH  19  20
HETATM   20  N   UNK N   1      35.781  14.280  10.934  0.00  0.00     0.083 N 
HETATM   21  C   UNK N   1      36.870  14.734  10.090  0.00  0.00     0.309 C 
HETATM   22  C   UNK N   1      35.323  13.011  10.396  0.00  0.00     0.309 C 
ENDBRANCH  19  20
ENDBRANCH  18  19
ENDBRANCH  14  17
ENDBRANCH  12  13
BRANCH   1  23
HETATM   23  N   UNK N   1      29.114  17.342   6.833  0.00  0.00    -0.342 N 
HETATM   24  H   UNK N   1      29.214  17.325   7.812  0.00  0.00     0.167 HD
BRANCH  23  25
HETATM   25  C   UNK N   1      28.447  18.466   6.291  0.00  0.00     0.034 A 
HETATM   26  C   UNK N   1      27.713  19.352   7.092  0.00  0.00     0.048 A 
HETATM   27  C   UNK N   1      27.057  20.439   6.513  0.00  0.00     0.013 A 
HETATM   28  C   UNK N   1      27.127  20.646   5.133  0.00  0.00     0.019 A 
HETATM   29 Br   UNK N   1      26.069  21.639   7.611  0.00  0.00    -0.051 Br
HETATM   30  C   UNK N   1      27.855  19.764   4.331  0.00  0.00     0.004 A 
HETATM   31  C   UNK N   1      28.513  18.678   4.910  0.00  0.00     0.029 A 
ENDBRANCH  23  25
ENDBRANCH   1  23
TORSDOF 6
ENDMDL
MODEL 3
REMARK VINA RESULT:      -7.1      3.925      6.367
REMARK  6 active torsions:
REMARK  status: ('A' for Active; 'I' for Inactive)
REMARK    1  A    between atoms: N_8  and  C_7 
REMARK    2  A    between atoms: C_9  and  N_8 
REMARK    3  A    between atoms: N_21  and  C_20 
REMARK       I    between atoms: C_22  and  N_21 
REMARK    4  A    between atoms: C_24  and  C_22 
REMARK    5  A    between atoms: C_26  and  C_25 
REMARK    6  A    between atoms: N_27  and  C_26 
ROOT
HETATM    1  C   UNK N   1      28.670  17.399   7.667  0.00  0.00     0.119 A 
HETATM    2  C   UNK N   1      30.033  17.221   7.455  0.00  0.00     0.037 A 
HETATM    3  C   UNK N   1      30.565  17.290   6.168  0.00  0.00     0.047 A 
HETATM    4  N   UNK N   1      28.179  17.328   8.937  0.00  0.00    -0.338 N 
ATOM      5  HN  UNK N   1      27.180  17.456   9.098  1.00  0.00     0.168 HD
HETATM    6  C   UNK N   1      29.003  17.088   9.995  0.00  0.00     0.182 A 
HETATM    7  N   UNK N   1      30.338  16.901   9.800  0.00  0.00    -0.352 N 
ATOM      8  HN  UNK N   1      30.945  16.713  10.598  1.00  0.00     0.166 HD
HETATM    9  C   UNK N   1      30.868  16.959   8.549  0.00  0.00     0.047 A 
HETATM   10  C   UNK N   1      32.233  16.745   8.339  0.00  0.00     0.033 A 
HETATM   11  C   UNK N   1      32.754  16.802   7.036  0.00  0.00     0.032 A 
HETATM   12  C   UNK N   1      31.925  17.103   5.942  0.00  0.00     0.036 A 
ENDROOT
BRANCH  12  13
HETATM   13  N   UNK N   1      32.366  17.159   4.587  0.00  0.00    -0.324 N 
HETATM   14  C   UNK N   1      31.849  16.700   3.410  0.00  0.00     0.245 C 
HETATM   15  O   UNK N   1      32.423  17.015   2.381  0.00  0.00    -0.268 OA
HETATM   16  H   UNK N   1      33.227  17.626   4.478  0.00  0.00     0.169 HD
BRANCH  14  17
HETATM   17  C   UNK N   1      30.652  15.838   3.265  0.00  0.00     0.072 C 
HETATM   18  C   UNK N   1      29.490  16.201   2.735  0.00  0.00     0.008 C 
BRANCH  18  19
HETATM   19  C   UNK N   1      28.381  15.217   2.583  0.00  0.00     0.299 C 
BRANCH  19  20
HETATM   20  N   UNK N   1      27.113  15.843   2.921  0.00  0.00     0.083 N 
HETATM   21  C   UNK N   1      26.634  15.225   4.143  0.00  0.00     0.309 C 
HETATM   22  C   UNK N   1      26.172  15.499   1.870  0.00  0.00     0.309 C 
ENDBRANCH  19  20
ENDBRANCH  18  19
ENDBRANCH  14  17
ENDBRANCH  12  13
BRANCH   1  23
HETATM   23  N   UNK N   1      27.824  17.628   6.546  0.00  0.00    -0.342 N 
HETATM   24  H   UNK N   1      27.521  16.828   6.059  0.00  0.00     0.167 HD
BRANCH  23  25
HETATM   25  C   UNK N   1      27.367  18.872   6.052  0.00  0.00     0.034 A 
HETATM   26  C   UNK N   1      26.636  18.976   4.861  0.00  0.00     0.048 A 
HETATM   27  C   UNK N   1      26.218  20.227   4.403  0.00  0.00     0.013 A 
HETATM   28  C   UNK N   1      26.532  21.379   5.127  0.00  0.00     0.019 A 
HETATM   29 Br   UNK N   1      25.221  20.354   2.787  0.00  0.00    -0.051 Br
HETATM   30  C   UNK N   1      27.263  21.281   6.313  0.00  0.00     0.004 A 
HETATM   31  C   UNK N   1      27.678  20.030   6.773  0.00  0.00     0.029 A 
ENDBRANCH  23  25
ENDBRANCH   1  23
TORSDOF 6
ENDMDL
MODEL 4
REMARK VINA RESULT:      -7.0      7.577     10.759
REMARK  6 active torsions:
REMARK  status: ('A' for Active; 'I' for Inactive)
REMARK    1  A    between atoms: N_8  and  C_7 
REMARK    2  A    between atoms: C_9  and  N_8 
REMARK    3  A    between atoms: N_21  and  C_20 
REMARK       I    between atoms: C_22  and  N_21 
REMARK    4  A    between atoms: C_24  and  C_22 
REMARK    5  A    between atoms: C_26  and  C_25 
REMARK    6  A    between atoms: N_27  and  C_26 
ROOT
HETATM    1  C   UNK N   1      36.894  14.336  11.169  0.00  0.00     0.119 A 
HETATM    2  C   UNK N   1      36.180  14.686  10.028  0.00  0.00     0.037 A 
HETATM    3  C   UNK N   1      35.077  15.535  10.114  0.00  0.00     0.047 A 
HETATM    4  N   UNK N   1      37.970  13.506  11.053  0.00  0.00    -0.338 N 
ATOM      5  HN  UNK N   1      38.495  13.245  11.886  1.00  0.00     0.168 HD
HETATM    6  C   UNK N   1      38.353  13.021   9.839  0.00  0.00     0.182 A 
HETATM    7  N   UNK N   1      37.656  13.347   8.715  0.00  0.00    -0.352 N 
ATOM      8  HN  UNK N   1      37.946  12.971   7.813  1.00  0.00     0.166 HD
HETATM    9  C   UNK N   1      36.574  14.168   8.787  0.00  0.00     0.047 A 
HETATM   10  C   UNK N   1      35.841  14.488   7.642  0.00  0.00     0.033 A 
HETATM   11  C   UNK N   1      34.722  15.332   7.744  0.00  0.00     0.032 A 
HETATM   12  C   UNK N   1      34.349  15.884   8.982  0.00  0.00     0.036 A 
ENDROOT
BRANCH  12  13
HETATM   13  N   UNK N   1      33.218  16.729   9.178  0.00  0.00    -0.324 N 
HETATM   14  C   UNK N   1      32.330  17.325   8.329  0.00  0.00     0.245 C 
HETATM   15  O   UNK N   1      31.380  17.907   8.824  0.00  0.00    -0.268 OA
HETATM   16  H   UNK N   1      33.039  16.925  10.127  0.00  0.00     0.169 HD
BRANCH  14  17
HETATM   17  C   UNK N   1      32.421  17.341   6.850  0.00  0.00     0.072 C 
HETATM   18  C   UNK N   1      31.408  17.185   6.005  0.00  0.00     0.008 C 
BRANCH  18  19
HETATM   19  C   UNK N   1      31.620  17.290   4.533  0.00  0.00     0.299 C 
BRANCH  19  20
HETATM   20  N   UNK N   1      31.290  16.027   3.893  0.00  0.00     0.083 N 
HETATM   21  C   UNK N   1      32.461  15.595   3.155  0.00  0.00     0.309 C 
HETATM   22  C   UNK N   1      30.246  16.300   2.920  0.00  0.00     0.309 C 
ENDBRANCH  19  20
ENDBRANCH  18  19
ENDBRANCH  14  17
ENDBRANCH  12  13
BRANCH   1  23
HETATM   23  N   UNK N   1      36.465  14.838  12.429  0.00  0.00    -0.342 N 
HETATM   24  H   UNK N   1      36.388  15.816  12.505  0.00  0.00     0.167 HD
BRANCH  23  25
HETATM   25  C   UNK N   1      36.135  14.092  13.586  0.00  0.00     0.034 A 
HETATM   26  C   UNK N   1      35.249  13.007  13.543  0.00  0.00     0.048 A 
HETATM   27  C   UNK N   1      34.939  12.310  14.712  0.00  0.00     0.013 A 
HETATM   28  C   UNK N   1      35.507  12.694  15.929  0.00  0.00     0.019 A 
HETATM   29 Br   UNK N   1      33.740  10.834  14.640  0.00  0.00    -0.051 Br
HETATM   30  C   UNK N   1      36.389  13.777  15.977  0.00  0.00     0.004 A 
HETATM   31  C   UNK N   1      36.701  14.472  14.808  0.00  0.00     0.029 A 
ENDBRANCH  23  25
ENDBRANCH   1  23
TORSDOF 6
ENDMDL
MODEL 5
REMARK VINA RESULT:      -7.0     11.225     14.451
REMARK  6 active torsions:
REMARK  status: ('A' for Active; 'I' for Inactive)
REMARK    1  A    between atoms: N_8  and  C_7 
REMARK    2  A    between atoms: C_9  and  N_8 
REMARK    3  A    between atoms: N_21  and  C_20 
REMARK       I    between atoms: C_22  and  N_21 
REMARK    4  A    between atoms: C_24  and  C_22 
REMARK    5  A    between atoms: C_26  and  C_25 
REMARK    6  A    between atoms: N_27  and  C_26 
ROOT
HETATM    1  C   UNK N   1      26.027  24.459  -6.544  0.00  0.00     0.119 A 
HETATM    2  C   UNK N   1      27.114  23.607  -6.380  0.00  0.00     0.037 A 
HETATM    3  C   UNK N   1      27.846  23.610  -5.194  0.00  0.00     0.047 A 
HETATM    4  N   UNK N   1      25.329  24.431  -7.715  0.00  0.00    -0.338 N 
ATOM      5  HN  UNK N   1      24.532  25.055  -7.840  1.00  0.00     0.168 HD
HETATM    6  C   UNK N   1      25.680  23.582  -8.720  0.00  0.00     0.182 A 
HETATM    7  N   UNK N   1      26.750  22.750  -8.578  0.00  0.00    -0.352 N 
ATOM      8  HN  UNK N   1      27.009  22.124  -9.340  1.00  0.00     0.166 HD
HETATM    9  C   UNK N   1      27.475  22.749  -7.427  0.00  0.00     0.047 A 
HETATM   10  C   UNK N   1      28.587  21.915  -7.283  0.00  0.00     0.033 A 
HETATM   11  C   UNK N   1      29.325  21.939  -6.089  0.00  0.00     0.032 A 
HETATM   12  C   UNK N   1      28.941  22.770  -5.022  0.00  0.00     0.036 A 
ENDROOT
BRANCH  12  13
HETATM   13  N   UNK N   1      29.645  22.873  -3.787  0.00  0.00    -0.324 N 
HETATM   14  C   UNK N   1      30.378  23.864  -3.201  0.00  0.00     0.245 C 
HETATM   15  O   UNK N   1      30.765  23.681  -2.060  0.00  0.00    -0.268 OA
HETATM   16  H   UNK N   1      29.592  22.055  -3.240  0.00  0.00     0.169 HD
BRANCH  14  17
HETATM   17  C   UNK N   1      30.761  25.149  -3.834  0.00  0.00     0.072 C 
HETATM   18  C   UNK N   1      30.131  26.309  -3.685  0.00  0.00     0.008 C 
BRANCH  18  19
HETATM   19  C   UNK N   1      30.658  27.550  -4.323  0.00  0.00     0.299 C 
BRANCH  19  20
HETATM   20  N   UNK N   1      30.429  28.691  -3.451  0.00  0.00     0.083 N 
HETATM   21  C   UNK N   1      30.862  29.877  -4.165  0.00  0.00     0.309 C 
HETATM   22  C   UNK N   1      31.307  28.537  -2.304  0.00  0.00     0.309 C 
ENDBRANCH  19  20
ENDBRANCH  18  19
ENDBRANCH  14  17
ENDBRANCH  12  13
BRANCH   1  23
HETATM   23  N   UNK N   1      25.690  25.353  -5.489  0.00  0.00    -0.342 N 
HETATM   24  H   UNK N   1      25.085  25.000  -4.797  0.00  0.00     0.167 HD
BRANCH  23  25
HETATM   25  C   UNK N   1      26.123  26.689  -5.320  0.00  0.00     0.034 A 
HETATM   26  C   UNK N   1      27.058  27.281  -6.180  0.00  0.00     0.048 A 
HETATM   27  C   UNK N   1      27.470  28.597  -5.967  0.00  0.00     0.013 A 
HETATM   28  C   UNK N   1      26.955  29.328  -4.894  0.00  0.00     0.019 A 
HETATM   29 Br   UNK N   1      28.735  29.392  -7.145  0.00  0.00    -0.051 Br
HETATM   30  C   UNK N   1      26.024  28.742  -4.033  0.00  0.00     0.004 A 
HETATM   31  C   UNK N   1      25.610  27.426  -4.248  0.00  0.00     0.029 A 
ENDBRANCH  23  25
ENDBRANCH   1  23
TORSDOF 6
ENDMDL
MODEL 6
REMARK VINA RESULT:      -7.0      2.042      2.529
REMARK  6 active torsions:
REMARK  status: ('A' for Active; 'I' for Inactive)
REMARK    1  A    between atoms: N_8  and  C_7 
REMARK    2  A    between atoms: C_9  and  N_8 
REMARK    3  A    between atoms: N_21  and  C_20 
REMARK       I    between atoms: C_22  and  N_21 
REMARK    4  A    between atoms: C_24  and  C_22 
REMARK    5  A    between atoms: C_26  and  C_25 
REMARK    6  A    between atoms: N_27  and  C_26 
ROOT
HETATM    1  C   UNK N   1      29.363  17.372   5.959  0.00  0.00     0.119 A 
HETATM    2  C   UNK N   1      28.483  18.450   5.950  0.00  0.00     0.037 A 
HETATM    3  C   UNK N   1      27.885  18.867   4.762  0.00  0.00     0.047 A 
HETATM    4  N   UNK N   1      29.930  16.985   7.136  0.00  0.00    -0.338 N 
ATOM      5  HN  UNK N   1      30.577  16.198   7.148  1.00  0.00     0.168 HD
HETATM    6  C   UNK N   1      29.646  17.637   8.299  0.00  0.00     0.182 A 
HETATM    7  N   UNK N   1      28.795  18.700   8.303  0.00  0.00    -0.352 N 
ATOM      8  HN  UNK N   1      28.596  19.186   9.177  1.00  0.00     0.166 HD
HETATM    9  C   UNK N   1      28.211  19.121   7.149  0.00  0.00     0.047 A 
HETATM   10  C   UNK N   1      27.354  20.225   7.142  0.00  0.00     0.033 A 
HETATM   11  C   UNK N   1      26.770  20.646   5.935  0.00  0.00     0.032 A 
HETATM   12  C   UNK N   1      27.011  19.949   4.739  0.00  0.00     0.036 A 
ENDROOT
BRANCH  12  13
HETATM   13  N   UNK N   1      26.478  20.320   3.469  0.00  0.00    -0.324 N 
HETATM   14  C   UNK N   1      25.225  20.287   2.930  0.00  0.00     0.245 C 
HETATM   15  O   UNK N   1      25.069  20.795   1.832  0.00  0.00    -0.268 OA
HETATM   16  H   UNK N   1      27.158  20.674   2.851  0.00  0.00     0.169 HD
BRANCH  14  17
HETATM   17  C   UNK N   1      24.027  19.676   3.554  0.00  0.00     0.072 C 
HETATM   18  C   UNK N   1      22.767  19.885   3.190  0.00  0.00     0.008 C 
BRANCH  18  19
HETATM   19  C   UNK N   1      21.650  19.154   3.856  0.00  0.00     0.299 C 
BRANCH  19  20
HETATM   20  N   UNK N   1      20.384  19.520   3.243  0.00  0.00     0.083 N 
HETATM   21  C   UNK N   1      20.005  18.441   2.350  0.00  0.00     0.309 C 
HETATM   22  C   UNK N   1      20.627  20.692   2.421  0.00  0.00     0.309 C 
ENDBRANCH  19  20
ENDBRANCH  18  19
ENDBRANCH  14  17
ENDBRANCH  12  13
BRANCH   1  23
HETATM   23  N   UNK N   1      29.661  16.719   4.730  0.00  0.00    -0.342 N 
HETATM   24  H   UNK N   1      30.484  17.007   4.273  0.00  0.00     0.167 HD
BRANCH  23  25
HETATM   25  C   UNK N   1      28.913  15.703   4.091  0.00  0.00     0.034 A 
HETATM   26  C   UNK N   1      28.143  14.781   4.813  0.00  0.00     0.048 A 
HETATM   27  C   UNK N   1      27.432  13.784   4.142  0.00  0.00     0.013 A 
HETATM   28  C   UNK N   1      27.489  13.700   2.749  0.00  0.00     0.019 A 
HETATM   29 Br   UNK N   1      26.385  12.543   5.134  0.00  0.00    -0.051 Br
HETATM   30  C   UNK N   1      28.257  14.615   2.025  0.00  0.00     0.004 A 
HETATM   31  C   UNK N   1      28.966  15.613   2.696  0.00  0.00     0.029 A 
ENDBRANCH  23  25
ENDBRANCH   1  23
TORSDOF 6
ENDMDL
MODEL 7
REMARK VINA RESULT:      -7.0     10.895     13.219
REMARK  6 active torsions:
REMARK  status: ('A' for Active; 'I' for Inactive)
REMARK    1  A    between atoms: N_8  and  C_7 
REMARK    2  A    between atoms: C_9  and  N_8 
REMARK    3  A    between atoms: N_21  and  C_20 
REMARK       I    between atoms: C_22  and  N_21 
REMARK    4  A    between atoms: C_24  and  C_22 
REMARK    5  A    between atoms: C_26  and  C_25 
REMARK    6  A    between atoms: N_27  and  C_26 
ROOT
HETATM    1  C   UNK N   1      27.303  24.255  -4.560  0.00  0.00     0.119 A 
HETATM    2  C   UNK N   1      26.609  25.457  -4.654  0.00  0.00     0.037 A 
HETATM    3  C   UNK N   1      26.863  26.494  -3.758  0.00  0.00     0.047 A 
HETATM    4  N   UNK N   1      27.035  23.260  -5.452  0.00  0.00    -0.338 N 
ATOM      5  HN  UNK N   1      27.540  22.376  -5.387  1.00  0.00     0.168 HD
HETATM    6  C   UNK N   1      26.102  23.427  -6.430  0.00  0.00     0.182 A 
HETATM    7  N   UNK N   1      25.406  24.595  -6.526  0.00  0.00    -0.352 N 
ATOM      8  HN  UNK N   1      24.704  24.707  -7.257  1.00  0.00     0.166 HD
HETATM    9  C   UNK N   1      25.640  25.612  -5.654  0.00  0.00     0.047 A 
HETATM   10  C   UNK N   1      24.915  26.803  -5.733  0.00  0.00     0.033 A 
HETATM   11  C   UNK N   1      25.169  27.835  -4.814  0.00  0.00     0.032 A 
HETATM   12  C   UNK N   1      26.168  27.696  -3.835  0.00  0.00     0.036 A 
ENDROOT
BRANCH  12  13
HETATM   13  N   UNK N   1      26.475  28.683  -2.852  0.00  0.00    -0.324 N 
HETATM   14  C   UNK N   1      27.297  29.773  -2.838  0.00  0.00     0.245 C 
HETATM   15  O   UNK N   1      27.251  30.501  -1.862  0.00  0.00    -0.268 OA
HETATM   16  H   UNK N   1      25.993  28.549  -2.003  0.00  0.00     0.169 HD
BRANCH  14  17
HETATM   17  C   UNK N   1      28.256  30.150  -3.903  0.00  0.00     0.072 C 
HETATM   18  C   UNK N   1      27.989  30.223  -5.202  0.00  0.00     0.008 C 
BRANCH  18  19
HETATM   19  C   UNK N   1      29.027  30.683  -6.168  0.00  0.00     0.299 C 
BRANCH  19  20
HETATM   20  N   UNK N   1      29.103  29.761  -7.290  0.00  0.00     0.083 N 
HETATM   21  C   UNK N   1      28.102  28.733  -7.078  0.00  0.00     0.309 C 
HETATM   22  C   UNK N   1      30.401  29.114  -7.227  0.00  0.00     0.309 C 
ENDBRANCH  19  20
ENDBRANCH  18  19
ENDBRANCH  14  17
ENDBRANCH  12  13
BRANCH   1  23
HETATM   23  N   UNK N   1      28.260  24.093  -3.519  0.00  0.00    -0.342 N 
HETATM   24  H   UNK N   1      27.970  24.361  -2.617  0.00  0.00     0.167 HD
BRANCH  23  25
HETATM   25  C   UNK N   1      29.578  23.592  -3.631  0.00  0.00     0.034 A 
HETATM   26  C   UNK N   1      30.593  24.308  -4.281  0.00  0.00     0.048 A 
HETATM   27  C   UNK N   1      31.876  23.768  -4.381  0.00  0.00     0.013 A 
HETATM   28  C   UNK N   1      32.152  22.511  -3.839  0.00  0.00     0.019 A 
HETATM   29 Br   UNK N   1      33.247  24.752  -5.260  0.00  0.00    -0.051 Br
HETATM   30  C   UNK N   1      31.143  21.792  -3.193  0.00  0.00     0.004 A 
HETATM   31  C   UNK N   1      29.861  22.333  -3.089  0.00  0.00     0.029 A 
ENDBRANCH  23  25
ENDBRANCH   1  23
TORSDOF 6
ENDMDL
MODEL 8
REMARK VINA RESULT:      -6.9      9.098     13.524
REMARK  6 active torsions:
REMARK  status: ('A' for Active; 'I' for Inactive)
REMARK    1  A    between atoms: N_8  and  C_7 
REMARK    2  A    between atoms: C_9  and  N_8 
REMARK    3  A    between atoms: N_21  and  C_20 
REMARK       I    between atoms: C_22  and  N_21 
REMARK    4  A    between atoms: C_24  and  C_22 
REMARK    5  A    between atoms: C_26  and  C_25 
REMARK    6  A    between atoms: N_27  and  C_26 
ROOT
HETATM    1  C   UNK N   1      34.093  13.581  10.003  0.00  0.00     0.119 A 
HETATM    2  C   UNK N   1      35.126  13.155  10.832  0.00  0.00     0.037 A 
HETATM    3  C   UNK N   1      35.508  13.915  11.936  0.00  0.00     0.047 A 
HETATM    4  N   UNK N   1      33.740  12.816   8.932  0.00  0.00    -0.338 N 
ATOM      5  HN  UNK N   1      32.985  13.124   8.320  1.00  0.00     0.168 HD
HETATM    6  C   UNK N   1      34.382  11.644   8.666  0.00  0.00     0.182 A 
HETATM    7  N   UNK N   1      35.402  11.221   9.462  0.00  0.00    -0.352 N 
ATOM      8  HN  UNK N   1      35.882  10.346   9.250  1.00  0.00     0.166 HD
HETATM    9  C   UNK N   1      35.789  11.956  10.539  0.00  0.00     0.047 A 
HETATM   10  C   UNK N   1      36.849  11.539  11.347  0.00  0.00     0.033 A 
HETATM   11  C   UNK N   1      37.235  12.322  12.448  0.00  0.00     0.032 A 
HETATM   12  C   UNK N   1      36.546  13.505  12.766  0.00  0.00     0.036 A 
ENDROOT
BRANCH  12  13
HETATM   13  N   UNK N   1      36.884  14.368  13.849  0.00  0.00    -0.324 N 
HETATM   14  C   UNK N   1      36.932  14.204  15.204  0.00  0.00     0.245 C 
HETATM   15  O   UNK N   1      37.383  15.121  15.868  0.00  0.00    -0.268 OA
HETATM   16  H   UNK N   1      37.137  15.275  13.559  0.00  0.00     0.169 HD
BRANCH  14  17
HETATM   17  C   UNK N   1      36.471  13.008  15.949  0.00  0.00     0.072 C 
HETATM   18  C   UNK N   1      35.259  12.468  15.883  0.00  0.00     0.008 C 
BRANCH  18  19
HETATM   19  C   UNK N   1      34.939  11.220  16.633  0.00  0.00     0.299 C 
BRANCH  19  20
HETATM   20  N   UNK N   1      34.343  10.242  15.737  0.00  0.00     0.083 N 
HETATM   21  C   UNK N   1      35.416   9.414  15.221  0.00  0.00     0.309 C 
HETATM   22  C   UNK N   1      33.788  10.974  14.613  0.00  0.00     0.309 C 
ENDBRANCH  19  20
ENDBRANCH  18  19
ENDBRANCH  14  17
ENDBRANCH  12  13
BRANCH   1  23
HETATM   23  N   UNK N   1      33.450  14.818  10.287  0.00  0.00    -0.342 N 
HETATM   24  H   UNK N   1      33.135  14.943  11.211  0.00  0.00     0.167 HD
BRANCH  23  25
HETATM   25  C   UNK N   1      33.211  15.890   9.394  0.00  0.00     0.034 A 
HETATM   26  C   UNK N   1      32.005  16.019   8.693  0.00  0.00     0.048 A 
HETATM   27  C   UNK N   1      31.818  17.084   7.810  0.00  0.00     0.013 A 
HETATM   28  C   UNK N   1      32.836  18.022   7.619  0.00  0.00     0.019 A 
HETATM   29 Br   UNK N   1      30.173  17.252   6.869  0.00  0.00    -0.051 Br
HETATM   30  C   UNK N   1      34.041  17.896   8.313  0.00  0.00     0.004 A 
HETATM   31  C   UNK N   1      34.226  16.833   9.198  0.00  0.00     0.029 A 
ENDBRANCH  23  25
ENDBRANCH   1  23
TORSDOF 6
ENDMDL
MODEL 9
REMARK VINA RESULT:      -6.8     10.900     13.097
REMARK  6 active torsions:
REMARK  status: ('A' for Active; 'I' for Inactive)
REMARK    1  A    between atoms: N_8  and  C_7 
REMARK    2  A    between atoms: C_9  and  N_8 
REMARK    3  A    between atoms: N_21  and  C_20 
REMARK       I    between atoms: C_22  and  N_21 
REMARK    4  A    between atoms: C_24  and  C_22 
REMARK    5  A    between atoms: C_26  and  C_25 
REMARK    6  A    between atoms: N_27  and  C_26 
ROOT
HETATM    1  C   UNK N   1      27.263  24.165  -4.896  0.00  0.00     0.119 A 
HETATM    2  C   UNK N   1      26.621  25.396  -4.808  0.00  0.00     0.037 A 
HETATM    3  C   UNK N   1      26.946  26.294  -3.793  0.00  0.00     0.047 A 
HETATM    4  N   UNK N   1      26.925  23.308  -5.901  0.00  0.00    -0.338 N 
ATOM      5  HN  UNK N   1      27.392  22.404  -5.969  1.00  0.00     0.168 HD
HETATM    6  C   UNK N   1      25.973  23.641  -6.816  0.00  0.00     0.182 A 
HETATM    7  N   UNK N   1      25.328  24.838  -6.735  0.00  0.00    -0.352 N 
ATOM      8  HN  UNK N   1      24.610  25.074  -7.420  1.00  0.00     0.166 HD
HETATM    9  C   UNK N   1      25.632  25.720  -5.745  0.00  0.00     0.047 A 
HETATM   10  C   UNK N   1      24.958  26.940  -5.643  0.00  0.00     0.033 A 
HETATM   11  C   UNK N   1      25.284  27.831  -4.606  0.00  0.00     0.032 A 
HETATM   12  C   UNK N   1      26.304  27.523  -3.688  0.00  0.00     0.036 A 
ENDROOT
BRANCH  12  13
HETATM   13  N   UNK N   1      26.682  28.357  -2.596  0.00  0.00    -0.324 N 
HETATM   14  C   UNK N   1      27.736  29.196  -2.374  0.00  0.00     0.245 C 
HETATM   15  O   UNK N   1      27.715  29.873  -1.360  0.00  0.00    -0.268 OA
HETATM   16  H   UNK N   1      26.050  28.320  -1.841  0.00  0.00     0.169 HD
BRANCH  14  17
HETATM   17  C   UNK N   1      28.921  29.351  -3.251  0.00  0.00     0.072 C 
HETATM   18  C   UNK N   1      29.903  28.470  -3.398  0.00  0.00     0.008 C 
BRANCH  18  19
HETATM   19  C   UNK N   1      31.009  28.715  -4.368  0.00  0.00     0.299 C 
BRANCH  19  20
HETATM   20  N   UNK N   1      32.281  28.333  -3.776  0.00  0.00     0.083 N 
HETATM   21  C   UNK N   1      32.873  29.530  -3.209  0.00  0.00     0.309 C 
HETATM   22  C   UNK N   1      33.145  27.900  -4.860  0.00  0.00     0.309 C 
ENDBRANCH  19  20
ENDBRANCH  18  19
ENDBRANCH  14  17
ENDBRANCH  12  13
BRANCH   1  23
HETATM   23  N   UNK N   1      28.240  23.828  -3.918  0.00  0.00    -0.342 N 
HETATM   24  H   UNK N   1      27.929  23.795  -2.985  0.00  0.00     0.167 HD
BRANCH  23  25
HETATM   25  C   UNK N   1      29.608  23.534  -4.133  0.00  0.00     0.034 A 
HETATM   26  C   UNK N   1      30.070  22.221  -4.293  0.00  0.00     0.048 A 
HETATM   27  C   UNK N   1      31.430  21.976  -4.487  0.00  0.00     0.013 A 
HETATM   28  C   UNK N   1      32.336  23.038  -4.517  0.00  0.00     0.019 A 
HETATM   29 Br   UNK N   1      32.044  20.189  -4.710  0.00  0.00    -0.051 Br
HETATM   30  C   UNK N   1      31.881  24.349  -4.355  0.00  0.00     0.004 A 
HETATM   31  C   UNK N   1      30.520  24.594  -4.164  0.00  0.00     0.029 A 
ENDBRANCH  23  25
ENDBRANCH   1  23
TORSDOF 6
ENDMDL
