REMARK  6 active torsions:
REMARK  status: ('A' for Active; 'I' for Inactive)
REMARK    1  A    between atoms: N_8  and  C_7 
REMARK    2  A    between atoms: C_9  and  N_8 
REMARK    3  A    between atoms: N_21  and  C_20 
REMARK       I    between atoms: C_22  and  N_21 
REMARK    4  A    between atoms: C_24  and  C_22 
REMARK    5  A    between atoms: C_26  and  C_25 
REMARK    6  A    between atoms: N_27  and  C_26 
ROOT
HETATM    1  C   UNK N   1      -3.705  -0.531  -0.049  0.00  0.00     0.119 A 
HETATM    2  C   UNK N   1      -2.471   0.105   0.038  0.00  0.00     0.037 A 
HETATM    3  C   UNK N   1      -1.291  -0.637   0.061  0.00  0.00     0.047 A 
HETATM    4  N   UNK N   1      -4.842   0.221  -0.072  0.00  0.00    -0.338 N 
ATOM      5  HN  UNK N   1      -5.749  -0.240  -0.134  1.00  0.00     0.168 HD
HETATM    6  C   UNK N   1      -4.784   1.581  -0.013  0.00  0.00     0.182 A 
HETATM    7  N   UNK N   1      -3.583   2.216   0.084  0.00  0.00    -0.352 N 
ATOM      8  HN  UNK N   1      -3.551   3.234   0.136  1.00  0.00     0.166 HD
HETATM    9  C   UNK N   1      -2.425   1.503   0.114  0.00  0.00     0.047 A 
HETATM   10  C   UNK N   1      -1.191   2.147   0.236  0.00  0.00     0.033 A 
HETATM   11  C   UNK N   1      -0.010   1.387   0.274  0.00  0.00     0.032 A 
HETATM   12  C   UNK N   1      -0.052  -0.013   0.158  0.00  0.00     0.036 A 
ENDROOT
BRANCH  12  13
HETATM   13  N   UNK N   1       1.094  -0.860   0.209  0.00  0.00    -0.324 N 
HETATM   14  C   UNK N   1       2.437  -0.632   0.120  0.00  0.00     0.245 C 
HETATM   15  O   UNK N   1       3.184  -1.574   0.322  0.00  0.00    -0.268 OA
HETATM   16  H   UNK N   1       0.869  -1.811   0.334  0.00  0.00     0.169 HD
BRANCH  14  17
HETATM   17  C   UNK N   1       3.077   0.663  -0.214  0.00  0.00     0.072 C 
HETATM   18  C   UNK N   1       2.488   1.691  -0.814  0.00  0.00     0.008 C 
BRANCH  18  19
HETATM   19  C   UNK N   1       3.224   2.969  -1.033  0.00  0.00     0.299 C 
BRANCH  19  20
HETATM   20  N   UNK N   1       3.586   3.558   0.246  0.00  0.00     0.083 N 
HETATM   21  C   UNK N   1       3.205   4.957   0.204  0.00  0.00     0.309 C 
HETATM   22  C   UNK N   1       5.034   3.511   0.345  0.00  0.00     0.309 C 
ENDBRANCH  19  20
ENDBRANCH  18  19
ENDBRANCH  14  17
ENDBRANCH  12  13
BRANCH   1  23
HETATM   23  N   UNK N   1      -3.744  -1.953  -0.089  0.00  0.00    -0.342 N 
HETATM   24  H   UNK N   1      -2.874  -2.411  -0.137  0.00  0.00     0.167 HD
BRANCH  23  25
HETATM   25  C   UNK N   1      -4.889  -2.784  -0.067  0.00  0.00     0.034 A 
HETATM   26  C   UNK N   1      -6.188  -2.259  -0.036  0.00  0.00     0.048 A 
HETATM   27  C   UNK N   1      -7.289  -3.116   0.001  0.00  0.00     0.013 A 
HETATM   28  C   UNK N   1      -7.100  -4.500   0.012  0.00  0.00     0.019 A 
HETATM   29 Br   UNK N   1      -9.048  -2.391   0.036  0.00  0.00    -0.051 Br
HETATM   30  C   UNK N   1      -5.807  -5.028  -0.016  0.00  0.00     0.004 A 
HETATM   31  C   UNK N   1      -4.706  -4.171  -0.056  0.00  0.00     0.029 A 
ENDBRANCH  23  25
ENDBRANCH   1  23
TORSDOF 6
