MODEL 1
REMARK VINA RESULT:      -6.6      0.000      0.000
REMARK  7 active torsions:
REMARK  status: ('A' for Active; 'I' for Inactive)
REMARK    1  A    between atoms: C_28  and  C_12 
REMARK    2  A    between atoms: C_17  and  C_13 
REMARK    3  A    between atoms: C_15  and  O_26 
REMARK    4  A    between atoms: C_16  and  C_27 
REMARK    5  A    between atoms: O_26  and  C_16 
REMARK    6  A    between atoms: C_27  and  C_28 
REMARK    7  A    between atoms: C_27  and  N_29 
ROOT
HETATM    1  N   UNK N   1      25.691  24.838  -6.096  0.00  0.00    -0.372 N 
ATOM      2  HN  UNK N   1      25.209  24.618  -6.968  1.00  0.00     0.164 HD
HETATM    3  C   UNK N   1      27.354  24.299  -4.462  0.00  0.00    -0.008 A 
HETATM    4  C   UNK N   1      26.958  25.418  -3.731  0.00  0.00     0.051 A 
HETATM    5  C   UNK N   1      25.951  26.247  -4.177  0.00  0.00     0.085 A 
HETATM    6  C   UNK N   1      25.322  25.950  -5.394  0.00  0.00     0.124 A 
HETATM    7  C   UNK N   1      26.687  24.012  -5.659  0.00  0.00     0.100 A 
ENDROOT
BRANCH   5   8
HETATM    8  O   UNK N   1      25.650  27.331  -3.426  0.00  0.00    -0.348 OA
BRANCH   8   9
HETATM    9  C   UNK N   1      26.100  28.609  -3.668  0.00  0.00     0.200 C 
BRANCH   9  10
HETATM   10  C   UNK N   1      27.499  28.794  -3.071  0.00  0.00     0.102 C 
BRANCH  10  11
HETATM   11  C   UNK N   1      28.547  29.020  -4.162  0.00  0.00     0.065 C 
BRANCH  11  12
HETATM   12  C   UNK N   1      29.469  27.859  -4.406  0.00  0.00    -0.056 A 
HETATM   13  C   UNK N   1      30.324  27.433  -3.384  0.00  0.00     0.007 A 
HETATM   14  C   UNK N   1      31.220  26.382  -3.611  0.00  0.00     0.001 A 
HETATM   15  C   UNK N   1      31.266  25.757  -4.862  0.00  0.00     0.000 A 
HETATM   16  C   UNK N   1      30.416  26.183  -5.886  0.00  0.00     0.001 A 
HETATM   17  C   UNK N   1      29.525  27.237  -5.662  0.00  0.00     0.007 A 
ENDBRANCH  11  12
ENDBRANCH  10  11
BRANCH  10  18
HETATM   18  N   UNK N   1      27.514  29.896  -2.117  0.00  0.00    -0.424 N 
HETATM   19  H   UNK N   1      28.376  30.374  -1.853  0.00  0.00     0.150 HD
HETATM   20  H   UNK N   1      26.634  30.198  -1.699  0.00  0.00     0.150 HD
ENDBRANCH  10  18
ENDBRANCH   9  10
ENDBRANCH   8   9
ENDBRANCH   5   8
BRANCH   3  21
HETATM   21  C   UNK N   1      28.540  23.554  -4.000  0.00  0.00    -0.024 A 
HETATM   22  C   UNK N   1      29.044  23.644  -2.672  0.00  0.00     0.014 A 
HETATM   23  C   UNK N   1      30.128  22.832  -2.265  0.00  0.00     0.033 A 
HETATM   24  C   UNK N   1      30.645  21.929  -3.198  0.00  0.00     0.060 A 
HETATM   25  N   UNK N   1      31.627  21.025  -3.037  0.00  0.00    -0.300 N 
HETATM   26  C   UNK N   1      30.149  21.842  -4.457  0.00  0.00     0.016 A 
HETATM   27  N   UNK N   1      31.754  20.355  -4.186  0.00  0.00    -0.304 N 
HETATM   28  H   UNK N   1      32.158  20.884  -2.219  0.00  0.00     0.187 HD
HETATM   29  C   UNK N   1      30.854  20.843  -5.066  0.00  0.00     0.034 A 
ATOM     30  HN  UNK N   1      32.418  19.602  -4.367  1.00  0.00     0.186 HD
HETATM   31  C   UNK N   1      30.655  20.336  -6.454  0.00  0.00     0.070 C 
HETATM   32  C   UNK N   1      29.119  22.636  -4.900  0.00  0.00     0.028 A 
ENDBRANCH   3  21
TORSDOF 7
ENDMDL
MODEL 2
REMARK VINA RESULT:      -6.6     21.941     25.107
REMARK  7 active torsions:
REMARK  status: ('A' for Active; 'I' for Inactive)
REMARK    1  A    between atoms: C_28  and  C_12 
REMARK    2  A    between atoms: C_17  and  C_13 
REMARK    3  A    between atoms: C_15  and  O_26 
REMARK    4  A    between atoms: C_16  and  C_27 
REMARK    5  A    between atoms: O_26  and  C_16 
REMARK    6  A    between atoms: C_27  and  C_28 
REMARK    7  A    between atoms: C_27  and  N_29 
ROOT
HETATM    1  N   UNK N   1      33.739  10.447  13.190  0.00  0.00    -0.372 N 
ATOM      2  HN  UNK N   1      33.234   9.604  12.918  1.00  0.00     0.164 HD
HETATM    3  C   UNK N   1      34.574  11.893  14.904  0.00  0.00    -0.008 A 
HETATM    4  C   UNK N   1      35.069  12.738  13.912  0.00  0.00     0.051 A 
HETATM    5  C   UNK N   1      34.916  12.441  12.575  0.00  0.00     0.085 A 
HETATM    6  C   UNK N   1      34.249  11.260  12.218  0.00  0.00     0.124 A 
HETATM    7  C   UNK N   1      33.887  10.736  14.516  0.00  0.00     0.100 A 
ENDROOT
BRANCH   5   8
HETATM    8  O   UNK N   1      35.454  13.295  11.675  0.00  0.00    -0.348 OA
BRANCH   8   9
HETATM    9  C   UNK N   1      36.377  12.950  10.713  0.00  0.00     0.200 C 
BRANCH   9  10
HETATM   10  C   UNK N   1      37.706  12.571  11.373  0.00  0.00     0.102 C 
BRANCH  10  11
HETATM   11  C   UNK N   1      37.949  11.062  11.316  0.00  0.00     0.065 C 
BRANCH  11  12
HETATM   12  C   UNK N   1      37.685  10.328  12.600  0.00  0.00    -0.056 A 
HETATM   13  C   UNK N   1      38.103  10.889  13.812  0.00  0.00     0.007 A 
HETATM   14  C   UNK N   1      37.904  10.196  15.012  0.00  0.00     0.001 A 
HETATM   15  C   UNK N   1      37.291   8.939  15.002  0.00  0.00     0.000 A 
HETATM   16  C   UNK N   1      36.877   8.374  13.794  0.00  0.00     0.001 A 
HETATM   17  C   UNK N   1      37.080   9.062  12.594  0.00  0.00     0.007 A 
ENDBRANCH  11  12
ENDBRANCH  10  11
BRANCH  10  18
HETATM   18  N   UNK N   1      38.815  13.287  10.755  0.00  0.00    -0.424 N 
HETATM   19  H   UNK N   1      38.825  14.304  10.669  0.00  0.00     0.150 HD
HETATM   20  H   UNK N   1      39.606  12.753  10.395  0.00  0.00     0.150 HD
ENDBRANCH  10  18
ENDBRANCH   9  10
ENDBRANCH   8   9
ENDBRANCH   5   8
BRANCH   3  21
HETATM   21  C   UNK N   1      34.915  12.198  16.307  0.00  0.00    -0.024 A 
HETATM   22  C   UNK N   1      34.956  13.523  16.825  0.00  0.00     0.014 A 
HETATM   23  C   UNK N   1      35.197  13.742  18.202  0.00  0.00     0.033 A 
HETATM   24  C   UNK N   1      35.352  12.618  19.018  0.00  0.00     0.060 A 
HETATM   25  N   UNK N   1      35.536  12.565  20.348  0.00  0.00    -0.300 N 
HETATM   26  C   UNK N   1      35.298  11.358  18.515  0.00  0.00     0.016 A 
HETATM   27  N   UNK N   1      35.590  11.277  20.699  0.00  0.00    -0.304 N 
HETATM   28  H   UNK N   1      35.617  13.337  20.954  0.00  0.00     0.187 HD
HETATM   29  C   UNK N   1      35.445  10.525  19.587  0.00  0.00     0.034 A 
ATOM     30  HN  UNK N   1      35.720  10.922  21.647  1.00  0.00     0.186 HD
HETATM   31  C   UNK N   1      35.416   9.035  19.562  0.00  0.00     0.070 C 
HETATM   32  C   UNK N   1      35.099  11.106  17.180  0.00  0.00     0.028 A 
ENDBRANCH   3  21
TORSDOF 7
ENDMDL
MODEL 3
REMARK VINA RESULT:      -6.4     19.935     22.855
REMARK  7 active torsions:
REMARK  status: ('A' for Active; 'I' for Inactive)
REMARK    1  A    between atoms: C_28  and  C_12 
REMARK    2  A    between atoms: C_17  and  C_13 
REMARK    3  A    between atoms: C_15  and  O_26 
REMARK    4  A    between atoms: C_16  and  C_27 
REMARK    5  A    between atoms: O_26  and  C_16 
REMARK    6  A    between atoms: C_27  and  C_28 
REMARK    7  A    between atoms: C_27  and  N_29 
ROOT
HETATM    1  N   UNK N   1      33.765  10.589  13.209  0.00  0.00    -0.372 N 
ATOM      2  HN  UNK N   1      33.187   9.797  12.927  1.00  0.00     0.164 HD
HETATM    3  C   UNK N   1      34.670  11.977  14.936  0.00  0.00    -0.008 A 
HETATM    4  C   UNK N   1      35.294  12.744  13.954  0.00  0.00     0.051 A 
HETATM    5  C   UNK N   1      35.171  12.437  12.616  0.00  0.00     0.085 A 
HETATM    6  C   UNK N   1      34.400  11.325  12.248  0.00  0.00     0.124 A 
HETATM    7  C   UNK N   1      33.883  10.889  14.536  0.00  0.00     0.100 A 
ENDROOT
BRANCH   5   8
HETATM    8  O   UNK N   1      35.835  13.211  11.728  0.00  0.00    -0.348 OA
BRANCH   8   9
HETATM    9  C   UNK N   1      35.372  13.552  10.478  0.00  0.00     0.200 C 
BRANCH   9  10
HETATM   10  C   UNK N   1      36.056  14.835   9.997  0.00  0.00     0.102 C 
BRANCH  10  11
HETATM   11  C   UNK N   1      35.249  16.077  10.383  0.00  0.00     0.065 C 
BRANCH  11  12
HETATM   12  C   UNK N   1      34.266  16.543   9.345  0.00  0.00    -0.056 A 
HETATM   13  C   UNK N   1      34.536  17.705   8.614  0.00  0.00     0.007 A 
HETATM   14  C   UNK N   1      33.610  18.176   7.677  0.00  0.00     0.001 A 
HETATM   15  C   UNK N   1      32.410  17.487   7.470  0.00  0.00     0.000 A 
HETATM   16  C   UNK N   1      32.135  16.329   8.201  0.00  0.00     0.001 A 
HETATM   17  C   UNK N   1      33.057  15.861   9.142  0.00  0.00     0.007 A 
ENDBRANCH  11  12
ENDBRANCH  10  11
BRANCH  10  18
HETATM   18  N   UNK N   1      37.412  14.929  10.522  0.00  0.00    -0.424 N 
HETATM   19  H   UNK N   1      37.606  14.972  11.522  0.00  0.00     0.150 HD
HETATM   20  H   UNK N   1      38.193  14.953   9.866  0.00  0.00     0.150 HD
ENDBRANCH  10  18
ENDBRANCH   9  10
ENDBRANCH   8   9
ENDBRANCH   5   8
BRANCH   3  21
HETATM   21  C   UNK N   1      34.978  12.274  16.348  0.00  0.00    -0.024 A 
HETATM   22  C   UNK N   1      34.944  13.590  16.889  0.00  0.00     0.014 A 
HETATM   23  C   UNK N   1      35.157  13.797  18.272  0.00  0.00     0.033 A 
HETATM   24  C   UNK N   1      35.360  12.668  19.071  0.00  0.00     0.060 A 
HETATM   25  N   UNK N   1      35.531  12.601  20.403  0.00  0.00    -0.300 N 
HETATM   26  C   UNK N   1      35.378  11.417  18.546  0.00  0.00     0.016 A 
HETATM   27  N   UNK N   1      35.648  11.312  20.732  0.00  0.00    -0.304 N 
HETATM   28  H   UNK N   1      35.564  13.366  21.022  0.00  0.00     0.187 HD
HETATM   29  C   UNK N   1      35.555  10.573  19.605  0.00  0.00     0.034 A 
ATOM     30  HN  UNK N   1      35.785  10.947  21.675  1.00  0.00     0.186 HD
HETATM   31  C   UNK N   1      35.605   9.084  19.554  0.00  0.00     0.070 C 
HETATM   32  C   UNK N   1      35.208  11.178  17.204  0.00  0.00     0.028 A 
ENDBRANCH   3  21
TORSDOF 7
ENDMDL
MODEL 4
REMARK VINA RESULT:      -6.3     15.079     18.452
REMARK  7 active torsions:
REMARK  status: ('A' for Active; 'I' for Inactive)
REMARK    1  A    between atoms: C_28  and  C_12 
REMARK    2  A    between atoms: C_17  and  C_13 
REMARK    3  A    between atoms: C_15  and  O_26 
REMARK    4  A    between atoms: C_16  and  C_27 
REMARK    5  A    between atoms: O_26  and  C_16 
REMARK    6  A    between atoms: C_27  and  C_28 
REMARK    7  A    between atoms: C_27  and  N_29 
ROOT
HETATM    1  N   UNK N   1      33.067  14.309   7.014  0.00  0.00    -0.372 N 
ATOM      2  HN  UNK N   1      33.107  13.487   6.412  1.00  0.00     0.164 HD
HETATM    3  C   UNK N   1      31.865  16.203   7.849  0.00  0.00    -0.008 A 
HETATM    4  C   UNK N   1      32.981  16.540   8.613  0.00  0.00     0.051 A 
HETATM    5  C   UNK N   1      34.123  15.770   8.593  0.00  0.00     0.085 A 
HETATM    6  C   UNK N   1      34.150  14.623   7.785  0.00  0.00     0.124 A 
HETATM    7  C   UNK N   1      31.932  15.069   7.030  0.00  0.00     0.100 A 
ENDROOT
BRANCH   5   8
HETATM    8  O   UNK N   1      35.151  16.146   9.388  0.00  0.00    -0.348 OA
BRANCH   8   9
HETATM    9  C   UNK N   1      35.057  16.374  10.743  0.00  0.00     0.200 C 
BRANCH   9  10
HETATM   10  C   UNK N   1      36.001  15.436  11.500  0.00  0.00     0.102 C 
BRANCH  10  11
HETATM   11  C   UNK N   1      35.294  14.143  11.910  0.00  0.00     0.065 C 
BRANCH  11  12
HETATM   12  C   UNK N   1      35.567  13.690  13.317  0.00  0.00    -0.056 A 
HETATM   13  C   UNK N   1      34.855  12.605  13.841  0.00  0.00     0.007 A 
HETATM   14  C   UNK N   1      35.066  12.200  15.164  0.00  0.00     0.001 A 
HETATM   15  C   UNK N   1      35.987  12.880  15.967  0.00  0.00     0.000 A 
HETATM   16  C   UNK N   1      36.697  13.966  15.448  0.00  0.00     0.001 A 
HETATM   17  C   UNK N   1      36.483  14.375  14.129  0.00  0.00     0.007 A 
ENDBRANCH  11  12
ENDBRANCH  10  11
BRANCH  10  18
HETATM   18  N   UNK N   1      37.183  15.135  10.702  0.00  0.00    -0.424 N 
HETATM   19  H   UNK N   1      38.124  15.385  11.009  0.00  0.00     0.150 HD
HETATM   20  H   UNK N   1      37.066  14.660   9.807  0.00  0.00     0.150 HD
ENDBRANCH  10  18
ENDBRANCH   9  10
ENDBRANCH   8   9
ENDBRANCH   5   8
BRANCH   3  21
HETATM   21  C   UNK N   1      30.629  16.986   8.044  0.00  0.00    -0.024 A 
HETATM   22  C   UNK N   1      30.210  17.467   9.316  0.00  0.00     0.014 A 
HETATM   23  C   UNK N   1      29.065  18.292   9.423  0.00  0.00     0.033 A 
HETATM   24  C   UNK N   1      28.403  18.635   8.241  0.00  0.00     0.060 A 
HETATM   25  N   UNK N   1      27.337  19.438   8.078  0.00  0.00    -0.300 N 
HETATM   26  C   UNK N   1      28.820  18.181   7.032  0.00  0.00     0.016 A 
HETATM   27  N   UNK N   1      27.077  19.506   6.769  0.00  0.00    -0.304 N 
HETATM   28  H   UNK N   1      26.838  19.892   8.795  0.00  0.00     0.187 HD
HETATM   29  C   UNK N   1      27.978  18.742   6.115  0.00  0.00     0.034 A 
ATOM     30  HN  UNK N   1      26.325  20.044   6.338  1.00  0.00     0.186 HD
HETATM   31  C   UNK N   1      28.046  18.581   4.634  0.00  0.00     0.070 C 
HETATM   32  C   UNK N   1      29.906  17.352   6.891  0.00  0.00     0.028 A 
ENDBRANCH   3  21
TORSDOF 7
ENDMDL
MODEL 5
REMARK VINA RESULT:      -6.3      1.557      2.611
REMARK  7 active torsions:
REMARK  status: ('A' for Active; 'I' for Inactive)
REMARK    1  A    between atoms: C_28  and  C_12 
REMARK    2  A    between atoms: C_17  and  C_13 
REMARK    3  A    between atoms: C_15  and  O_26 
REMARK    4  A    between atoms: C_16  and  C_27 
REMARK    5  A    between atoms: O_26  and  C_16 
REMARK    6  A    between atoms: C_27  and  C_28 
REMARK    7  A    between atoms: C_27  and  N_29 
ROOT
HETATM    1  N   UNK N   1      26.891  24.571  -8.785  0.00  0.00    -0.372 N 
ATOM      2  HN  UNK N   1      26.933  24.814  -9.774  1.00  0.00     0.164 HD
HETATM    3  C   UNK N   1      27.688  23.269  -6.941  0.00  0.00    -0.008 A 
HETATM    4  C   UNK N   1      26.747  23.898  -6.126  0.00  0.00     0.051 A 
HETATM    5  C   UNK N   1      25.896  24.860  -6.624  0.00  0.00     0.085 A 
HETATM    6  C   UNK N   1      25.989  25.208  -7.980  0.00  0.00     0.124 A 
HETATM    7  C   UNK N   1      27.737  23.616  -8.297  0.00  0.00     0.100 A 
ENDROOT
BRANCH   5   8
HETATM    8  O   UNK N   1      25.034  25.446  -5.761  0.00  0.00    -0.348 OA
BRANCH   8   9
HETATM    9  C   UNK N   1      25.030  26.784  -5.438  0.00  0.00     0.200 C 
BRANCH   9  10
HETATM   10  C   UNK N   1      26.143  27.084  -4.429  0.00  0.00     0.102 C 
BRANCH  10  11
HETATM   11  C   UNK N   1      27.306  27.831  -5.083  0.00  0.00     0.065 C 
BRANCH  11  12
HETATM   12  C   UNK N   1      28.576  27.038  -5.216  0.00  0.00    -0.056 A 
HETATM   13  C   UNK N   1      29.270  26.652  -4.064  0.00  0.00     0.007 A 
HETATM   14  C   UNK N   1      30.477  25.952  -4.172  0.00  0.00     0.001 A 
HETATM   15  C   UNK N   1      30.994  25.639  -5.433  0.00  0.00     0.000 A 
HETATM   16  C   UNK N   1      30.306  26.026  -6.586  0.00  0.00     0.001 A 
HETATM   17  C   UNK N   1      29.104  26.730  -6.478  0.00  0.00     0.007 A 
ENDBRANCH  11  12
ENDBRANCH  10  11
BRANCH  10  18
HETATM   18  N   UNK N   1      25.626  27.842  -3.296  0.00  0.00    -0.424 N 
HETATM   19  H   UNK N   1      24.643  28.103  -3.221  0.00  0.00     0.150 HD
HETATM   20  H   UNK N   1      26.269  28.122  -2.556  0.00  0.00     0.150 HD
ENDBRANCH  10  18
ENDBRANCH   9  10
ENDBRANCH   8   9
ENDBRANCH   5   8
BRANCH   3  21
HETATM   21  C   UNK N   1      28.666  22.368  -6.302  0.00  0.00    -0.024 A 
HETATM   22  C   UNK N   1      29.317  21.312  -6.999  0.00  0.00     0.014 A 
HETATM   23  C   UNK N   1      30.315  20.543  -6.354  0.00  0.00     0.033 A 
HETATM   24  C   UNK N   1      30.650  20.888  -5.042  0.00  0.00     0.060 A 
HETATM   25  N   UNK N   1      31.590  20.350  -4.246  0.00  0.00    -0.300 N 
HETATM   26  C   UNK N   1      30.031  21.906  -4.392  0.00  0.00     0.016 A 
HETATM   27  N   UNK N   1      31.581  21.025  -3.093  0.00  0.00    -0.304 N 
HETATM   28  H   UNK N   1      32.178  19.593  -4.472  0.00  0.00     0.187 HD
HETATM   29  C   UNK N   1      30.632  21.983  -3.168  0.00  0.00     0.034 A 
ATOM     30  HN  UNK N   1      32.188  20.847  -2.293  1.00  0.00     0.186 HD
HETATM   31  C   UNK N   1      30.331  22.973  -2.094  0.00  0.00     0.070 C 
HETATM   32  C   UNK N   1      29.035  22.653  -4.972  0.00  0.00     0.028 A 
ENDBRANCH   3  21
TORSDOF 7
ENDMDL
MODEL 6
REMARK VINA RESULT:      -6.3      1.406      1.923
REMARK  7 active torsions:
REMARK  status: ('A' for Active; 'I' for Inactive)
REMARK    1  A    between atoms: C_28  and  C_12 
REMARK    2  A    between atoms: C_17  and  C_13 
REMARK    3  A    between atoms: C_15  and  O_26 
REMARK    4  A    between atoms: C_16  and  C_27 
REMARK    5  A    between atoms: O_26  and  C_16 
REMARK    6  A    between atoms: C_27  and  C_28 
REMARK    7  A    between atoms: C_27  and  N_29 
ROOT
HETATM    1  N   UNK N   1      26.938  24.043  -8.080  0.00  0.00    -0.372 N 
ATOM      2  HN  UNK N   1      26.978  23.918  -9.092  1.00  0.00     0.164 HD
HETATM    3  C   UNK N   1      27.829  23.591  -5.906  0.00  0.00    -0.008 A 
HETATM    4  C   UNK N   1      26.801  24.355  -5.356  0.00  0.00     0.051 A 
HETATM    5  C   UNK N   1      25.858  24.968  -6.152  0.00  0.00     0.085 A 
HETATM    6  C   UNK N   1      25.947  24.815  -7.543  0.00  0.00     0.124 A 
HETATM    7  C   UNK N   1      27.875  23.433  -7.296  0.00  0.00     0.100 A 
ENDROOT
BRANCH   5   8
HETATM    8  O   UNK N   1      24.912  25.719  -5.543  0.00  0.00    -0.348 OA
BRANCH   8   9
HETATM    9  C   UNK N   1      24.856  27.094  -5.574  0.00  0.00     0.200 C 
BRANCH   9  10
HETATM   10  C   UNK N   1      26.012  27.684  -4.760  0.00  0.00     0.102 C 
BRANCH  10  11
HETATM   11  C   UNK N   1      27.145  28.166  -5.668  0.00  0.00     0.065 C 
BRANCH  11  12
HETATM   12  C   UNK N   1      28.479  27.521  -5.414  0.00  0.00    -0.056 A 
HETATM   13  C   UNK N   1      29.197  26.979  -6.485  0.00  0.00     0.007 A 
HETATM   14  C   UNK N   1      30.419  26.336  -6.258  0.00  0.00     0.001 A 
HETATM   15  C   UNK N   1      30.925  26.232  -4.959  0.00  0.00     0.000 A 
HETATM   16  C   UNK N   1      30.209  26.768  -3.885  0.00  0.00     0.001 A 
HETATM   17  C   UNK N   1      28.985  27.405  -4.111  0.00  0.00     0.007 A 
ENDBRANCH  11  12
ENDBRANCH  10  11
BRANCH  10  18
HETATM   18  N   UNK N   1      25.545  28.773  -3.911  0.00  0.00    -0.424 N 
HETATM   19  H   UNK N   1      24.560  29.029  -3.848  0.00  0.00     0.150 HD
HETATM   20  H   UNK N   1      26.227  29.295  -3.360  0.00  0.00     0.150 HD
ENDBRANCH  10  18
ENDBRANCH   9  10
ENDBRANCH   8   9
ENDBRANCH   5   8
BRANCH   3  21
HETATM   21  C   UNK N   1      28.887  23.101  -5.002  0.00  0.00    -0.024 A 
HETATM   22  C   UNK N   1      28.933  23.421  -3.616  0.00  0.00     0.014 A 
HETATM   23  C   UNK N   1      29.920  22.843  -2.784  0.00  0.00     0.033 A 
HETATM   24  C   UNK N   1      30.805  21.931  -3.367  0.00  0.00     0.060 A 
HETATM   25  N   UNK N   1      31.783  21.219  -2.783  0.00  0.00    -0.300 N 
HETATM   26  C   UNK N   1      30.743  21.623  -4.687  0.00  0.00     0.016 A 
HETATM   27  N   UNK N   1      32.341  20.449  -3.722  0.00  0.00    -0.304 N 
HETATM   28  H   UNK N   1      32.042  21.258  -1.834  0.00  0.00     0.187 HD
HETATM   29  C   UNK N   1      31.714  20.685  -4.895  0.00  0.00     0.034 A 
ATOM     30  HN  UNK N   1      33.111  19.795  -3.578  1.00  0.00     0.186 HD
HETATM   31  C   UNK N   1      32.022  19.998  -6.181  0.00  0.00     0.070 C 
HETATM   32  C   UNK N   1      29.822  22.189  -5.534  0.00  0.00     0.028 A 
ENDBRANCH   3  21
TORSDOF 7
ENDMDL
MODEL 7
REMARK VINA RESULT:      -6.3     11.941     15.399
REMARK  7 active torsions:
REMARK  status: ('A' for Active; 'I' for Inactive)
REMARK    1  A    between atoms: C_28  and  C_12 
REMARK    2  A    between atoms: C_17  and  C_13 
REMARK    3  A    between atoms: C_15  and  O_26 
REMARK    4  A    between atoms: C_16  and  C_27 
REMARK    5  A    between atoms: O_26  and  C_16 
REMARK    6  A    between atoms: C_27  and  C_28 
REMARK    7  A    between atoms: C_27  and  N_29 
ROOT
HETATM    1  N   UNK N   1      31.675  15.473   3.784  0.00  0.00    -0.372 N 
ATOM      2  HN  UNK N   1      31.934  15.590   2.804  1.00  0.00     0.164 HD
HETATM    3  C   UNK N   1      30.539  16.275   5.732  0.00  0.00    -0.008 A 
HETATM    4  C   UNK N   1      31.012  15.165   6.431  0.00  0.00     0.051 A 
HETATM    5  C   UNK N   1      31.795  14.212   5.817  0.00  0.00     0.085 A 
HETATM    6  C   UNK N   1      32.115  14.371   4.461  0.00  0.00     0.124 A 
HETATM    7  C   UNK N   1      30.898  16.421   4.386  0.00  0.00     0.100 A 
ENDROOT
BRANCH   5   8
HETATM    8  O   UNK N   1      32.186  13.148   6.556  0.00  0.00    -0.348 OA
BRANCH   8   9
HETATM    9  C   UNK N   1      33.494  12.803   6.813  0.00  0.00     0.200 C 
BRANCH   9  10
HETATM   10  C   UNK N   1      33.784  12.924   8.311  0.00  0.00     0.102 C 
BRANCH  10  11
HETATM   11  C   UNK N   1      34.777  14.051   8.600  0.00  0.00     0.065 C 
BRANCH  11  12
HETATM   12  C   UNK N   1      34.331  15.417   8.159  0.00  0.00    -0.056 A 
HETATM   13  C   UNK N   1      33.527  16.186   9.007  0.00  0.00     0.007 A 
HETATM   14  C   UNK N   1      33.067  17.441   8.592  0.00  0.00     0.001 A 
HETATM   15  C   UNK N   1      33.408  17.929   7.326  0.00  0.00     0.000 A 
HETATM   16  C   UNK N   1      34.207  17.162   6.474  0.00  0.00     0.001 A 
HETATM   17  C   UNK N   1      34.662  15.906   6.886  0.00  0.00     0.007 A 
ENDBRANCH  11  12
ENDBRANCH  10  11
BRANCH  10  18
HETATM   18  N   UNK N   1      32.553  13.127   9.064  0.00  0.00    -0.424 N 
HETATM   19  H   UNK N   1      32.555  13.420  10.041  0.00  0.00     0.150 HD
HETATM   20  H   UNK N   1      31.659  12.970   8.598  0.00  0.00     0.150 HD
ENDBRANCH  10  18
ENDBRANCH   9  10
ENDBRANCH   8   9
ENDBRANCH   5   8
BRANCH   3  21
HETATM   21  C   UNK N   1      29.578  17.165   6.412  0.00  0.00    -0.024 A 
HETATM   22  C   UNK N   1      29.496  17.278   7.828  0.00  0.00     0.014 A 
HETATM   23  C   UNK N   1      28.619  18.219   8.418  0.00  0.00     0.033 A 
HETATM   24  C   UNK N   1      27.882  19.041   7.560  0.00  0.00     0.060 A 
HETATM   25  N   UNK N   1      27.033  20.035   7.874  0.00  0.00    -0.300 N 
HETATM   26  C   UNK N   1      27.979  18.934   6.211  0.00  0.00     0.016 A 
HETATM   27  N   UNK N   1      26.593  20.568   6.730  0.00  0.00    -0.304 N 
HETATM   28  H   UNK N   1      26.780  20.317   8.782  0.00  0.00     0.187 HD
HETATM   29  C   UNK N   1      27.166  19.905   5.702  0.00  0.00     0.034 A 
ATOM     30  HN  UNK N   1      25.937  21.345   6.648  1.00  0.00     0.186 HD
HETATM   31  C   UNK N   1      26.957  20.222   4.260  0.00  0.00     0.070 C 
HETATM   32  C   UNK N   1      28.793  18.010   5.602  0.00  0.00     0.028 A 
ENDBRANCH   3  21
TORSDOF 7
ENDMDL
MODEL 8
REMARK VINA RESULT:      -6.2     10.790     13.366
REMARK  7 active torsions:
REMARK  status: ('A' for Active; 'I' for Inactive)
REMARK    1  A    between atoms: C_28  and  C_12 
REMARK    2  A    between atoms: C_17  and  C_13 
REMARK    3  A    between atoms: C_15  and  O_26 
REMARK    4  A    between atoms: C_16  and  C_27 
REMARK    5  A    between atoms: O_26  and  C_16 
REMARK    6  A    between atoms: C_27  and  C_28 
REMARK    7  A    between atoms: C_27  and  N_29 
ROOT
HETATM    1  N   UNK N   1      26.509  20.644   3.003  0.00  0.00    -0.372 N 
ATOM      2  HN  UNK N   1      27.057  21.259   2.401  1.00  0.00     0.164 HD
HETATM    3  C   UNK N   1      24.391  19.740   3.656  0.00  0.00    -0.008 A 
HETATM    4  C   UNK N   1      25.040  19.012   4.652  0.00  0.00     0.051 A 
HETATM    5  C   UNK N   1      26.406  19.084   4.819  0.00  0.00     0.085 A 
HETATM    6  C   UNK N   1      27.148  19.908   3.961  0.00  0.00     0.124 A 
HETATM    7  C   UNK N   1      25.156  20.577   2.833  0.00  0.00     0.100 A 
ENDROOT
BRANCH   5   8
HETATM    8  O   UNK N   1      26.962  18.321   5.788  0.00  0.00    -0.348 OA
BRANCH   8   9
HETATM    9  C   UNK N   1      28.177  18.569   6.386  0.00  0.00     0.200 C 
BRANCH   9  10
HETATM   10  C   UNK N   1      29.187  17.487   5.990  0.00  0.00     0.102 C 
BRANCH  10  11
HETATM   11  C   UNK N   1      29.964  16.977   7.205  0.00  0.00     0.065 C 
BRANCH  11  12
HETATM   12  C   UNK N   1      31.431  17.305   7.204  0.00  0.00    -0.056 A 
HETATM   13  C   UNK N   1      32.183  17.089   6.044  0.00  0.00     0.007 A 
HETATM   14  C   UNK N   1      33.559  17.348   6.041  0.00  0.00     0.001 A 
HETATM   15  C   UNK N   1      34.185  17.820   7.199  0.00  0.00     0.000 A 
HETATM   16  C   UNK N   1      33.438  18.033   8.360  0.00  0.00     0.001 A 
HETATM   17  C   UNK N   1      32.066  17.770   8.365  0.00  0.00     0.007 A 
ENDBRANCH  11  12
ENDBRANCH  10  11
BRANCH  10  18
HETATM   18  N   UNK N   1      28.524  16.381   5.312  0.00  0.00    -0.424 N 
HETATM   19  H   UNK N   1      27.644  15.987   5.646  0.00  0.00     0.150 HD
HETATM   20  H   UNK N   1      28.954  15.988   4.474  0.00  0.00     0.150 HD
ENDBRANCH  10  18
ENDBRANCH   9  10
ENDBRANCH   8   9
ENDBRANCH   5   8
BRANCH   3  21
HETATM   21  C   UNK N   1      22.954  19.489   3.438  0.00  0.00    -0.024 A 
HETATM   22  C   UNK N   1      22.131  20.334   2.641  0.00  0.00     0.014 A 
HETATM   23  C   UNK N   1      20.782  19.987   2.395  0.00  0.00     0.033 A 
HETATM   24  C   UNK N   1      20.317  18.781   2.928  0.00  0.00     0.060 A 
HETATM   25  N   UNK N   1      19.105  18.214   2.791  0.00  0.00    -0.300 N 
HETATM   26  C   UNK N   1      21.114  17.977   3.675  0.00  0.00     0.016 A 
HETATM   27  N   UNK N   1      19.128  17.047   3.441  0.00  0.00    -0.304 N 
HETATM   28  H   UNK N   1      18.340  18.593   2.301  0.00  0.00     0.187 HD
HETATM   29  C   UNK N   1      20.353  16.887   3.987  0.00  0.00     0.034 A 
ATOM     30  HN  UNK N   1      18.353  16.388   3.511  1.00  0.00     0.186 HD
HETATM   31  C   UNK N   1      20.791  15.693   4.766  0.00  0.00     0.070 C 
HETATM   32  C   UNK N   1      22.418  18.296   3.965  0.00  0.00     0.028 A 
ENDBRANCH   3  21
TORSDOF 7
ENDMDL
MODEL 9
REMARK VINA RESULT:      -6.1     13.589     16.228
REMARK  7 active torsions:
REMARK  status: ('A' for Active; 'I' for Inactive)
REMARK    1  A    between atoms: C_28  and  C_12 
REMARK    2  A    between atoms: C_17  and  C_13 
REMARK    3  A    between atoms: C_15  and  O_26 
REMARK    4  A    between atoms: C_16  and  C_27 
REMARK    5  A    between atoms: O_26  and  C_16 
REMARK    6  A    between atoms: C_27  and  C_28 
REMARK    7  A    between atoms: C_27  and  N_29 
ROOT
HETATM    1  N   UNK N   1      33.332  16.561   6.468  0.00  0.00    -0.372 N 
ATOM      2  HN  UNK N   1      33.622  16.732   5.505  1.00  0.00     0.164 HD
HETATM    3  C   UNK N   1      33.803  15.679   8.643  0.00  0.00    -0.008 A 
HETATM    4  C   UNK N   1      32.528  16.072   9.048  0.00  0.00     0.051 A 
HETATM    5  C   UNK N   1      31.666  16.713   8.184  0.00  0.00     0.085 A 
HETATM    6  C   UNK N   1      32.093  16.972   6.874  0.00  0.00     0.124 A 
HETATM    7  C   UNK N   1      34.190  15.925   7.319  0.00  0.00     0.100 A 
ENDROOT
BRANCH   5   8
HETATM    8  O   UNK N   1      30.460  17.092   8.664  0.00  0.00    -0.348 OA
BRANCH   8   9
HETATM    9  C   UNK N   1      30.092  18.390   8.937  0.00  0.00     0.200 C 
BRANCH   9  10
HETATM   10  C   UNK N   1      28.698  18.671   8.369  0.00  0.00     0.102 C 
BRANCH  10  11
HETATM   11  C   UNK N   1      28.537  18.083   6.966  0.00  0.00     0.065 C 
BRANCH  11  12
HETATM   12  C   UNK N   1      27.836  18.976   5.981  0.00  0.00    -0.056 A 
HETATM   13  C   UNK N   1      27.576  18.505   4.689  0.00  0.00     0.007 A 
HETATM   14  C   UNK N   1      26.963  19.340   3.747  0.00  0.00     0.001 A 
HETATM   15  C   UNK N   1      26.613  20.648   4.094  0.00  0.00     0.000 A 
HETATM   16  C   UNK N   1      26.875  21.124   5.381  0.00  0.00     0.001 A 
HETATM   17  C   UNK N   1      27.491  20.292   6.321  0.00  0.00     0.007 A 
ENDBRANCH  11  12
ENDBRANCH  10  11
BRANCH  10  18
HETATM   18  N   UNK N   1      27.662  18.155   9.256  0.00  0.00    -0.424 N 
HETATM   19  H   UNK N   1      27.732  18.226  10.272  0.00  0.00     0.150 HD
HETATM   20  H   UNK N   1      26.841  17.708   8.848  0.00  0.00     0.150 HD
ENDBRANCH  10  18
ENDBRANCH   9  10
ENDBRANCH   8   9
ENDBRANCH   5   8
BRANCH   3  21
HETATM   21  C   UNK N   1      34.720  15.143   9.666  0.00  0.00    -0.024 A 
HETATM   22  C   UNK N   1      34.327  14.906  11.013  0.00  0.00     0.014 A 
HETATM   23  C   UNK N   1      35.227  14.302  11.922  0.00  0.00     0.033 A 
HETATM   24  C   UNK N   1      36.481  13.922  11.435  0.00  0.00     0.060 A 
HETATM   25  N   UNK N   1      37.477  13.292  12.080  0.00  0.00    -0.300 N 
HETATM   26  C   UNK N   1      36.840  14.141  10.145  0.00  0.00     0.016 A 
HETATM   27  N   UNK N   1      38.469  13.099  11.206  0.00  0.00    -0.304 N 
HETATM   28  H   UNK N   1      37.476  13.023  13.027  0.00  0.00     0.187 HD
HETATM   29  C   UNK N   1      38.093  13.613  10.015  0.00  0.00     0.034 A 
ATOM     30  HN  UNK N   1      39.358  12.641  11.404  1.00  0.00     0.186 HD
HETATM   31  C   UNK N   1      38.911  13.567   8.769  0.00  0.00     0.070 C 
HETATM   32  C   UNK N   1      36.007  14.754   9.241  0.00  0.00     0.028 A 
ENDBRANCH   3  21
TORSDOF 7
ENDMDL
