MODEL 1
REMARK VINA RESULT:      -6.9      0.000      0.000
REMARK  7 active torsions:
REMARK  status: ('A' for Active; 'I' for Inactive)
REMARK    1  A    between atoms: C_12  and  C_28 
REMARK    2  A    between atoms: C_13  and  C_17 
REMARK    3  A    between atoms: C_15  and  O_26 
REMARK    4  A    between atoms: C_16  and  O_26 
REMARK    5  A    between atoms: C_16  and  C_27 
REMARK    6  A    between atoms: C_27  and  C_28 
REMARK    7  A    between atoms: C_27  and  N_29 
ROOT
HETATM    1  N   UNK N   1      25.777  24.565  -6.083  0.00  0.00    -0.372 N 
ATOM      2  HN  UNK N   1      25.234  24.302  -6.905  1.00  0.00     0.164 HD
HETATM    3  C   UNK N   1      27.614  24.157  -4.604  0.00  0.00    -0.008 A 
HETATM    4  C   UNK N   1      27.268  25.308  -3.917  0.00  0.00     0.051 A 
HETATM    5  C   UNK N   1      26.170  26.076  -4.268  0.00  0.00     0.085 A 
HETATM    6  C   UNK N   1      25.418  25.681  -5.379  0.00  0.00     0.124 A 
HETATM    7  C   UNK N   1      26.845  23.794  -5.716  0.00  0.00     0.100 A 
ENDROOT
BRANCH   5   8
HETATM    8  O   UNK N   1      25.828  27.167  -3.533  0.00  0.00    -0.348 OA
BRANCH   8   9
HETATM    9  C   UNK N   1      25.578  28.416  -4.096  0.00  0.00     0.200 C 
BRANCH   9  10
HETATM   10  C   UNK N   1      26.671  29.465  -3.814  0.00  0.00     0.102 C 
BRANCH  10  11
HETATM   11  C   UNK N   1      27.662  29.519  -4.980  0.00  0.00     0.065 C 
BRANCH  11  12
HETATM   12  C   UNK N   1      28.750  28.498  -4.928  0.00  0.00    -0.056 A 
HETATM   13  C   UNK N   1      29.033  27.758  -6.079  0.00  0.00     0.008 A 
HETATM   14  C   UNK N   1      30.024  26.775  -6.054  0.00  0.00     0.019 A 
HETATM   15  C   UNK N   1      30.733  26.531  -4.874  0.00  0.00     0.011 A 
HETATM   16  C   UNK N   1      30.460  27.276  -3.724  0.00  0.00     0.019 A 
HETATM   17 Br   UNK N   1      32.062  25.168  -4.834  0.00  0.00    -0.051 Br
HETATM   18  C   UNK N   1      29.471  28.264  -3.751  0.00  0.00     0.008 A 
ENDBRANCH  11  12
ENDBRANCH  10  11
BRANCH  10  19
HETATM   19  N   UNK N   1      26.080  30.768  -3.551  0.00  0.00    -0.424 N 
HETATM   20  H   UNK N   1      25.311  31.252  -3.088  0.00  0.00     0.150 HD
HETATM   21  H   UNK N   1      26.660  31.471  -4.008  0.00  0.00     0.150 HD
ENDBRANCH  10  19
ENDBRANCH   9  10
ENDBRANCH   8   9
ENDBRANCH   5   8
BRANCH   3  22
HETATM   22  C   UNK N   1      28.730  23.347  -4.070  0.00  0.00    -0.024 A 
HETATM   23  C   UNK N   1      29.278  23.571  -2.779  0.00  0.00     0.014 A 
HETATM   24  C   UNK N   1      30.375  22.802  -2.326  0.00  0.00     0.033 A 
HETATM   25  C   UNK N   1      30.893  21.840  -3.193  0.00  0.00     0.060 A 
HETATM   26  C   UNK N   1      30.374  21.630  -4.430  0.00  0.00     0.016 A 
HETATM   27  N   UNK N   1      31.931  21.006  -2.994  0.00  0.00    -0.300 N 
HETATM   28  C   UNK N   1      31.133  20.638  -4.988  0.00  0.00     0.034 A 
HETATM   29  C   UNK N   1      29.298  22.354  -4.904  0.00  0.00     0.028 A 
HETATM   30  N   UNK N   1      32.078  20.269  -4.093  0.00  0.00    -0.304 N 
HETATM   31  C   UNK N   1      30.976  20.049  -6.348  0.00  0.00     0.070 C 
ATOM     32  HN  UNK N   1      32.786  19.548  -4.237  1.00  0.00     0.186 HD
HETATM   33  H   UNK N   1      32.483  20.950  -2.180  0.00  0.00     0.187 HD
ENDBRANCH   3  22
TORSDOF 7
ENDMDL
MODEL 2
REMARK VINA RESULT:      -6.9      1.948      3.240
REMARK  7 active torsions:
REMARK  status: ('A' for Active; 'I' for Inactive)
REMARK    1  A    between atoms: C_12  and  C_28 
REMARK    2  A    between atoms: C_13  and  C_17 
REMARK    3  A    between atoms: C_15  and  O_26 
REMARK    4  A    between atoms: C_16  and  O_26 
REMARK    5  A    between atoms: C_16  and  C_27 
REMARK    6  A    between atoms: C_27  and  C_28 
REMARK    7  A    between atoms: C_27  and  N_29 
ROOT
HETATM    1  N   UNK N   1      28.769  26.790  -7.733  0.00  0.00    -0.372 N 
ATOM      2  HN  UNK N   1      28.530  26.728  -8.722  1.00  0.00     0.164 HD
HETATM    3  C   UNK N   1      29.564  25.743  -5.732  0.00  0.00    -0.008 A 
HETATM    4  C   UNK N   1      29.470  26.971  -5.098  0.00  0.00     0.051 A 
HETATM    5  C   UNK N   1      28.999  28.102  -5.744  0.00  0.00     0.085 A 
HETATM    6  C   UNK N   1      28.645  27.991  -7.092  0.00  0.00     0.124 A 
HETATM    7  C   UNK N   1      29.208  25.669  -7.084  0.00  0.00     0.100 A 
ENDROOT
BRANCH   5   8
HETATM    8  O   UNK N   1      28.866  29.276  -5.070  0.00  0.00    -0.348 OA
BRANCH   8   9
HETATM    9  C   UNK N   1      28.123  29.401  -3.900  0.00  0.00     0.200 C 
BRANCH   9  10
HETATM   10  C   UNK N   1      26.601  29.492  -4.125  0.00  0.00     0.102 C 
BRANCH  10  11
HETATM   11  C   UNK N   1      25.896  28.319  -3.438  0.00  0.00     0.065 C 
BRANCH  11  12
HETATM   12  C   UNK N   1      25.889  27.046  -4.216  0.00  0.00    -0.056 A 
HETATM   13  C   UNK N   1      26.350  25.878  -3.601  0.00  0.00     0.008 A 
HETATM   14  C   UNK N   1      26.384  24.678  -4.312  0.00  0.00     0.019 A 
HETATM   15  C   UNK N   1      25.958  24.645  -5.643  0.00  0.00     0.011 A 
HETATM   16  C   UNK N   1      25.487  25.808  -6.259  0.00  0.00     0.019 A 
HETATM   17 Br   UNK N   1      26.036  23.013  -6.620  0.00  0.00    -0.051 Br
HETATM   18  C   UNK N   1      25.448  27.009  -5.545  0.00  0.00     0.008 A 
ENDBRANCH  11  12
ENDBRANCH  10  11
BRANCH  10  19
HETATM   19  N   UNK N   1      26.088  30.772  -3.665  0.00  0.00    -0.424 N 
HETATM   20  H   UNK N   1      25.356  31.470  -3.799  0.00  0.00     0.150 HD
HETATM   21  H   UNK N   1      26.697  31.101  -2.916  0.00  0.00     0.150 HD
ENDBRANCH  10  19
ENDBRANCH   9  10
ENDBRANCH   8   9
ENDBRANCH   5   8
BRANCH   3  22
HETATM   22  C   UNK N   1      29.962  24.576  -4.916  0.00  0.00    -0.024 A 
HETATM   23  C   UNK N   1      30.298  24.693  -3.540  0.00  0.00     0.014 A 
HETATM   24  C   UNK N   1      30.718  23.558  -2.809  0.00  0.00     0.033 A 
HETATM   25  C   UNK N   1      30.798  22.344  -3.490  0.00  0.00     0.060 A 
HETATM   26  C   UNK N   1      30.484  22.232  -4.805  0.00  0.00     0.016 A 
HETATM   27  N   UNK N   1      31.180  21.142  -3.016  0.00  0.00    -0.300 N 
HETATM   28  C   UNK N   1      30.690  20.918  -5.128  0.00  0.00     0.034 A 
HETATM   29  C   UNK N   1      30.061  23.315  -5.551  0.00  0.00     0.028 A 
HETATM   30  N   UNK N   1      31.115  20.269  -4.018  0.00  0.00    -0.304 N 
HETATM   31  C   UNK N   1      30.498  20.283  -6.462  0.00  0.00     0.070 C 
ATOM     32  HN  UNK N   1      31.346  19.277  -3.961  1.00  0.00     0.186 HD
HETATM   33  H   UNK N   1      31.459  20.945  -2.092  0.00  0.00     0.187 HD
ENDBRANCH   3  22
TORSDOF 7
ENDMDL
MODEL 3
REMARK VINA RESULT:      -6.7     19.341     22.459
REMARK  7 active torsions:
REMARK  status: ('A' for Active; 'I' for Inactive)
REMARK    1  A    between atoms: C_12  and  C_28 
REMARK    2  A    between atoms: C_13  and  C_17 
REMARK    3  A    between atoms: C_15  and  O_26 
REMARK    4  A    between atoms: C_16  and  O_26 
REMARK    5  A    between atoms: C_16  and  C_27 
REMARK    6  A    between atoms: C_27  and  C_28 
REMARK    7  A    between atoms: C_27  and  N_29 
ROOT
HETATM    1  N   UNK N   1      35.582  11.107  12.682  0.00  0.00    -0.372 N 
ATOM      2  HN  UNK N   1      35.428  10.211  12.219  1.00  0.00     0.164 HD
HETATM    3  C   UNK N   1      35.698  12.398  14.694  0.00  0.00    -0.008 A 
HETATM    4  C   UNK N   1      36.055  13.493  13.927  0.00  0.00     0.051 A 
HETATM    5  C   UNK N   1      36.145  13.429  12.545  0.00  0.00     0.085 A 
HETATM    6  C   UNK N   1      35.899  12.201  11.925  0.00  0.00     0.124 A 
HETATM    7  C   UNK N   1      35.466  11.180  14.042  0.00  0.00     0.100 A 
ENDROOT
BRANCH   5   8
HETATM    8  O   UNK N   1      36.441  14.542  11.822  0.00  0.00    -0.348 OA
BRANCH   8   9
HETATM    9  C   UNK N   1      35.633  15.676  11.805  0.00  0.00     0.200 C 
BRANCH   9  10
HETATM   10  C   UNK N   1      34.664  15.742  10.609  0.00  0.00     0.102 C 
BRANCH  10  11
HETATM   11  C   UNK N   1      35.383  15.323   9.324  0.00  0.00     0.065 C 
BRANCH  11  12
HETATM   12  C   UNK N   1      34.760  15.822   8.063  0.00  0.00    -0.056 A 
HETATM   13  C   UNK N   1      34.437  17.178   7.961  0.00  0.00     0.008 A 
HETATM   14  C   UNK N   1      33.826  17.668   6.806  0.00  0.00     0.019 A 
HETATM   15  C   UNK N   1      33.535  16.800   5.750  0.00  0.00     0.011 A 
HETATM   16  C   UNK N   1      33.866  15.445   5.843  0.00  0.00     0.019 A 
HETATM   17 Br   UNK N   1      32.672  17.466   4.189  0.00  0.00    -0.051 Br
HETATM   18  C   UNK N   1      34.483  14.955   6.998  0.00  0.00     0.008 A 
ENDBRANCH  11  12
ENDBRANCH  10  11
BRANCH  10  19
HETATM   19  N   UNK N   1      33.484  14.927  10.854  0.00  0.00    -0.424 N 
HETATM   20  H   UNK N   1      33.109  13.980  10.821  0.00  0.00     0.150 HD
HETATM   21  H   UNK N   1      32.745  15.544  11.192  0.00  0.00     0.150 HD
ENDBRANCH  10  19
ENDBRANCH   9  10
ENDBRANCH   8   9
ENDBRANCH   5   8
BRANCH   3  22
HETATM   22  C   UNK N   1      35.512  12.607  16.147  0.00  0.00    -0.024 A 
HETATM   23  C   UNK N   1      35.459  13.904  16.724  0.00  0.00     0.014 A 
HETATM   24  C   UNK N   1      35.325  14.057  18.123  0.00  0.00     0.033 A 
HETATM   25  C   UNK N   1      35.262  12.899  18.898  0.00  0.00     0.060 A 
HETATM   26  C   UNK N   1      35.320  11.660  18.348  0.00  0.00     0.016 A 
HETATM   27  N   UNK N   1      35.150  12.792  20.235  0.00  0.00    -0.300 N 
HETATM   28  C   UNK N   1      35.244  10.783  19.395  0.00  0.00     0.034 A 
HETATM   29  C   UNK N   1      35.441  11.469  16.985  0.00  0.00     0.028 A 
HETATM   30  N   UNK N   1      35.139  11.497  20.541  0.00  0.00    -0.304 N 
HETATM   31  C   UNK N   1      35.276   9.296  19.322  0.00  0.00     0.070 C 
ATOM     32  HN  UNK N   1      35.064  11.106  21.481  1.00  0.00     0.186 HD
HETATM   33  H   UNK N   1      35.088  13.539  20.874  0.00  0.00     0.187 HD
ENDBRANCH   3  22
TORSDOF 7
ENDMDL
MODEL 4
REMARK VINA RESULT:      -6.6     19.844     22.871
REMARK  7 active torsions:
REMARK  status: ('A' for Active; 'I' for Inactive)
REMARK    1  A    between atoms: C_12  and  C_28 
REMARK    2  A    between atoms: C_13  and  C_17 
REMARK    3  A    between atoms: C_15  and  O_26 
REMARK    4  A    between atoms: C_16  and  O_26 
REMARK    5  A    between atoms: C_16  and  C_27 
REMARK    6  A    between atoms: C_27  and  C_28 
REMARK    7  A    between atoms: C_27  and  N_29 
ROOT
HETATM    1  N   UNK N   1      37.097  14.922  14.589  0.00  0.00    -0.372 N 
ATOM      2  HN  UNK N   1      37.827  15.629  14.507  1.00  0.00     0.164 HD
HETATM    3  C   UNK N   1      35.818  13.422  15.947  0.00  0.00    -0.008 A 
HETATM    4  C   UNK N   1      35.098  13.073  14.817  0.00  0.00     0.051 A 
HETATM    5  C   UNK N   1      35.381  13.602  13.568  0.00  0.00     0.085 A 
HETATM    6  C   UNK N   1      36.407  14.547  13.470  0.00  0.00     0.124 A 
HETATM    7  C   UNK N   1      36.834  14.376  15.815  0.00  0.00     0.100 A 
ENDROOT
BRANCH   5   8
HETATM    8  O   UNK N   1      34.689  13.190  12.472  0.00  0.00    -0.348 OA
BRANCH   8   9
HETATM    9  C   UNK N   1      34.872  13.741  11.206  0.00  0.00     0.200 C 
BRANCH   9  10
HETATM   10  C   UNK N   1      34.221  15.126  11.021  0.00  0.00     0.102 C 
BRANCH  10  11
HETATM   11  C   UNK N   1      35.133  16.028  10.184  0.00  0.00     0.065 C 
BRANCH  11  12
HETATM   12  C   UNK N   1      34.597  16.390   8.839  0.00  0.00    -0.056 A 
HETATM   13  C   UNK N   1      34.806  15.512   7.772  0.00  0.00     0.008 A 
HETATM   14  C   UNK N   1      34.343  15.836   6.497  0.00  0.00     0.019 A 
HETATM   15  C   UNK N   1      33.670  17.043   6.285  0.00  0.00     0.011 A 
HETATM   16  C   UNK N   1      33.450  17.920   7.352  0.00  0.00     0.019 A 
HETATM   17 Br   UNK N   1      33.069  17.497   4.537  0.00  0.00    -0.051 Br
HETATM   18  C   UNK N   1      33.910  17.592   8.631  0.00  0.00     0.008 A 
ENDBRANCH  11  12
ENDBRANCH  10  11
BRANCH  10  19
HETATM   19  N   UNK N   1      32.900  15.000  10.428  0.00  0.00    -0.424 N 
HETATM   20  H   UNK N   1      32.151  15.504   9.952  0.00  0.00     0.150 HD
HETATM   21  H   UNK N   1      32.607  14.028  10.525  0.00  0.00     0.150 HD
ENDBRANCH  10  19
ENDBRANCH   9  10
ENDBRANCH   8   9
ENDBRANCH   5   8
BRANCH   3  22
HETATM   22  C   UNK N   1      35.515  12.705  17.204  0.00  0.00    -0.024 A 
HETATM   23  C   UNK N   1      35.329  13.386  18.437  0.00  0.00     0.014 A 
HETATM   24  C   UNK N   1      35.085  12.658  19.625  0.00  0.00     0.033 A 
HETATM   25  C   UNK N   1      35.049  11.267  19.535  0.00  0.00     0.060 A 
HETATM   26  C   UNK N   1      35.233  10.615  18.358  0.00  0.00     0.016 A 
HETATM   27  N   UNK N   1      34.849  10.369  20.519  0.00  0.00    -0.300 N 
HETATM   28  C   UNK N   1      35.144   9.282  18.653  0.00  0.00     0.034 A 
HETATM   29  C   UNK N   1      35.463  11.291  17.176  0.00  0.00     0.028 A 
HETATM   30  N   UNK N   1      34.907   9.154  19.980  0.00  0.00    -0.304 N 
HETATM   31  C   UNK N   1      35.285   8.144  17.702  0.00  0.00     0.070 C 
ATOM     32  HN  UNK N   1      34.793   8.273  20.482  1.00  0.00     0.186 HD
HETATM   33  H   UNK N   1      34.689  10.576  21.468  0.00  0.00     0.187 HD
ENDBRANCH   3  22
TORSDOF 7
ENDMDL
MODEL 5
REMARK VINA RESULT:      -6.5     16.706     20.356
REMARK  7 active torsions:
REMARK  status: ('A' for Active; 'I' for Inactive)
REMARK    1  A    between atoms: C_12  and  C_28 
REMARK    2  A    between atoms: C_13  and  C_17 
REMARK    3  A    between atoms: C_15  and  O_26 
REMARK    4  A    between atoms: C_16  and  O_26 
REMARK    5  A    between atoms: C_16  and  C_27 
REMARK    6  A    between atoms: C_27  and  C_28 
REMARK    7  A    between atoms: C_27  and  N_29 
ROOT
HETATM    1  N   UNK N   1      35.396  17.392  10.041  0.00  0.00    -0.372 N 
ATOM      2  HN  UNK N   1      36.172  18.043  10.154  1.00  0.00     0.164 HD
HETATM    3  C   UNK N   1      33.430  16.709   8.858  0.00  0.00    -0.008 A 
HETATM    4  C   UNK N   1      33.352  15.612   9.698  0.00  0.00     0.051 A 
HETATM    5  C   UNK N   1      34.254  15.405  10.729  0.00  0.00     0.085 A 
HETATM    6  C   UNK N   1      35.293  16.326  10.890  0.00  0.00     0.124 A 
HETATM    7  C   UNK N   1      34.488  17.609   9.042  0.00  0.00     0.100 A 
ENDROOT
BRANCH   5   8
HETATM    8  O   UNK N   1      34.109  14.346  11.569  0.00  0.00    -0.348 OA
BRANCH   8   9
HETATM    9  C   UNK N   1      34.963  13.246  11.561  0.00  0.00     0.200 C 
BRANCH   9  10
HETATM   10  C   UNK N   1      35.925  13.185  12.764  0.00  0.00     0.102 C 
BRANCH  10  11
HETATM   11  C   UNK N   1      35.807  11.828  13.464  0.00  0.00     0.065 C 
BRANCH  11  12
HETATM   12  C   UNK N   1      35.649  11.896  14.947  0.00  0.00    -0.056 A 
HETATM   13  C   UNK N   1      35.094  13.047  15.513  0.00  0.00     0.008 A 
HETATM   14  C   UNK N   1      34.961  13.153  16.897  0.00  0.00     0.019 A 
HETATM   15  C   UNK N   1      35.385  12.106  17.720  0.00  0.00     0.011 A 
HETATM   16  C   UNK N   1      35.932  10.949  17.158  0.00  0.00     0.019 A 
HETATM   17 Br   UNK N   1      35.232  12.267  19.611  0.00  0.00    -0.051 Br
HETATM   18  C   UNK N   1      36.061  10.840  15.770  0.00  0.00     0.008 A 
ENDBRANCH  11  12
ENDBRANCH  10  11
BRANCH  10  19
HETATM   19  N   UNK N   1      37.291  13.458  12.347  0.00  0.00    -0.424 N 
HETATM   20  H   UNK N   1      38.231  13.069  12.277  0.00  0.00     0.150 HD
HETATM   21  H   UNK N   1      37.320  14.410  11.983  0.00  0.00     0.150 HD
ENDBRANCH  10  19
ENDBRANCH   9  10
ENDBRANCH   8   9
ENDBRANCH   5   8
BRANCH   3  22
HETATM   22  C   UNK N   1      32.346  16.898   7.870  0.00  0.00    -0.024 A 
HETATM   23  C   UNK N   1      30.981  16.989   8.253  0.00  0.00     0.014 A 
HETATM   24  C   UNK N   1      29.972  17.124   7.271  0.00  0.00     0.033 A 
HETATM   25  C   UNK N   1      30.369  17.151   5.934  0.00  0.00     0.060 A 
HETATM   26  C   UNK N   1      31.673  17.058   5.568  0.00  0.00     0.016 A 
HETATM   27  N   UNK N   1      29.600  17.257   4.834  0.00  0.00    -0.300 N 
HETATM   28  C   UNK N   1      31.680  17.106   4.200  0.00  0.00     0.034 A 
HETATM   29  C   UNK N   1      32.687  16.934   6.497  0.00  0.00     0.028 A 
HETATM   30  N   UNK N   1      30.402  17.229   3.772  0.00  0.00    -0.304 N 
HETATM   31  C   UNK N   1      32.870  17.030   3.308  0.00  0.00     0.070 C 
ATOM     32  HN  UNK N   1      30.103  17.290   2.798  1.00  0.00     0.186 HD
HETATM   33  H   UNK N   1      28.619  17.340   4.818  0.00  0.00     0.187 HD
ENDBRANCH   3  22
TORSDOF 7
ENDMDL
MODEL 6
REMARK VINA RESULT:      -6.5     17.511     21.144
REMARK  7 active torsions:
REMARK  status: ('A' for Active; 'I' for Inactive)
REMARK    1  A    between atoms: C_12  and  C_28 
REMARK    2  A    between atoms: C_13  and  C_17 
REMARK    3  A    between atoms: C_15  and  O_26 
REMARK    4  A    between atoms: C_16  and  O_26 
REMARK    5  A    between atoms: C_16  and  C_27 
REMARK    6  A    between atoms: C_27  and  C_28 
REMARK    7  A    between atoms: C_27  and  N_29 
ROOT
HETATM    1  N   UNK N   1      35.266  17.298  10.011  0.00  0.00    -0.372 N 
ATOM      2  HN  UNK N   1      35.940  18.063   9.996  1.00  0.00     0.164 HD
HETATM    3  C   UNK N   1      33.368  16.199   9.051  0.00  0.00    -0.008 A 
HETATM    4  C   UNK N   1      33.500  15.212  10.013  0.00  0.00     0.051 A 
HETATM    5  C   UNK N   1      34.474  15.265  10.996  0.00  0.00     0.085 A 
HETATM    6  C   UNK N   1      35.369  16.339  10.980  0.00  0.00     0.124 A 
HETATM    7  C   UNK N   1      34.285  17.257   9.059  0.00  0.00     0.100 A 
ENDROOT
BRANCH   5   8
HETATM    8  O   UNK N   1      34.535  14.306  11.958  0.00  0.00    -0.348 OA
BRANCH   8   9
HETATM    9  C   UNK N   1      35.732  13.756  12.410  0.00  0.00     0.200 C 
BRANCH   9  10
HETATM   10  C   UNK N   1      35.826  13.620  13.942  0.00  0.00     0.102 C 
BRANCH  10  11
HETATM   11  C   UNK N   1      34.834  12.565  14.439  0.00  0.00     0.065 C 
BRANCH  11  12
HETATM   12  C   UNK N   1      35.040  12.122  15.850  0.00  0.00    -0.056 A 
HETATM   13  C   UNK N   1      34.926  13.066  16.875  0.00  0.00     0.008 A 
HETATM   14  C   UNK N   1      35.143  12.689  18.201  0.00  0.00     0.019 A 
HETATM   15  C   UNK N   1      35.475  11.366  18.504  0.00  0.00     0.011 A 
HETATM   16  C   UNK N   1      35.579  10.417  17.483  0.00  0.00     0.019 A 
HETATM   17 Br   UNK N   1      35.801  10.863  20.311  0.00  0.00    -0.051 Br
HETATM   18  C   UNK N   1      35.357  10.793  16.155  0.00  0.00     0.008 A 
ENDBRANCH  11  12
ENDBRANCH  10  11
BRANCH  10  19
HETATM   19  N   UNK N   1      37.187  13.312  14.350  0.00  0.00    -0.424 N 
HETATM   20  H   UNK N   1      38.051  12.847  14.074  0.00  0.00     0.150 HD
HETATM   21  H   UNK N   1      37.335  13.721  15.273  0.00  0.00     0.150 HD
ENDBRANCH  10  19
ENDBRANCH   9  10
ENDBRANCH   8   9
ENDBRANCH   5   8
BRANCH   3  22
HETATM   22  C   UNK N   1      32.218  16.108   8.125  0.00  0.00    -0.024 A 
HETATM   23  C   UNK N   1      32.225  15.251   6.992  0.00  0.00     0.014 A 
HETATM   24  C   UNK N   1      31.122  15.229   6.108  0.00  0.00     0.033 A 
HETATM   25  C   UNK N   1      30.053  16.080   6.385  0.00  0.00     0.060 A 
HETATM   26  C   UNK N   1      30.049  16.904   7.463  0.00  0.00     0.016 A 
HETATM   27  N   UNK N   1      28.912  16.245   5.690  0.00  0.00    -0.300 N 
HETATM   28  C   UNK N   1      28.864  17.587   7.406  0.00  0.00     0.034 A 
HETATM   29  C   UNK N   1      31.102  16.948   8.355  0.00  0.00     0.028 A 
HETATM   30  N   UNK N   1      28.184  17.167   6.314  0.00  0.00    -0.304 N 
HETATM   31  C   UNK N   1      28.382  18.625   8.360  0.00  0.00     0.070 C 
ATOM     32  HN  UNK N   1      27.266  17.503   6.019  1.00  0.00     0.186 HD
HETATM   33  H   UNK N   1      28.661  15.768   4.865  0.00  0.00     0.187 HD
ENDBRANCH   3  22
TORSDOF 7
ENDMDL
MODEL 7
REMARK VINA RESULT:      -6.4      1.337      1.580
REMARK  7 active torsions:
REMARK  status: ('A' for Active; 'I' for Inactive)
REMARK    1  A    between atoms: C_12  and  C_28 
REMARK    2  A    between atoms: C_13  and  C_17 
REMARK    3  A    between atoms: C_15  and  O_26 
REMARK    4  A    between atoms: C_16  and  O_26 
REMARK    5  A    between atoms: C_16  and  C_27 
REMARK    6  A    between atoms: C_27  and  C_28 
REMARK    7  A    between atoms: C_27  and  N_29 
ROOT
HETATM    1  N   UNK N   1      27.470  23.567  -7.622  0.00  0.00    -0.372 N 
ATOM      2  HN  UNK N   1      27.441  23.397  -8.627  1.00  0.00     0.164 HD
HETATM    3  C   UNK N   1      28.580  23.314  -5.516  0.00  0.00    -0.008 A 
HETATM    4  C   UNK N   1      27.580  24.078  -4.940  0.00  0.00     0.051 A 
HETATM    5  C   UNK N   1      26.506  24.562  -5.670  0.00  0.00     0.085 A 
HETATM    6  C   UNK N   1      26.466  24.291  -7.041  0.00  0.00     0.124 A 
HETATM    7  C   UNK N   1      28.513  23.067  -6.893  0.00  0.00     0.100 A 
ENDROOT
BRANCH   5   8
HETATM    8  O   UNK N   1      25.514  25.260  -5.057  0.00  0.00    -0.348 OA
BRANCH   8   9
HETATM    9  C   UNK N   1      25.368  26.640  -5.176  0.00  0.00     0.200 C 
BRANCH   9  10
HETATM   10  C   UNK N   1      26.331  27.455  -4.289  0.00  0.00     0.102 C 
BRANCH  10  11
HETATM   11  C   UNK N   1      27.418  28.104  -5.151  0.00  0.00     0.065 C 
BRANCH  11  12
HETATM   12  C   UNK N   1      28.740  27.413  -5.120  0.00  0.00    -0.056 A 
HETATM   13  C   UNK N   1      29.311  26.998  -6.327  0.00  0.00     0.008 A 
HETATM   14  C   UNK N   1      30.532  26.322  -6.329  0.00  0.00     0.019 A 
HETATM   15  C   UNK N   1      31.185  26.060  -5.121  0.00  0.00     0.011 A 
HETATM   16  C   UNK N   1      30.623  26.483  -3.913  0.00  0.00     0.019 A 
HETATM   17 Br   UNK N   1      32.835  25.111  -5.125  0.00  0.00    -0.051 Br
HETATM   18  C   UNK N   1      29.402  27.164  -3.911  0.00  0.00     0.008 A 
ENDBRANCH  11  12
ENDBRANCH  10  11
BRANCH  10  19
HETATM   19  N   UNK N   1      25.602  28.443  -3.509  0.00  0.00    -0.424 N 
HETATM   20  H   UNK N   1      25.219  28.655  -2.588  0.00  0.00     0.150 HD
HETATM   21  H   UNK N   1      25.392  29.230  -4.123  0.00  0.00     0.150 HD
ENDBRANCH  10  19
ENDBRANCH   9  10
ENDBRANCH   8   9
ENDBRANCH   5   8
BRANCH   3  22
HETATM   22  C   UNK N   1      29.612  22.745  -4.622  0.00  0.00    -0.024 A 
HETATM   23  C   UNK N   1      29.708  23.105  -3.252  0.00  0.00     0.014 A 
HETATM   24  C   UNK N   1      30.739  22.572  -2.445  0.00  0.00     0.033 A 
HETATM   25  C   UNK N   1      31.648  21.702  -3.047  0.00  0.00     0.060 A 
HETATM   26  C   UNK N   1      31.560  21.362  -4.358  0.00  0.00     0.016 A 
HETATM   27  N   UNK N   1      32.709  21.085  -2.493  0.00  0.00    -0.300 N 
HETATM   28  C   UNK N   1      32.609  20.516  -4.594  0.00  0.00     0.034 A 
HETATM   29  C   UNK N   1      30.563  21.855  -5.176  0.00  0.00     0.028 A 
HETATM   30  N   UNK N   1      33.298  20.359  -3.440  0.00  0.00    -0.304 N 
HETATM   31  C   UNK N   1      32.964  19.870  -5.889  0.00  0.00     0.070 C 
ATOM     32  HN  UNK N   1      34.131  19.781  -3.317  1.00  0.00     0.186 HD
HETATM   33  H   UNK N   1      32.998  21.159  -1.554  0.00  0.00     0.187 HD
ENDBRANCH   3  22
TORSDOF 7
ENDMDL
MODEL 8
REMARK VINA RESULT:      -6.3      2.866      4.643
REMARK  7 active torsions:
REMARK  status: ('A' for Active; 'I' for Inactive)
REMARK    1  A    between atoms: C_12  and  C_28 
REMARK    2  A    between atoms: C_13  and  C_17 
REMARK    3  A    between atoms: C_15  and  O_26 
REMARK    4  A    between atoms: C_16  and  O_26 
REMARK    5  A    between atoms: C_16  and  C_27 
REMARK    6  A    between atoms: C_27  and  C_28 
REMARK    7  A    between atoms: C_27  and  N_29 
ROOT
HETATM    1  N   UNK N   1      31.624  24.849  -4.861  0.00  0.00    -0.372 N 
ATOM      2  HN  UNK N   1      32.543  24.450  -5.052  1.00  0.00     0.164 HD
HETATM    3  C   UNK N   1      29.238  24.688  -4.976  0.00  0.00    -0.008 A 
HETATM    4  C   UNK N   1      29.162  25.889  -4.292  0.00  0.00     0.051 A 
HETATM    5  C   UNK N   1      30.291  26.600  -3.919  0.00  0.00     0.085 A 
HETATM    6  C   UNK N   1      31.542  26.053  -4.218  0.00  0.00     0.124 A 
HETATM    7  C   UNK N   1      30.507  24.164  -5.253  0.00  0.00     0.100 A 
ENDROOT
BRANCH   5   8
HETATM    8  O   UNK N   1      30.174  27.805  -3.300  0.00  0.00    -0.348 OA
BRANCH   8   9
HETATM    9  C   UNK N   1      28.950  28.434  -3.086  0.00  0.00     0.200 C 
BRANCH   9  10
HETATM   10  C   UNK N   1      28.597  29.503  -4.139  0.00  0.00     0.102 C 
BRANCH  10  11
HETATM   11  C   UNK N   1      27.115  29.406  -4.512  0.00  0.00     0.065 C 
BRANCH  11  12
HETATM   12  C   UNK N   1      26.798  28.410  -5.577  0.00  0.00    -0.056 A 
HETATM   13  C   UNK N   1      27.718  28.215  -6.612  0.00  0.00     0.008 A 
HETATM   14  C   UNK N   1      27.437  27.313  -7.638  0.00  0.00     0.019 A 
HETATM   15  C   UNK N   1      26.233  26.602  -7.632  0.00  0.00     0.011 A 
HETATM   16  C   UNK N   1      25.316  26.786  -6.593  0.00  0.00     0.019 A 
HETATM   17 Br   UNK N   1      25.839  25.395  -9.050  0.00  0.00    -0.051 Br
HETATM   18  C   UNK N   1      25.599  27.687  -5.562  0.00  0.00     0.008 A 
ENDBRANCH  11  12
ENDBRANCH  10  11
BRANCH  10  19
HETATM   19  N   UNK N   1      28.945  30.832  -3.661  0.00  0.00    -0.424 N 
HETATM   20  H   UNK N   1      29.566  31.629  -3.803  0.00  0.00     0.150 HD
HETATM   21  H   UNK N   1      28.327  31.053  -2.880  0.00  0.00     0.150 HD
ENDBRANCH  10  19
ENDBRANCH   9  10
ENDBRANCH   8   9
ENDBRANCH   5   8
BRANCH   3  22
HETATM   22  C   UNK N   1      27.972  24.075  -5.434  0.00  0.00    -0.024 A 
HETATM   23  C   UNK N   1      26.748  24.258  -4.738  0.00  0.00     0.014 A 
HETATM   24  C   UNK N   1      25.570  23.616  -5.186  0.00  0.00     0.033 A 
HETATM   25  C   UNK N   1      25.666  22.801  -6.312  0.00  0.00     0.060 A 
HETATM   26  C   UNK N   1      26.837  22.620  -6.974  0.00  0.00     0.016 A 
HETATM   27  N   UNK N   1      24.697  22.083  -6.912  0.00  0.00    -0.300 N 
HETATM   28  C   UNK N   1      26.556  21.761  -8.001  0.00  0.00     0.034 A 
HETATM   29  C   UNK N   1      28.006  23.237  -6.574  0.00  0.00     0.028 A 
HETATM   30  N   UNK N   1      25.241  21.447  -7.946  0.00  0.00    -0.304 N 
HETATM   31  C   UNK N   1      27.512  21.238  -9.017  0.00  0.00     0.070 C 
ATOM     32  HN  UNK N   1      24.750  20.825  -8.589  1.00  0.00     0.186 HD
HETATM   33  H   UNK N   1      23.753  22.038  -6.634  0.00  0.00     0.187 HD
ENDBRANCH   3  22
TORSDOF 7
ENDMDL
MODEL 9
REMARK VINA RESULT:      -6.3     10.837     13.681
REMARK  7 active torsions:
REMARK  status: ('A' for Active; 'I' for Inactive)
REMARK    1  A    between atoms: C_12  and  C_28 
REMARK    2  A    between atoms: C_13  and  C_17 
REMARK    3  A    between atoms: C_15  and  O_26 
REMARK    4  A    between atoms: C_16  and  O_26 
REMARK    5  A    between atoms: C_16  and  C_27 
REMARK    6  A    between atoms: C_27  and  C_28 
REMARK    7  A    between atoms: C_27  and  N_29 
ROOT
HETATM    1  N   UNK N   1      27.202  20.185   3.428  0.00  0.00    -0.372 N 
ATOM      2  HN  UNK N   1      27.807  20.430   2.645  1.00  0.00     0.164 HD
HETATM    3  C   UNK N   1      25.086  19.412   4.239  0.00  0.00    -0.008 A 
HETATM    4  C   UNK N   1      25.600  19.469   5.523  0.00  0.00     0.051 A 
HETATM    5  C   UNK N   1      26.887  19.910   5.785  0.00  0.00     0.085 A 
HETATM    6  C   UNK N   1      27.692  20.273   4.701  0.00  0.00     0.124 A 
HETATM    7  C   UNK N   1      25.921  19.776   3.175  0.00  0.00     0.100 A 
ENDROOT
BRANCH   5   8
HETATM    8  O   UNK N   1      27.335  20.007   7.065  0.00  0.00    -0.348 OA
BRANCH   8   9
HETATM    9  C   UNK N   1      28.385  19.239   7.563  0.00  0.00     0.200 C 
BRANCH   9  10
HETATM   10  C   UNK N   1      27.974  17.820   8.005  0.00  0.00     0.102 C 
BRANCH  10  11
HETATM   11  C   UNK N   1      28.514  16.784   7.015  0.00  0.00     0.065 C 
BRANCH  11  12
HETATM   12  C   UNK N   1      27.564  16.392   5.933  0.00  0.00    -0.056 A 
HETATM   13  C   UNK N   1      26.346  15.805   6.286  0.00  0.00     0.008 A 
HETATM   14  C   UNK N   1      25.449  15.401   5.296  0.00  0.00     0.019 A 
HETATM   15  C   UNK N   1      25.771  15.584   3.948  0.00  0.00     0.011 A 
HETATM   16  C   UNK N   1      26.983  16.181   3.591  0.00  0.00     0.019 A 
HETATM   17 Br   UNK N   1      24.560  15.003   2.600  0.00  0.00    -0.051 Br
HETATM   18  C   UNK N   1      27.880  16.590   4.583  0.00  0.00     0.008 A 
ENDBRANCH  11  12
ENDBRANCH  10  11
BRANCH  10  19
HETATM   19  N   UNK N   1      28.423  17.553   9.362  0.00  0.00    -0.424 N 
HETATM   20  H   UNK N   1      29.226  17.575   9.990  0.00  0.00     0.150 HD
HETATM   21  H   UNK N   1      27.623  17.207   9.891  0.00  0.00     0.150 HD
ENDBRANCH  10  19
ENDBRANCH   9  10
ENDBRANCH   8   9
ENDBRANCH   5   8
BRANCH   3  22
HETATM   22  C   UNK N   1      23.662  19.044   4.084  0.00  0.00    -0.024 A 
HETATM   23  C   UNK N   1      23.077  17.966   4.800  0.00  0.00     0.014 A 
HETATM   24  C   UNK N   1      21.722  17.619   4.587  0.00  0.00     0.033 A 
HETATM   25  C   UNK N   1      21.004  18.362   3.650  0.00  0.00     0.060 A 
HETATM   26  C   UNK N   1      21.565  19.388   2.960  0.00  0.00     0.016 A 
HETATM   27  N   UNK N   1      19.721  18.213   3.269  0.00  0.00    -0.300 N 
HETATM   28  C   UNK N   1      20.581  19.864   2.137  0.00  0.00     0.034 A 
HETATM   29  C   UNK N   1      22.881  19.762   3.147  0.00  0.00     0.028 A 
HETATM   30  N   UNK N   1      19.462  19.132   2.343  0.00  0.00    -0.304 N 
HETATM   31  C   UNK N   1      20.694  20.988   1.165  0.00  0.00     0.070 C 
ATOM     32  HN  UNK N   1      18.568  19.264   1.867  1.00  0.00     0.186 HD
HETATM   33  H   UNK N   1      19.088  17.543   3.615  0.00  0.00     0.187 HD
ENDBRANCH   3  22
TORSDOF 7
ENDMDL
