REMARK  5 active torsions:
REMARK  status: ('A' for Active; 'I' for Inactive)
REMARK    1  A    between atoms: C_1  and  O_3 
REMARK    2  A    between atoms: C_1  and  C_4 
REMARK    3  A    between atoms: C_6  and  O_7 
REMARK    4  A    between atoms: C_8  and  N_9 
REMARK       I    between atoms: N_9  and  C_10 
REMARK    5  A    between atoms: C_13  and  N_14 
ROOT
HETATM    1  C   UNK N   1       3.504   0.709   0.007  0.00  0.00     0.042 A 
HETATM    2  C   UNK N   1       3.663  -0.669   0.133  0.00  0.00     0.057 A 
HETATM    3  C   UNK N   1       2.559  -1.526   0.157  0.00  0.00     0.096 A 
HETATM    4  C   UNK N   1       1.236  -0.994   0.063  0.00  0.00     0.101 A 
HETATM    5  C   UNK N   1       1.083   0.419  -0.045  0.00  0.00     0.133 A 
HETATM    6  C   UNK N   1       2.221   1.239  -0.082  0.00  0.00     0.057 A 
ENDROOT
BRANCH   4   7
HETATM    7  N   UNK N   1       0.038  -1.787   0.054  0.00  0.00    -0.323 N 
HETATM    8  C   UNK N   1      -0.222  -3.121   0.061  0.00  0.00     0.218 C 
HETATM    9  O   UNK N   1       0.659  -3.958   0.083  0.00  0.00    -0.274 OA
HETATM   10  C   UNK N   1      -1.642  -3.566   0.016  0.00  0.00     0.117 C 
HETATM   11  H   UNK N   1      -0.780  -1.239   0.039  0.00  0.00     0.169 HD
ENDBRANCH   4   7
BRANCH   3  12
HETATM   12  O   UNK N   1       2.800  -2.837   0.275  0.00  0.00    -0.358 OA
HETATM   13  H   UNK N   1       2.089  -3.443   0.357  0.00  0.00     0.217 HD
ENDBRANCH   3  12
BRANCH   5  14
HETATM   14  N   UNK N   1      -0.207   1.044  -0.117  0.00  0.00    -0.113 N 
HETATM   15  O   UNK N   1      -0.288   2.222  -0.293  0.00  0.00    -0.532 OA
HETATM   16  O   UNK N   1      -1.312   0.355   0.077  0.00  0.00    -0.532 OA
ENDBRANCH   5  14
BRANCH   1  17
HETATM   17  C   UNK N   1       4.675   1.609  -0.032  0.00  0.00     0.176 C 
HETATM   18  O   UNK N   1       5.805   1.158   0.081  0.00  0.00    -0.646 OA
BRANCH  17  19
HETATM   19  O   UNK N   1       4.505   2.936  -0.198  0.00  0.00    -0.773 OA
HETATM   20  H   UNK N   1       5.244   3.500  -0.313  0.00  0.00     0.167 HD
ENDBRANCH  17  19
ENDBRANCH   1  17
TORSDOF 5
