MODEL 1
REMARK VINA RESULT:      -5.9      0.000      0.000
REMARK  5 active torsions:
REMARK  status: ('A' for Active; 'I' for Inactive)
REMARK    1  A    between atoms: C_1  and  O_3 
REMARK    2  A    between atoms: C_1  and  C_4 
REMARK    3  A    between atoms: C_6  and  O_7 
REMARK    4  A    between atoms: C_8  and  N_9 
REMARK       I    between atoms: N_9  and  C_10 
REMARK    5  A    between atoms: C_13  and  N_14 
ROOT
HETATM    1  C   UNK N   1      42.221  21.470   2.897  0.00  0.00     0.042 A 
HETATM    2  C   UNK N   1      43.362  21.385   3.691  0.00  0.00     0.057 A 
HETATM    3  C   UNK N   1      44.497  22.151   3.413  0.00  0.00     0.096 A 
HETATM    4  C   UNK N   1      44.508  23.035   2.290  0.00  0.00     0.101 A 
HETATM    5  C   UNK N   1      43.343  23.100   1.471  0.00  0.00     0.133 A 
HETATM    6  C   UNK N   1      42.221  22.325   1.799  0.00  0.00     0.057 A 
ENDROOT
BRANCH   4   7
HETATM    7  N   UNK N   1      45.611  23.882   1.930  0.00  0.00    -0.323 N 
HETATM    8  C   UNK N   1      45.937  25.179   2.176  0.00  0.00     0.218 C 
HETATM    9  O   UNK N   1      45.233  25.914   2.840  0.00  0.00    -0.274 OA
HETATM   10  C   UNK N   1      47.194  25.717   1.587  0.00  0.00     0.117 C 
HETATM   11  H   UNK N   1      46.284  23.418   1.381  0.00  0.00     0.169 HD
ENDBRANCH   4   7
BRANCH   3  12
HETATM   12  O   UNK N   1      45.549  22.014   4.229  0.00  0.00    -0.358 OA
HETATM   13  H   UNK N   1      46.272  22.608   4.173  0.00  0.00     0.217 HD
ENDBRANCH   3  12
BRANCH   5  14
HETATM   14  N   UNK N   1      43.273  23.938   0.308  0.00  0.00    -0.113 N 
HETATM   15  O   UNK N   1      43.650  23.525  -0.746  0.00  0.00    -0.532 OA
HETATM   16  O   UNK N   1      42.863  25.187   0.389  0.00  0.00    -0.532 OA
ENDBRANCH   5  14
BRANCH   1  17
HETATM   17  C   UNK N   1      41.019  20.669   3.205  0.00  0.00     0.176 C 
HETATM   18  O   UNK N   1      41.108  19.657   3.885  0.00  0.00    -0.646 OA
BRANCH  17  19
HETATM   19  O   UNK N   1      39.812  21.050   2.740  0.00  0.00    -0.773 OA
HETATM   20  H   UNK N   1      39.308  21.694   3.198  0.00  0.00     0.167 HD
ENDBRANCH  17  19
ENDBRANCH   1  17
TORSDOF 5
ENDMDL
MODEL 2
REMARK VINA RESULT:      -5.9     22.273     24.046
REMARK  5 active torsions:
REMARK  status: ('A' for Active; 'I' for Inactive)
REMARK    1  A    between atoms: C_1  and  O_3 
REMARK    2  A    between atoms: C_1  and  C_4 
REMARK    3  A    between atoms: C_6  and  O_7 
REMARK    4  A    between atoms: C_8  and  N_9 
REMARK       I    between atoms: N_9  and  C_10 
REMARK    5  A    between atoms: C_13  and  N_14 
ROOT
HETATM    1  C   UNK N   1      20.788  19.226   2.163  0.00  0.00     0.042 A 
HETATM    2  C   UNK N   1      20.175  18.045   1.751  0.00  0.00     0.057 A 
HETATM    3  C   UNK N   1      20.151  16.916   2.574  0.00  0.00     0.096 A 
HETATM    4  C   UNK N   1      20.771  16.953   3.860  0.00  0.00     0.101 A 
HETATM    5  C   UNK N   1      21.414  18.159   4.265  0.00  0.00     0.133 A 
HETATM    6  C   UNK N   1      21.399  19.273   3.412  0.00  0.00     0.057 A 
ENDROOT
BRANCH   4   7
HETATM    7  N   UNK N   1      20.782  15.858   4.791  0.00  0.00    -0.323 N 
HETATM    8  C   UNK N   1      19.875  15.333   5.655  0.00  0.00     0.218 C 
HETATM    9  O   UNK N   1      18.753  15.784   5.778  0.00  0.00    -0.274 OA
HETATM   10  C   UNK N   1      20.286  14.177   6.498  0.00  0.00     0.117 C 
HETATM   11  H   UNK N   1      21.643  15.380   4.805  0.00  0.00     0.169 HD
ENDBRANCH   4   7
BRANCH   3  12
HETATM   12  O   UNK N   1      19.535  15.825   2.103  0.00  0.00    -0.358 OA
HETATM   13  H   UNK N   1      19.271  15.781   1.204  0.00  0.00     0.217 HD
ENDBRANCH   3  12
BRANCH   5  14
HETATM   14  N   UNK N   1      22.087  18.279   5.527  0.00  0.00    -0.113 N 
HETATM   15  O   UNK N   1      23.259  18.065   5.599  0.00  0.00    -0.532 OA
HETATM   16  O   UNK N   1      21.424  18.555   6.631  0.00  0.00    -0.532 OA
ENDBRANCH   5  14
BRANCH   1  17
HETATM   17  C   UNK N   1      20.799  20.421   1.295  0.00  0.00     0.176 C 
HETATM   18  O   UNK N   1      21.032  21.524   1.765  0.00  0.00    -0.646 OA
BRANCH  17  19
HETATM   19  O   UNK N   1      20.556  20.302  -0.026  0.00  0.00    -0.773 OA
HETATM   20  H   UNK N   1      19.916  19.693  -0.339  0.00  0.00     0.167 HD
ENDBRANCH  17  19
ENDBRANCH   1  17
TORSDOF 5
ENDMDL
MODEL 3
REMARK VINA RESULT:      -5.8     12.517     14.843
REMARK  5 active torsions:
REMARK  status: ('A' for Active; 'I' for Inactive)
REMARK    1  A    between atoms: C_1  and  O_3 
REMARK    2  A    between atoms: C_1  and  C_4 
REMARK    3  A    between atoms: C_6  and  O_7 
REMARK    4  A    between atoms: C_8  and  N_9 
REMARK       I    between atoms: N_9  and  C_10 
REMARK    5  A    between atoms: C_13  and  N_14 
ROOT
HETATM    1  C   UNK N   1      29.881  17.784   8.291  0.00  0.00     0.042 A 
HETATM    2  C   UNK N   1      29.284  17.215   7.168  0.00  0.00     0.057 A 
HETATM    3  C   UNK N   1      30.054  16.701   6.121  0.00  0.00     0.096 A 
HETATM    4  C   UNK N   1      31.481  16.761   6.183  0.00  0.00     0.101 A 
HETATM    5  C   UNK N   1      32.081  17.363   7.327  0.00  0.00     0.133 A 
HETATM    6  C   UNK N   1      31.269  17.851   8.361  0.00  0.00     0.057 A 
ENDROOT
BRANCH   4   7
HETATM    7  N   UNK N   1      32.362  16.241   5.175  0.00  0.00    -0.323 N 
HETATM    8  C   UNK N   1      32.501  16.436   3.837  0.00  0.00     0.218 C 
HETATM    9  O   UNK N   1      31.790  17.198   3.211  0.00  0.00    -0.274 OA
HETATM   10  C   UNK N   1      33.549  15.666   3.114  0.00  0.00     0.117 C 
HETATM   11  H   UNK N   1      33.014  15.597   5.536  0.00  0.00     0.169 HD
ENDBRANCH   4   7
BRANCH   3  12
HETATM   12  O   UNK N   1      29.402  16.167   5.082  0.00  0.00    -0.358 OA
HETATM   13  H   UNK N   1      29.467  16.557   4.231  0.00  0.00     0.217 HD
ENDBRANCH   3  12
BRANCH   5  14
HETATM   14  N   UNK N   1      33.504  17.492   7.463  0.00  0.00    -0.113 N 
HETATM   15  O   UNK N   1      34.036  17.169   8.482  0.00  0.00    -0.532 OA
HETATM   16  O   UNK N   1      34.237  18.026   6.509  0.00  0.00    -0.532 OA
ENDBRANCH   5  14
BRANCH   1  17
HETATM   17  C   UNK N   1      29.062  18.313   9.401  0.00  0.00     0.176 C 
HETATM   18  O   UNK N   1      29.594  18.872  10.349  0.00  0.00    -0.646 OA
BRANCH  17  19
HETATM   19  O   UNK N   1      27.720  18.188   9.373  0.00  0.00    -0.773 OA
HETATM   20  H   UNK N   1      27.318  17.348   9.469  0.00  0.00     0.167 HD
ENDBRANCH  17  19
ENDBRANCH   1  17
TORSDOF 5
ENDMDL
MODEL 4
REMARK VINA RESULT:      -5.7     12.370     15.080
REMARK  5 active torsions:
REMARK  status: ('A' for Active; 'I' for Inactive)
REMARK    1  A    between atoms: C_1  and  O_3 
REMARK    2  A    between atoms: C_1  and  C_4 
REMARK    3  A    between atoms: C_6  and  O_7 
REMARK    4  A    between atoms: C_8  and  N_9 
REMARK       I    between atoms: N_9  and  C_10 
REMARK    5  A    between atoms: C_13  and  N_14 
ROOT
HETATM    1  C   UNK N   1      29.449  17.889   7.976  0.00  0.00     0.042 A 
HETATM    2  C   UNK N   1      30.632  18.161   8.659  0.00  0.00     0.057 A 
HETATM    3  C   UNK N   1      31.825  17.514   8.325  0.00  0.00     0.096 A 
HETATM    4  C   UNK N   1      31.847  16.545   7.275  0.00  0.00     0.101 A 
HETATM    5  C   UNK N   1      30.627  16.259   6.596  0.00  0.00     0.133 A 
HETATM    6  C   UNK N   1      29.456  16.945   6.954  0.00  0.00     0.057 A 
ENDROOT
BRANCH   4   7
HETATM    7  N   UNK N   1      33.022  15.843   6.838  0.00  0.00    -0.323 N 
HETATM    8  C   UNK N   1      34.248  16.223   6.393  0.00  0.00     0.218 C 
HETATM    9  O   UNK N   1      34.574  17.389   6.290  0.00  0.00    -0.274 OA
HETATM   10  C   UNK N   1      35.217  15.164   5.996  0.00  0.00     0.117 C 
HETATM   11  H   UNK N   1      32.913  14.865   6.868  0.00  0.00     0.169 HD
ENDBRANCH   4   7
BRANCH   3  12
HETATM   12  O   UNK N   1      32.918  17.838   9.027  0.00  0.00    -0.358 OA
HETATM   13  H   UNK N   1      33.454  17.167   9.404  0.00  0.00     0.217 HD
ENDBRANCH   3  12
BRANCH   5  14
HETATM   14  N   UNK N   1      30.547  15.282   5.548  0.00  0.00    -0.113 N 
HETATM   15  O   UNK N   1      30.225  15.616   4.447  0.00  0.00    -0.532 OA
HETATM   16  O   UNK N   1      30.756  14.005   5.787  0.00  0.00    -0.532 OA
ENDBRANCH   5  14
BRANCH   1  17
HETATM   17  C   UNK N   1      28.193  18.585   8.324  0.00  0.00     0.176 C 
HETATM   18  O   UNK N   1      27.788  19.509   7.635  0.00  0.00    -0.646 OA
BRANCH  17  19
HETATM   19  O   UNK N   1      27.482  18.202   9.403  0.00  0.00    -0.773 OA
HETATM   20  H   UNK N   1      26.659  18.606   9.599  0.00  0.00     0.167 HD
ENDBRANCH  17  19
ENDBRANCH   1  17
TORSDOF 5
ENDMDL
MODEL 5
REMARK VINA RESULT:      -5.7     22.821     24.567
REMARK  5 active torsions:
REMARK  status: ('A' for Active; 'I' for Inactive)
REMARK    1  A    between atoms: C_1  and  O_3 
REMARK    2  A    between atoms: C_1  and  C_4 
REMARK    3  A    between atoms: C_6  and  O_7 
REMARK    4  A    between atoms: C_8  and  N_9 
REMARK       I    between atoms: N_9  and  C_10 
REMARK    5  A    between atoms: C_13  and  N_14 
ROOT
HETATM    1  C   UNK N   1      20.584  18.506   3.265  0.00  0.00     0.042 A 
HETATM    2  C   UNK N   1      21.506  18.820   4.260  0.00  0.00     0.057 A 
HETATM    3  C   UNK N   1      21.571  18.081   5.445  0.00  0.00     0.096 A 
HETATM    4  C   UNK N   1      20.675  16.988   5.660  0.00  0.00     0.101 A 
HETATM    5  C   UNK N   1      19.722  16.688   4.643  0.00  0.00     0.133 A 
HETATM    6  C   UNK N   1      19.705  17.446   3.463  0.00  0.00     0.057 A 
ENDROOT
BRANCH   4   7
HETATM    7  N   UNK N   1      20.675  16.152   6.828  0.00  0.00    -0.323 N 
HETATM    8  C   UNK N   1      20.567  16.381   8.163  0.00  0.00     0.218 C 
HETATM    9  O   UNK N   1      20.431  17.497   8.626  0.00  0.00    -0.274 OA
HETATM   10  C   UNK N   1      20.643  15.218   9.090  0.00  0.00     0.117 C 
HETATM   11  H   UNK N   1      20.777  15.197   6.612  0.00  0.00     0.169 HD
ENDBRANCH   4   7
BRANCH   3  12
HETATM   12  O   UNK N   1      22.490  18.445   6.348  0.00  0.00    -0.358 OA
HETATM   13  H   UNK N   1      22.354  19.205   6.880  0.00  0.00     0.217 HD
ENDBRANCH   3  12
BRANCH   5  14
HETATM   14  N   UNK N   1      18.766  15.627   4.783  0.00  0.00    -0.113 N 
HETATM   15  O   UNK N   1      17.919  15.696   5.621  0.00  0.00    -0.532 OA
HETATM   16  O   UNK N   1      18.843  14.536   4.049  0.00  0.00    -0.532 OA
ENDBRANCH   5  14
BRANCH   1  17
HETATM   17  C   UNK N   1      20.529  19.281   2.008  0.00  0.00     0.176 C 
HETATM   18  O   UNK N   1      20.739  20.485   2.015  0.00  0.00    -0.646 OA
BRANCH  17  19
HETATM   19  O   UNK N   1      20.250  18.664   0.842  0.00  0.00    -0.773 OA
HETATM   20  H   UNK N   1      20.934  18.466   0.233  0.00  0.00     0.167 HD
ENDBRANCH  17  19
ENDBRANCH   1  17
TORSDOF 5
ENDMDL
MODEL 6
REMARK VINA RESULT:      -5.6     12.702     14.542
REMARK  5 active torsions:
REMARK  status: ('A' for Active; 'I' for Inactive)
REMARK    1  A    between atoms: C_1  and  O_3 
REMARK    2  A    between atoms: C_1  and  C_4 
REMARK    3  A    between atoms: C_6  and  O_7 
REMARK    4  A    between atoms: C_8  and  N_9 
REMARK       I    between atoms: N_9  and  C_10 
REMARK    5  A    between atoms: C_13  and  N_14 
ROOT
HETATM    1  C   UNK N   1      35.305  14.727  11.739  0.00  0.00     0.042 A 
HETATM    2  C   UNK N   1      35.610  16.054  11.446  0.00  0.00     0.057 A 
HETATM    3  C   UNK N   1      35.292  16.612  10.204  0.00  0.00     0.096 A 
HETATM    4  C   UNK N   1      34.654  15.818   9.203  0.00  0.00     0.101 A 
HETATM    5  C   UNK N   1      34.365  14.455   9.505  0.00  0.00     0.133 A 
HETATM    6  C   UNK N   1      34.687  13.942  10.771  0.00  0.00     0.057 A 
ENDROOT
BRANCH   4   7
HETATM    7  N   UNK N   1      34.264  16.300   7.906  0.00  0.00    -0.323 N 
HETATM    8  C   UNK N   1      33.563  17.375   7.461  0.00  0.00     0.218 C 
HETATM    9  O   UNK N   1      33.100  18.210   8.213  0.00  0.00    -0.274 OA
HETATM   10  C   UNK N   1      33.338  17.516   5.996  0.00  0.00     0.117 C 
HETATM   11  H   UNK N   1      34.576  15.718   7.175  0.00  0.00     0.169 HD
ENDBRANCH   4   7
BRANCH   3  12
HETATM   12  O   UNK N   1      35.614  17.896  10.006  0.00  0.00    -0.358 OA
HETATM   13  H   UNK N   1      35.856  18.197   9.151  0.00  0.00     0.217 HD
ENDBRANCH   3  12
BRANCH   5  14
HETATM   14  N   UNK N   1      33.751  13.575   8.552  0.00  0.00    -0.113 N 
HETATM   15  O   UNK N   1      34.344  13.262   7.564  0.00  0.00    -0.532 OA
HETATM   16  O   UNK N   1      32.513  13.156   8.708  0.00  0.00    -0.532 OA
ENDBRANCH   5  14
BRANCH   1  17
HETATM   17  C   UNK N   1      35.631  14.146  13.058  0.00  0.00     0.176 C 
HETATM   18  O   UNK N   1      34.823  13.433  13.635  0.00  0.00    -0.646 OA
BRANCH  17  19
HETATM   19  O   UNK N   1      36.824  14.395  13.632  0.00  0.00    -0.773 OA
HETATM   20  H   UNK N   1      37.499  13.744  13.630  0.00  0.00     0.167 HD
ENDBRANCH  17  19
ENDBRANCH   1  17
TORSDOF 5
ENDMDL
MODEL 7
REMARK VINA RESULT:      -5.6     24.816     25.634
REMARK  5 active torsions:
REMARK  status: ('A' for Active; 'I' for Inactive)
REMARK    1  A    between atoms: C_1  and  O_3 
REMARK    2  A    between atoms: C_1  and  C_4 
REMARK    3  A    between atoms: C_6  and  O_7 
REMARK    4  A    between atoms: C_8  and  N_9 
REMARK       I    between atoms: N_9  and  C_10 
REMARK    5  A    between atoms: C_13  and  N_14 
ROOT
HETATM    1  C   UNK N   1      21.326  12.958   9.662  0.00  0.00     0.042 A 
HETATM    2  C   UNK N   1      21.665  12.494   8.393  0.00  0.00     0.057 A 
HETATM    3  C   UNK N   1      21.377  13.242   7.247  0.00  0.00     0.096 A 
HETATM    4  C   UNK N   1      20.712  14.502   7.362  0.00  0.00     0.101 A 
HETATM    5  C   UNK N   1      20.351  14.958   8.663  0.00  0.00     0.133 A 
HETATM    6  C   UNK N   1      20.675  14.181   9.786  0.00  0.00     0.057 A 
ENDROOT
BRANCH   4   7
HETATM    7  N   UNK N   1      20.392  15.358   6.253  0.00  0.00    -0.323 N 
HETATM    8  C   UNK N   1      19.405  15.378   5.320  0.00  0.00     0.218 C 
HETATM    9  O   UNK N   1      18.516  14.550   5.290  0.00  0.00    -0.274 OA
HETATM   10  C   UNK N   1      19.433  16.446   4.282  0.00  0.00     0.117 C 
HETATM   11  H   UNK N   1      21.034  16.096   6.146  0.00  0.00     0.169 HD
ENDBRANCH   4   7
BRANCH   3  12
HETATM   12  O   UNK N   1      21.742  12.726   6.068  0.00  0.00    -0.358 OA
HETATM   13  H   UNK N   1      22.649  12.667   5.838  0.00  0.00     0.217 HD
ENDBRANCH   3  12
BRANCH   5  14
HETATM   14  N   UNK N   1      19.657  16.197   8.872  0.00  0.00    -0.113 N 
HETATM   15  O   UNK N   1      18.470  16.199   9.004  0.00  0.00    -0.532 OA
HETATM   16  O   UNK N   1      20.294  17.349   8.854  0.00  0.00    -0.532 OA
ENDBRANCH   5  14
BRANCH   1  17
HETATM   17  C   UNK N   1      21.645  12.170  10.870  0.00  0.00     0.176 C 
HETATM   18  O   UNK N   1      22.782  11.765  11.060  0.00  0.00    -0.646 OA
BRANCH  17  19
HETATM   19  O   UNK N   1      20.684  11.896  11.775  0.00  0.00    -0.773 OA
HETATM   20  H   UNK N   1      20.906  11.536  12.610  0.00  0.00     0.167 HD
ENDBRANCH  17  19
ENDBRANCH   1  17
TORSDOF 5
ENDMDL
MODEL 8
REMARK VINA RESULT:      -5.5     22.871     24.426
REMARK  5 active torsions:
REMARK  status: ('A' for Active; 'I' for Inactive)
REMARK    1  A    between atoms: C_1  and  O_3 
REMARK    2  A    between atoms: C_1  and  C_4 
REMARK    3  A    between atoms: C_6  and  O_7 
REMARK    4  A    between atoms: C_8  and  N_9 
REMARK       I    between atoms: N_9  and  C_10 
REMARK    5  A    between atoms: C_13  and  N_14 
ROOT
HETATM    1  C   UNK N   1      22.705  12.710  10.562  0.00  0.00     0.042 A 
HETATM    2  C   UNK N   1      21.376  13.124  10.619  0.00  0.00     0.057 A 
HETATM    3  C   UNK N   1      20.783  13.805   9.552  0.00  0.00     0.096 A 
HETATM    4  C   UNK N   1      21.543  14.100   8.379  0.00  0.00     0.101 A 
HETATM    5  C   UNK N   1      22.908  13.690   8.338  0.00  0.00     0.133 A 
HETATM    6  C   UNK N   1      23.456  12.994   9.426  0.00  0.00     0.057 A 
ENDROOT
BRANCH   4   7
HETATM    7  N   UNK N   1      21.025  14.772   7.220  0.00  0.00    -0.323 N 
HETATM    8  C   UNK N   1      20.752  16.067   6.911  0.00  0.00     0.218 C 
HETATM    9  O   UNK N   1      20.943  16.979   7.692  0.00  0.00    -0.274 OA
HETATM   10  C   UNK N   1      20.177  16.370   5.572  0.00  0.00     0.117 C 
HETATM   11  H   UNK N   1      20.819  14.153   6.482  0.00  0.00     0.169 HD
ENDBRANCH   4   7
BRANCH   3  12
HETATM   12  O   UNK N   1      19.501  14.162   9.687  0.00  0.00    -0.358 OA
HETATM   13  H   UNK N   1      19.120  14.246  10.540  0.00  0.00     0.217 HD
ENDBRANCH   3  12
BRANCH   5  14
HETATM   14  N   UNK N   1      23.755  13.966   7.213  0.00  0.00    -0.113 N 
HETATM   15  O   UNK N   1      24.243  13.065   6.600  0.00  0.00    -0.532 OA
HETATM   16  O   UNK N   1      24.066  15.201   6.878  0.00  0.00    -0.532 OA
ENDBRANCH   5  14
BRANCH   1  17
HETATM   17  C   UNK N   1      23.322  11.978  11.687  0.00  0.00     0.176 C 
HETATM   18  O   UNK N   1      24.538  11.905  11.783  0.00  0.00    -0.646 OA
BRANCH  17  19
HETATM   19  O   UNK N   1      22.547  11.389  12.619  0.00  0.00    -0.773 OA
HETATM   20  H   UNK N   1      22.229  10.517  12.493  0.00  0.00     0.167 HD
ENDBRANCH  17  19
ENDBRANCH   1  17
TORSDOF 5
ENDMDL
MODEL 9
REMARK VINA RESULT:      -5.5     11.899     14.129
REMARK  5 active torsions:
REMARK  status: ('A' for Active; 'I' for Inactive)
REMARK    1  A    between atoms: C_1  and  O_3 
REMARK    2  A    between atoms: C_1  and  C_4 
REMARK    3  A    between atoms: C_6  and  O_7 
REMARK    4  A    between atoms: C_8  and  N_9 
REMARK       I    between atoms: N_9  and  C_10 
REMARK    5  A    between atoms: C_13  and  N_14 
ROOT
HETATM    1  C   UNK N   1      30.871  17.873   8.347  0.00  0.00     0.042 A 
HETATM    2  C   UNK N   1      30.711  16.958   7.309  0.00  0.00     0.057 A 
HETATM    3  C   UNK N   1      31.815  16.355   6.698  0.00  0.00     0.096 A 
HETATM    4  C   UNK N   1      33.138  16.680   7.128  0.00  0.00     0.101 A 
HETATM    5  C   UNK N   1      33.292  17.632   8.178  0.00  0.00     0.133 A 
HETATM    6  C   UNK N   1      32.155  18.199   8.772  0.00  0.00     0.057 A 
ENDROOT
BRANCH   4   7
HETATM    7  N   UNK N   1      34.336  16.101   6.586  0.00  0.00    -0.323 N 
HETATM    8  C   UNK N   1      35.006  14.936   6.785  0.00  0.00     0.218 C 
HETATM    9  O   UNK N   1      34.624  14.088   7.568  0.00  0.00    -0.274 OA
HETATM   10  C   UNK N   1      36.267  14.706   6.028  0.00  0.00     0.117 C 
HETATM   11  H   UNK N   1      34.769  16.682   5.919  0.00  0.00     0.169 HD
ENDBRANCH   4   7
BRANCH   3  12
HETATM   12  O   UNK N   1      31.573  15.484   5.712  0.00  0.00    -0.358 OA
HETATM   13  H   UNK N   1      30.943  15.686   5.047  0.00  0.00     0.217 HD
ENDBRANCH   3  12
BRANCH   5  14
HETATM   14  N   UNK N   1      34.583  18.040   8.656  0.00  0.00    -0.113 N 
HETATM   15  O   UNK N   1      35.174  17.352   9.432  0.00  0.00    -0.532 OA
HETATM   16  O   UNK N   1      35.105  19.198   8.310  0.00  0.00    -0.532 OA
ENDBRANCH   5  14
BRANCH   1  17
HETATM   17  C   UNK N   1      29.701  18.496   8.998  0.00  0.00     0.176 C 
HETATM   18  O   UNK N   1      28.709  18.782   8.344  0.00  0.00    -0.646 OA
BRANCH  17  19
HETATM   19  O   UNK N   1      29.716  18.750  10.322  0.00  0.00    -0.773 OA
HETATM   20  H   UNK N   1      28.941  18.642  10.837  0.00  0.00     0.167 HD
ENDBRANCH  17  19
ENDBRANCH   1  17
TORSDOF 5
ENDMDL
