MODEL 1
REMARK VINA RESULT:      -5.8      0.000      0.000
REMARK  5 active torsions:
REMARK  status: ('A' for Active; 'I' for Inactive)
REMARK    1  A    between atoms: C_1  and  O_3 
REMARK    2  A    between atoms: C_1  and  C_4 
REMARK    3  A    between atoms: C_6  and  N_7 
REMARK    4  A    between atoms: C_8  and  N_9 
REMARK       I    between atoms: N_9  and  C_10 
REMARK    5  A    between atoms: C_13  and  O_14 
ROOT
HETATM    1  C   UNK N   1      42.430  20.915   3.235  0.00  0.00     0.042 A 
HETATM    2  C   UNK N   1      43.700  21.016   3.803  0.00  0.00     0.049 A 
HETATM    3  C   UNK N   1      44.454  22.185   3.652  0.00  0.00     0.056 A 
HETATM    4  C   UNK N   1      43.949  23.287   2.922  0.00  0.00     0.094 A 
HETATM    5  C   UNK N   1      42.650  23.165   2.348  0.00  0.00     0.095 A 
HETATM    6  C   UNK N   1      41.921  21.990   2.515  0.00  0.00     0.057 A 
ENDROOT
BRANCH   4   7
HETATM    7  N   UNK N   1      44.807  24.442   2.828  0.00  0.00    -0.323 N 
HETATM    8  C   UNK N   1      45.632  24.972   1.877  0.00  0.00     0.218 C 
HETATM    9  O   UNK N   1      46.233  26.001   2.142  0.00  0.00    -0.274 OA
HETATM   10  C   UNK N   1      45.859  24.387   0.531  0.00  0.00     0.117 C 
HETATM   11  H   UNK N   1      44.796  24.981   3.651  0.00  0.00     0.169 HD
ENDBRANCH   4   7
BRANCH   3  12
HETATM   12  N   UNK N   1      45.735  22.250   4.241  0.00  0.00    -0.397 N 
HETATM   13  H   UNK N   1      46.434  22.815   3.839  0.00  0.00     0.156 HD
HETATM   14  H   UNK N   1      45.929  21.731   5.055  0.00  0.00     0.156 HD
ENDBRANCH   3  12
BRANCH   5  15
HETATM   15  O   UNK N   1      42.071  24.136   1.641  0.00  0.00    -0.358 OA
HETATM   16  H   UNK N   1      42.099  25.021   1.949  0.00  0.00     0.217 HD
ENDBRANCH   5  15
BRANCH   1  17
HETATM   17  C   UNK N   1      41.621  19.690   3.384  0.00  0.00     0.176 C 
HETATM   18  O   UNK N   1      42.016  18.633   2.914  0.00  0.00    -0.646 OA
BRANCH  17  19
HETATM   19  O   UNK N   1      40.444  19.724   4.037  0.00  0.00    -0.773 OA
HETATM   20  H   UNK N   1      40.364  19.321   4.879  0.00  0.00     0.167 HD
ENDBRANCH  17  19
ENDBRANCH   1  17
TORSDOF 5
ENDMDL
MODEL 2
REMARK VINA RESULT:      -5.5     12.173     14.537
REMARK  5 active torsions:
REMARK  status: ('A' for Active; 'I' for Inactive)
REMARK    1  A    between atoms: C_1  and  O_3 
REMARK    2  A    between atoms: C_1  and  C_4 
REMARK    3  A    between atoms: C_6  and  N_7 
REMARK    4  A    between atoms: C_8  and  N_9 
REMARK       I    between atoms: N_9  and  C_10 
REMARK    5  A    between atoms: C_13  and  O_14 
ROOT
HETATM    1  C   UNK N   1      34.545  17.035   9.132  0.00  0.00     0.042 A 
HETATM    2  C   UNK N   1      33.603  16.031   8.906  0.00  0.00     0.049 A 
HETATM    3  C   UNK N   1      33.555  14.904   9.734  0.00  0.00     0.056 A 
HETATM    4  C   UNK N   1      34.456  14.756  10.815  0.00  0.00     0.094 A 
HETATM    5  C   UNK N   1      35.412  15.792  11.030  0.00  0.00     0.095 A 
HETATM    6  C   UNK N   1      35.437  16.903  10.190  0.00  0.00     0.057 A 
ENDROOT
BRANCH   4   7
HETATM    7  N   UNK N   1      34.320  13.558  11.605  0.00  0.00    -0.323 N 
HETATM    8  C   UNK N   1      35.092  12.460  11.857  0.00  0.00     0.218 C 
HETATM    9  O   UNK N   1      34.650  11.601  12.603  0.00  0.00    -0.274 OA
HETATM   10  C   UNK N   1      36.443  12.226  11.287  0.00  0.00     0.117 C 
HETATM   11  H   UNK N   1      33.458  13.522  12.079  0.00  0.00     0.169 HD
ENDBRANCH   4   7
BRANCH   3  12
HETATM   12  N   UNK N   1      32.589  13.909   9.474  0.00  0.00    -0.397 N 
HETATM   13  H   UNK N   1      31.630  14.133   9.504  0.00  0.00     0.156 HD
HETATM   14  H   UNK N   1      32.873  12.990   9.262  0.00  0.00     0.156 HD
ENDBRANCH   3  12
BRANCH   5  15
HETATM   15  O   UNK N   1      36.310  15.763  12.015  0.00  0.00    -0.358 OA
HETATM   16  H   UNK N   1      37.005  16.390  12.033  0.00  0.00     0.217 HD
ENDBRANCH   5  15
BRANCH   1  17
HETATM   17  C   UNK N   1      34.610  18.230   8.269  0.00  0.00     0.176 C 
HETATM   18  O   UNK N   1      33.981  18.265   7.222  0.00  0.00    -0.646 OA
BRANCH  17  19
HETATM   19  O   UNK N   1      35.360  19.290   8.625  0.00  0.00    -0.773 OA
HETATM   20  H   UNK N   1      35.267  19.664   9.480  0.00  0.00     0.167 HD
ENDBRANCH  17  19
ENDBRANCH   1  17
TORSDOF 5
ENDMDL
MODEL 3
REMARK VINA RESULT:      -5.5     11.810     14.469
REMARK  5 active torsions:
REMARK  status: ('A' for Active; 'I' for Inactive)
REMARK    1  A    between atoms: C_1  and  O_3 
REMARK    2  A    between atoms: C_1  and  C_4 
REMARK    3  A    between atoms: C_6  and  N_7 
REMARK    4  A    between atoms: C_8  and  N_9 
REMARK       I    between atoms: N_9  and  C_10 
REMARK    5  A    between atoms: C_13  and  O_14 
ROOT
HETATM    1  C   UNK N   1      34.539  17.044   9.162  0.00  0.00     0.042 A 
HETATM    2  C   UNK N   1      35.450  16.876  10.205  0.00  0.00     0.049 A 
HETATM    3  C   UNK N   1      35.383  15.747  11.030  0.00  0.00     0.056 A 
HETATM    4  C   UNK N   1      34.394  14.755  10.828  0.00  0.00     0.094 A 
HETATM    5  C   UNK N   1      33.472  14.946   9.758  0.00  0.00     0.095 A 
HETATM    6  C   UNK N   1      33.562  16.078   8.951  0.00  0.00     0.057 A 
ENDROOT
BRANCH   4   7
HETATM    7  N   UNK N   1      34.414  13.634  11.734  0.00  0.00    -0.323 N 
HETATM    8  C   UNK N   1      34.893  12.356  11.698  0.00  0.00     0.218 C 
HETATM    9  O   UNK N   1      34.730  11.650  12.679  0.00  0.00    -0.274 OA
HETATM   10  C   UNK N   1      35.605  11.751  10.544  0.00  0.00     0.117 C 
HETATM   11  H   UNK N   1      33.974  13.841  12.589  0.00  0.00     0.169 HD
ENDBRANCH   4   7
BRANCH   3  12
HETATM   12  N   UNK N   1      36.322  15.611  12.075  0.00  0.00    -0.397 N 
HETATM   13  H   UNK N   1      36.281  16.209  12.856  0.00  0.00     0.156 HD
HETATM   14  H   UNK N   1      37.018  14.916  12.023  0.00  0.00     0.156 HD
ENDBRANCH   3  12
BRANCH   5  15
HETATM   15  O   UNK N   1      32.499  14.080   9.471  0.00  0.00    -0.358 OA
HETATM   16  H   UNK N   1      32.226  13.453  10.112  0.00  0.00     0.217 HD
ENDBRANCH   5  15
BRANCH   1  17
HETATM   17  C   UNK N   1      34.595  18.228   8.283  0.00  0.00     0.176 C 
HETATM   18  O   UNK N   1      33.954  18.250   7.242  0.00  0.00    -0.646 OA
BRANCH  17  19
HETATM   19  O   UNK N   1      35.350  19.292   8.616  0.00  0.00    -0.773 OA
HETATM   20  H   UNK N   1      35.722  19.831   7.946  0.00  0.00     0.167 HD
ENDBRANCH  17  19
ENDBRANCH   1  17
TORSDOF 5
ENDMDL
MODEL 4
REMARK VINA RESULT:      -5.5     12.157     13.721
REMARK  5 active torsions:
REMARK  status: ('A' for Active; 'I' for Inactive)
REMARK    1  A    between atoms: C_1  and  O_3 
REMARK    2  A    between atoms: C_1  and  C_4 
REMARK    3  A    between atoms: C_6  and  N_7 
REMARK    4  A    between atoms: C_8  and  N_9 
REMARK       I    between atoms: N_9  and  C_10 
REMARK    5  A    between atoms: C_13  and  O_14 
ROOT
HETATM    1  C   UNK N   1      31.004  17.198   5.729  0.00  0.00     0.042 A 
HETATM    2  C   UNK N   1      30.534  17.159   7.042  0.00  0.00     0.049 A 
HETATM    3  C   UNK N   1      31.422  17.278   8.118  0.00  0.00     0.056 A 
HETATM    4  C   UNK N   1      32.812  17.439   7.899  0.00  0.00     0.094 A 
HETATM    5  C   UNK N   1      33.273  17.475   6.551  0.00  0.00     0.095 A 
HETATM    6  C   UNK N   1      32.366  17.356   5.500  0.00  0.00     0.057 A 
ENDROOT
BRANCH   4   7
HETATM    7  N   UNK N   1      33.637  17.552   9.076  0.00  0.00    -0.323 N 
HETATM    8  C   UNK N   1      34.621  16.803   9.655  0.00  0.00     0.218 C 
HETATM    9  O   UNK N   1      35.124  17.211  10.690  0.00  0.00    -0.274 OA
HETATM   10  C   UNK N   1      35.134  15.517   9.119  0.00  0.00     0.117 C 
HETATM   11  H   UNK N   1      33.443  18.369   9.588  0.00  0.00     0.169 HD
ENDBRANCH   4   7
BRANCH   3  12
HETATM   12  N   UNK N   1      30.910  17.234   9.432  0.00  0.00    -0.397 N 
HETATM   13  H   UNK N   1      30.509  18.040   9.832  0.00  0.00     0.156 HD
HETATM   14  H   UNK N   1      30.953  16.397   9.949  0.00  0.00     0.156 HD
ENDBRANCH   3  12
BRANCH   5  15
HETATM   15  O   UNK N   1      34.557  17.623   6.223  0.00  0.00    -0.358 OA
HETATM   16  H   UNK N   1      34.789  18.028   5.411  0.00  0.00     0.217 HD
ENDBRANCH   5  15
BRANCH   1  17
HETATM   17  C   UNK N   1      30.082  17.074   4.584  0.00  0.00     0.176 C 
HETATM   18  O   UNK N   1      28.887  16.903   4.774  0.00  0.00    -0.646 OA
BRANCH  17  19
HETATM   19  O   UNK N   1      30.546  17.147   3.322  0.00  0.00    -0.773 OA
HETATM   20  H   UNK N   1      31.299  17.672   3.130  0.00  0.00     0.167 HD
ENDBRANCH  17  19
ENDBRANCH   1  17
TORSDOF 5
ENDMDL
MODEL 5
REMARK VINA RESULT:      -5.4     14.673     16.249
REMARK  5 active torsions:
REMARK  status: ('A' for Active; 'I' for Inactive)
REMARK    1  A    between atoms: C_1  and  O_3 
REMARK    2  A    between atoms: C_1  and  C_4 
REMARK    3  A    between atoms: C_6  and  N_7 
REMARK    4  A    between atoms: C_8  and  N_9 
REMARK       I    between atoms: N_9  and  C_10 
REMARK    5  A    between atoms: C_13  and  O_14 
ROOT
HETATM    1  C   UNK N   1      30.572  17.047   7.896  0.00  0.00     0.042 A 
HETATM    2  C   UNK N   1      30.437  17.248   6.521  0.00  0.00     0.049 A 
HETATM    3  C   UNK N   1      29.283  17.846   6.002  0.00  0.00     0.056 A 
HETATM    4  C   UNK N   1      28.230  18.257   6.855  0.00  0.00     0.094 A 
HETATM    5  C   UNK N   1      28.386  18.042   8.255  0.00  0.00     0.095 A 
HETATM    6  C   UNK N   1      29.547  17.446   8.744  0.00  0.00     0.057 A 
ENDROOT
BRANCH   4   7
HETATM    7  N   UNK N   1      27.087  18.861   6.217  0.00  0.00    -0.323 N 
HETATM    8  C   UNK N   1      26.688  20.134   5.927  0.00  0.00     0.218 C 
HETATM    9  O   UNK N   1      25.620  20.289   5.358  0.00  0.00    -0.274 OA
HETATM   10  C   UNK N   1      27.462  21.359   6.253  0.00  0.00     0.117 C 
HETATM   11  H   UNK N   1      26.432  18.190   5.918  0.00  0.00     0.169 HD
ENDBRANCH   4   7
BRANCH   3  12
HETATM   12  N   UNK N   1      29.182  18.033   4.607  0.00  0.00    -0.397 N 
HETATM   13  H   UNK N   1      28.573  17.469   4.077  0.00  0.00     0.156 HD
HETATM   14  H   UNK N   1      29.719  18.730   4.164  0.00  0.00     0.156 HD
ENDBRANCH   3  12
BRANCH   5  15
HETATM   15  O   UNK N   1      27.464  18.387   9.153  0.00  0.00    -0.358 OA
HETATM   16  H   UNK N   1      27.689  18.960   9.860  0.00  0.00     0.217 HD
ENDBRANCH   5  15
BRANCH   1  17
HETATM   17  C   UNK N   1      31.783  16.419   8.460  0.00  0.00     0.176 C 
HETATM   18  O   UNK N   1      31.976  15.220   8.316  0.00  0.00    -0.646 OA
BRANCH  17  19
HETATM   19  O   UNK N   1      32.683  17.157   9.136  0.00  0.00    -0.773 OA
HETATM   20  H   UNK N   1      33.597  16.964   9.062  0.00  0.00     0.167 HD
ENDBRANCH  17  19
ENDBRANCH   1  17
TORSDOF 5
ENDMDL
MODEL 6
REMARK VINA RESULT:      -5.4     11.855     13.673
REMARK  5 active torsions:
REMARK  status: ('A' for Active; 'I' for Inactive)
REMARK    1  A    between atoms: C_1  and  O_3 
REMARK    2  A    between atoms: C_1  and  C_4 
REMARK    3  A    between atoms: C_6  and  N_7 
REMARK    4  A    between atoms: C_8  and  N_9 
REMARK       I    between atoms: N_9  and  C_10 
REMARK    5  A    between atoms: C_13  and  O_14 
ROOT
HETATM    1  C   UNK N   1      35.140  14.425  11.553  0.00  0.00     0.042 A 
HETATM    2  C   UNK N   1      34.718  13.759  10.402  0.00  0.00     0.049 A 
HETATM    3  C   UNK N   1      34.615  14.441   9.184  0.00  0.00     0.056 A 
HETATM    4  C   UNK N   1      34.936  15.817   9.092  0.00  0.00     0.094 A 
HETATM    5  C   UNK N   1      35.365  16.480  10.278  0.00  0.00     0.095 A 
HETATM    6  C   UNK N   1      35.459  15.776  11.477  0.00  0.00     0.057 A 
ENDROOT
BRANCH   4   7
HETATM    7  N   UNK N   1      34.796  16.423   7.792  0.00  0.00    -0.323 N 
HETATM    8  C   UNK N   1      34.042  17.428   7.257  0.00  0.00     0.218 C 
HETATM    9  O   UNK N   1      34.182  17.688   6.073  0.00  0.00    -0.274 OA
HETATM   10  C   UNK N   1      33.053  18.239   8.012  0.00  0.00     0.117 C 
HETATM   11  H   UNK N   1      35.390  16.010   7.124  0.00  0.00     0.169 HD
ENDBRANCH   4   7
BRANCH   3  12
HETATM   12  N   UNK N   1      34.185  13.735   8.042  0.00  0.00    -0.397 N 
HETATM   13  H   UNK N   1      33.410  13.129   8.100  0.00  0.00     0.156 HD
HETATM   14  H   UNK N   1      34.658  13.848   7.185  0.00  0.00     0.156 HD
ENDBRANCH   3  12
BRANCH   5  15
HETATM   15  O   UNK N   1      35.694  17.772  10.314  0.00  0.00    -0.358 OA
HETATM   16  H   UNK N   1      35.064  18.408  10.590  0.00  0.00     0.217 HD
ENDBRANCH   5  15
BRANCH   1  17
HETATM   17  C   UNK N   1      35.254  13.721  12.845  0.00  0.00     0.176 C 
HETATM   18  O   UNK N   1      36.108  14.056  13.652  0.00  0.00    -0.646 OA
BRANCH  17  19
HETATM   19  O   UNK N   1      34.421  12.707  13.145  0.00  0.00    -0.773 OA
HETATM   20  H   UNK N   1      34.710  12.014  13.706  0.00  0.00     0.167 HD
ENDBRANCH  17  19
ENDBRANCH   1  17
TORSDOF 5
ENDMDL
MODEL 7
REMARK VINA RESULT:      -5.3     23.360     24.566
REMARK  5 active torsions:
REMARK  status: ('A' for Active; 'I' for Inactive)
REMARK    1  A    between atoms: C_1  and  O_3 
REMARK    2  A    between atoms: C_1  and  C_4 
REMARK    3  A    between atoms: C_6  and  N_7 
REMARK    4  A    between atoms: C_8  and  N_9 
REMARK       I    between atoms: N_9  and  C_10 
REMARK    5  A    between atoms: C_13  and  O_14 
ROOT
HETATM    1  C   UNK N   1      22.700  12.681  10.653  0.00  0.00     0.042 A 
HETATM    2  C   UNK N   1      23.403  13.047   9.504  0.00  0.00     0.049 A 
HETATM    3  C   UNK N   1      22.754  13.712   8.458  0.00  0.00     0.056 A 
HETATM    4  C   UNK N   1      21.376  14.028   8.539  0.00  0.00     0.094 A 
HETATM    5  C   UNK N   1      20.676  13.645   9.719  0.00  0.00     0.095 A 
HETATM    6  C   UNK N   1      21.347  12.984  10.746  0.00  0.00     0.057 A 
ENDROOT
BRANCH   4   7
HETATM    7  N   UNK N   1      20.807  14.714   7.406  0.00  0.00    -0.323 N 
HETATM    8  C   UNK N   1      20.261  15.945   7.182  0.00  0.00     0.218 C 
HETATM    9  O   UNK N   1      19.862  16.204   6.058  0.00  0.00    -0.274 OA
HETATM   10  C   UNK N   1      20.114  17.006   8.210  0.00  0.00     0.117 C 
HETATM   11  H   UNK N   1      20.812  14.157   6.594  0.00  0.00     0.169 HD
ENDBRANCH   4   7
BRANCH   3  12
HETATM   12  N   UNK N   1      23.497  14.067   7.312  0.00  0.00    -0.397 N 
HETATM   13  H   UNK N   1      23.040  14.197   6.449  0.00  0.00     0.156 HD
HETATM   14  H   UNK N   1      24.473  14.186   7.375  0.00  0.00     0.156 HD
ENDBRANCH   3  12
BRANCH   5  15
HETATM   15  O   UNK N   1      19.379  13.888   9.909  0.00  0.00    -0.358 OA
HETATM   16  H   UNK N   1      18.741  13.244   9.670  0.00  0.00     0.217 HD
ENDBRANCH   5  15
BRANCH   1  17
HETATM   17  C   UNK N   1      23.369  11.978  11.765  0.00  0.00     0.176 C 
HETATM   18  O   UNK N   1      24.589  11.922  11.810  0.00  0.00    -0.646 OA
BRANCH  17  19
HETATM   19  O   UNK N   1      22.644  11.395  12.739  0.00  0.00    -0.773 OA
HETATM   20  H   UNK N   1      22.386  10.498  12.657  0.00  0.00     0.167 HD
ENDBRANCH  17  19
ENDBRANCH   1  17
TORSDOF 5
ENDMDL
MODEL 8
REMARK VINA RESULT:      -5.3     11.740     14.007
REMARK  5 active torsions:
REMARK  status: ('A' for Active; 'I' for Inactive)
REMARK    1  A    between atoms: C_1  and  O_3 
REMARK    2  A    between atoms: C_1  and  C_4 
REMARK    3  A    between atoms: C_6  and  N_7 
REMARK    4  A    between atoms: C_8  and  N_9 
REMARK       I    between atoms: N_9  and  C_10 
REMARK    5  A    between atoms: C_13  and  O_14 
ROOT
HETATM    1  C   UNK N   1      33.462  17.786   7.627  0.00  0.00     0.042 A 
HETATM    2  C   UNK N   1      33.695  17.658   6.257  0.00  0.00     0.049 A 
HETATM    3  C   UNK N   1      32.652  17.314   5.390  0.00  0.00     0.056 A 
HETATM    4  C   UNK N   1      31.342  17.089   5.880  0.00  0.00     0.094 A 
HETATM    5  C   UNK N   1      31.125  17.224   7.281  0.00  0.00     0.095 A 
HETATM    6  C   UNK N   1      32.182  17.569   8.122  0.00  0.00     0.057 A 
ENDROOT
BRANCH   4   7
HETATM    7  N   UNK N   1      30.343  16.740   4.901  0.00  0.00    -0.323 N 
HETATM    8  C   UNK N   1      29.200  17.314   4.423  0.00  0.00     0.218 C 
HETATM    9  O   UNK N   1      28.571  16.720   3.562  0.00  0.00    -0.274 OA
HETATM   10  C   UNK N   1      28.656  18.621   4.873  0.00  0.00     0.117 C 
HETATM   11  H   UNK N   1      30.530  15.874   4.473  0.00  0.00     0.169 HD
ENDBRANCH   4   7
BRANCH   3  12
HETATM   12  N   UNK N   1      32.925  17.193   4.011  0.00  0.00    -0.397 N 
HETATM   13  H   UNK N   1      33.847  17.291   3.681  0.00  0.00     0.156 HD
HETATM   14  H   UNK N   1      32.192  17.010   3.379  0.00  0.00     0.156 HD
ENDBRANCH   3  12
BRANCH   5  15
HETATM   15  O   UNK N   1      29.937  17.037   7.857  0.00  0.00    -0.358 OA
HETATM   16  H   UNK N   1      29.221  16.700   7.354  0.00  0.00     0.217 HD
ENDBRANCH   5  15
BRANCH   1  17
HETATM   17  C   UNK N   1      34.550  18.148   8.556  0.00  0.00     0.176 C 
HETATM   18  O   UNK N   1      35.225  19.146   8.351  0.00  0.00    -0.646 OA
BRANCH  17  19
HETATM   19  O   UNK N   1      34.809  17.386   9.635  0.00  0.00    -0.773 OA
HETATM   20  H   UNK N   1      34.548  17.675  10.487  0.00  0.00     0.167 HD
ENDBRANCH  17  19
ENDBRANCH   1  17
TORSDOF 5
ENDMDL
MODEL 9
REMARK VINA RESULT:      -5.3     17.881     19.815
REMARK  5 active torsions:
REMARK  status: ('A' for Active; 'I' for Inactive)
REMARK    1  A    between atoms: C_1  and  O_3 
REMARK    2  A    between atoms: C_1  and  C_4 
REMARK    3  A    between atoms: C_6  and  N_7 
REMARK    4  A    between atoms: C_8  and  N_9 
REMARK       I    between atoms: N_9  and  C_10 
REMARK    5  A    between atoms: C_13  and  O_14 
ROOT
HETATM    1  C   UNK N   1      22.372  19.821   3.258  0.00  0.00     0.042 A 
HETATM    2  C   UNK N   1      22.716  18.808   4.154  0.00  0.00     0.049 A 
HETATM    3  C   UNK N   1      24.059  18.526   4.425  0.00  0.00     0.056 A 
HETATM    4  C   UNK N   1      25.097  19.259   3.799  0.00  0.00     0.094 A 
HETATM    5  C   UNK N   1      24.726  20.288   2.887  0.00  0.00     0.095 A 
HETATM    6  C   UNK N   1      23.380  20.548   2.636  0.00  0.00     0.057 A 
ENDROOT
BRANCH   4   7
HETATM    7  N   UNK N   1      26.445  18.888   4.149  0.00  0.00    -0.323 N 
HETATM    8  C   UNK N   1      27.468  19.463   4.847  0.00  0.00     0.218 C 
HETATM    9  O   UNK N   1      28.515  18.845   4.951  0.00  0.00    -0.274 OA
HETATM   10  C   UNK N   1      27.405  20.797   5.498  0.00  0.00     0.117 C 
HETATM   11  H   UNK N   1      26.689  18.001   3.797  0.00  0.00     0.169 HD
ENDBRANCH   4   7
BRANCH   3  12
HETATM   12  N   UNK N   1      24.368  17.495   5.337  0.00  0.00    -0.397 N 
HETATM   13  H   UNK N   1      25.283  17.133   5.380  0.00  0.00     0.156 HD
HETATM   14  H   UNK N   1      23.669  17.138   5.932  0.00  0.00     0.156 HD
ENDBRANCH   3  12
BRANCH   5  15
HETATM   15  O   UNK N   1      25.614  21.043   2.239  0.00  0.00    -0.358 OA
HETATM   16  H   UNK N   1      26.485  21.132   2.572  0.00  0.00     0.217 HD
ENDBRANCH   5  15
BRANCH   1  17
HETATM   17  C   UNK N   1      20.960  20.131   2.961  0.00  0.00     0.176 C 
HETATM   18  O   UNK N   1      20.258  20.664   3.807  0.00  0.00    -0.646 OA
BRANCH  17  19
HETATM   19  O   UNK N   1      20.433  19.831   1.758  0.00  0.00    -0.773 OA
HETATM   20  H   UNK N   1      20.971  19.858   0.992  0.00  0.00     0.167 HD
ENDBRANCH  17  19
ENDBRANCH   1  17
TORSDOF 5
ENDMDL
