REMARK  8 active torsions:
REMARK  status: ('A' for Active; 'I' for Inactive)
REMARK       I    between atoms: C_1  and  N_25 
REMARK    1  A    between atoms: C_2  and  C_3 
REMARK    2  A    between atoms: C_2  and  O_17 
REMARK    3  A    between atoms: C_10  and  C_28 
REMARK       I    between atoms: N_13  and  C_28 
REMARK    4  A    between atoms: C_16  and  O_17 
REMARK    5  A    between atoms: C_18  and  N_19 
REMARK    6  A    between atoms: N_19  and  O_29 
REMARK    7  A    between atoms: N_21  and  C_22 
REMARK    8  A    between atoms: N_25  and  C_26 
ROOT
HETATM    1  C   UNK N   1       0.520   1.103   0.024  0.00  0.00     0.686 A 
HETATM    2  N   UNK N   1       0.443  -0.260  -0.023  0.00  0.00    -0.168 N 
ATOM      3  HN  UNK N   1       1.297  -0.817  -0.029  1.00  0.00     0.186 HD
HETATM    4  C   UNK N   1      -0.776  -0.883  -0.063  0.00  0.00     0.190 A 
HETATM    5  C   UNK N   1      -1.953  -0.128  -0.048  0.00  0.00     0.149 A 
HETATM    6  C   UNK N   1      -1.847   1.267   0.012  0.00  0.00     0.147 A 
HETATM    7  N   UNK N   1      -0.623   1.836   0.044  0.00  0.00    -0.174 N 
ATOM      8  HN  UNK N   1      -0.555   2.853   0.083  1.00  0.00     0.186 HD
HETATM    9  N   UNK N   1       1.790   1.758   0.037  0.00  0.00    -0.192 N 
HETATM   10  H   UNK N   1       2.599   1.196   0.053  0.00  0.00     0.184 HD
ENDROOT
BRANCH   9  11
HETATM   11  C   UNK N   1       1.960   3.180   0.029  0.00  0.00     0.049 A 
HETATM   12  C   UNK N   1       3.249   3.732   0.044  0.00  0.00     0.031 A 
HETATM   13  C   UNK N   1       3.421   5.127   0.033  0.00  0.00     0.019 A 
HETATM   14  C   UNK N   1       2.305   5.982   0.006  0.00  0.00     0.032 A 
HETATM   15  C   UNK N   1       1.024   5.429  -0.011  0.00  0.00     0.019 A 
HETATM   16  C   UNK N   1       0.858   4.049  -0.000  0.00  0.00     0.031 A 
BRANCH  14  17
HETATM   17  C   UNK N   1       2.464   7.452  -0.004  0.00  0.00     0.249 C 
HETATM   18  N   UNK N   1       1.378   8.253  -0.028  0.00  0.00    -0.366 N 
HETATM   19  H   UNK N   1       1.487   9.232  -0.044  0.00  0.00     0.159 HD
HETATM   20  H   UNK N   1       0.475   7.860  -0.028  0.00  0.00     0.159 HD
HETATM   21  O   UNK N   1       3.577   7.952   0.009  0.00  0.00    -0.268 OA
ENDBRANCH  14  17
ENDBRANCH   9  11
BRANCH   4  22
HETATM   22  O   UNK N   1      -0.891  -2.226  -0.129  0.00  0.00    -0.333 OA
BRANCH  22  23
HETATM   23  C   UNK N   1       0.115  -3.148   0.023  0.00  0.00     0.182 C 
BRANCH  23  24
HETATM   24  C   UNK N   1      -0.466  -4.524  -0.303  0.00  0.00     0.010 C 
HETATM   25  C   UNK N   1       0.505  -5.640   0.067  0.00  0.00     0.007 C 
HETATM   26  C   UNK N   1      -0.085  -6.996  -0.328  0.00  0.00     0.000 C 
HETATM   27  C   UNK N   1      -1.443  -7.215   0.341  0.00  0.00     0.000 C 
HETATM   28  C   UNK N   1      -2.402  -6.086  -0.021  0.00  0.00     0.000 C 
HETATM   29  C   UNK N   1      -1.806  -4.751   0.407  0.00  0.00     0.007 C 
ENDBRANCH  23  24
ENDBRANCH  22  23
ENDBRANCH   4  22
BRANCH   6  30
HETATM   30  N   UNK N   1      -2.987   2.096   0.036  0.00  0.00    -0.383 N 
HETATM   31  H   UNK N   1      -2.885   3.075   0.052  0.00  0.00     0.157 HD
HETATM   32  H   UNK N   1      -3.887   1.695   0.036  0.00  0.00     0.157 HD
ENDBRANCH   6  30
BRANCH   5  33
HETATM   33  N   UNK N   1      -3.207  -0.803  -0.087  0.00  0.00    -0.261 N 
ATOM     34  HN  UNK N   1      -3.218  -1.822  -0.136  1.00  0.00     0.194 HD
BRANCH  33  35
HETATM   35  O   UNK N   1      -4.245  -0.214  -0.065  0.00  0.00    -0.289 OA
ATOM     36  HO  UNK N   1      -5.081  -0.664  -0.091  1.00  0.00     0.244 HD
ENDBRANCH  33  35
ENDBRANCH   5  33
TORSDOF 8
