MODEL 1
REMARK VINA RESULT:      -7.6      0.000      0.000
REMARK  8 active torsions:
REMARK  status: ('A' for Active; 'I' for Inactive)
REMARK       I    between atoms: C_1  and  N_25 
REMARK    1  A    between atoms: C_2  and  C_3 
REMARK    2  A    between atoms: C_2  and  O_17 
REMARK    3  A    between atoms: C_10  and  C_28 
REMARK       I    between atoms: N_13  and  C_28 
REMARK    4  A    between atoms: C_16  and  O_17 
REMARK    5  A    between atoms: C_18  and  N_19 
REMARK    6  A    between atoms: N_19  and  O_29 
REMARK    7  A    between atoms: N_21  and  C_22 
REMARK    8  A    between atoms: N_25  and  C_26 
ROOT
HETATM    1  C   UNK N   1      31.894  16.655   8.103  0.00  0.00     0.686 A 
HETATM    2  N   UNK N   1      31.238  17.114   6.996  0.00  0.00    -0.168 N 
ATOM      3  HN  UNK N   1      31.724  17.160   6.101  1.00  0.00     0.186 HD
HETATM    4  C   UNK N   1      29.931  17.513   7.082  0.00  0.00     0.190 A 
HETATM    5  C   UNK N   1      29.254  17.446   8.304  0.00  0.00     0.149 A 
HETATM    6  C   UNK N   1      29.945  16.961   9.421  0.00  0.00     0.147 A 
HETATM    7  N   UNK N   1      31.235  16.585   9.289  0.00  0.00    -0.174 N 
ATOM      8  HN  UNK N   1      31.732  16.237  10.109  1.00  0.00     0.186 HD
HETATM    9  N   UNK N   1      33.266  16.264   8.024  0.00  0.00    -0.192 N 
HETATM   10  H   UNK N   1      33.706  16.298   7.143  0.00  0.00     0.184 HD
ENDROOT
BRANCH   9  11
HETATM   11  C   UNK N   1      34.042  15.826   9.146  0.00  0.00     0.049 A 
HETATM   12  C   UNK N   1      34.837  16.743   9.849  0.00  0.00     0.031 A 
HETATM   13  C   UNK N   1      35.598  16.318  10.952  0.00  0.00     0.019 A 
HETATM   14  C   UNK N   1      35.570  14.974  11.362  0.00  0.00     0.032 A 
HETATM   15  C   UNK N   1      34.776  14.065  10.661  0.00  0.00     0.019 A 
HETATM   16  C   UNK N   1      34.025  14.489   9.570  0.00  0.00     0.031 A 
BRANCH  14  17
HETATM   17  C   UNK N   1      36.364  14.506  12.518  0.00  0.00     0.249 C 
HETATM   18  N   UNK N   1      37.188  13.445  12.392  0.00  0.00    -0.366 N 
HETATM   19  H   UNK N   1      37.709  13.130  13.167  0.00  0.00     0.159 HD
HETATM   20  H   UNK N   1      37.271  12.985  11.525  0.00  0.00     0.159 HD
HETATM   21  O   UNK N   1      36.280  15.076  13.594  0.00  0.00    -0.268 OA
ENDBRANCH  14  17
ENDBRANCH   9  11
BRANCH   4  22
HETATM   22  O   UNK N   1      29.257  17.989   6.015  0.00  0.00    -0.333 OA
BRANCH  22  23
HETATM   23  C   UNK N   1      28.825  17.273   4.926  0.00  0.00     0.182 C 
BRANCH  23  24
HETATM   24  C   UNK N   1      27.809  18.137   4.178  0.00  0.00     0.010 C 
HETATM   25  C   UNK N   1      26.412  17.527   4.233  0.00  0.00     0.007 C 
HETATM   26  C   UNK N   1      25.437  18.387   3.425  0.00  0.00     0.000 C 
HETATM   27  C   UNK N   1      25.421  19.826   3.943  0.00  0.00     0.000 C 
HETATM   28  C   UNK N   1      26.824  20.421   3.900  0.00  0.00     0.000 C 
HETATM   29  C   UNK N   1      27.770  19.566   4.733  0.00  0.00     0.007 C 
ENDBRANCH  23  24
ENDBRANCH  22  23
ENDBRANCH   4  22
BRANCH   6  30
HETATM   30  N   UNK N   1      29.329  16.858  10.685  0.00  0.00    -0.383 N 
HETATM   31  H   UNK N   1      29.092  15.974  11.048  0.00  0.00     0.157 HD
HETATM   32  H   UNK N   1      29.138  17.672  11.207  0.00  0.00     0.157 HD
ENDBRANCH   6  30
BRANCH   5  33
HETATM   33  N   UNK N   1      27.893  17.864   8.363  0.00  0.00    -0.261 N 
ATOM     34  HN  UNK N   1      27.283  17.673   7.568  1.00  0.00     0.194 HD
BRANCH  33  35
HETATM   35  O   UNK N   1      27.445  18.433   9.312  0.00  0.00    -0.289 OA
ATOM     36  HO  UNK N   1      27.974  19.009   9.851  1.00  0.00     0.244 HD
ENDBRANCH  33  35
ENDBRANCH   5  33
TORSDOF 8
ENDMDL
MODEL 2
REMARK VINA RESULT:      -7.6      2.619      9.812
REMARK  8 active torsions:
REMARK  status: ('A' for Active; 'I' for Inactive)
REMARK       I    between atoms: C_1  and  N_25 
REMARK    1  A    between atoms: C_2  and  C_3 
REMARK    2  A    between atoms: C_2  and  O_17 
REMARK    3  A    between atoms: C_10  and  C_28 
REMARK       I    between atoms: N_13  and  C_28 
REMARK    4  A    between atoms: C_16  and  O_17 
REMARK    5  A    between atoms: C_18  and  N_19 
REMARK    6  A    between atoms: N_19  and  O_29 
REMARK    7  A    between atoms: N_21  and  C_22 
REMARK    8  A    between atoms: N_25  and  C_26 
ROOT
HETATM    1  C   UNK N   1      28.855  17.772   5.719  0.00  0.00     0.686 A 
HETATM    2  N   UNK N   1      30.049  17.147   5.940  0.00  0.00    -0.168 N 
ATOM      3  HN  UNK N   1      30.592  16.796   5.152  1.00  0.00     0.186 HD
HETATM    4  C   UNK N   1      30.522  16.988   7.216  0.00  0.00     0.190 A 
HETATM    5  C   UNK N   1      29.788  17.473   8.303  0.00  0.00     0.149 A 
HETATM    6  C   UNK N   1      28.572  18.120   8.049  0.00  0.00     0.147 A 
HETATM    7  N   UNK N   1      28.145  18.248   6.775  0.00  0.00    -0.174 N 
ATOM      8  HN  UNK N   1      27.256  18.716   6.599  1.00  0.00     0.186 HD
HETATM    9  N   UNK N   1      28.345  17.914   4.392  0.00  0.00    -0.192 N 
HETATM   10  H   UNK N   1      28.899  17.586   3.647  0.00  0.00     0.184 HD
ENDROOT
BRANCH   9  11
HETATM   11  C   UNK N   1      27.079  18.505   4.078  0.00  0.00     0.049 A 
HETATM   12  C   UNK N   1      27.001  19.867   3.756  0.00  0.00     0.031 A 
HETATM   13  C   UNK N   1      25.761  20.451   3.443  0.00  0.00     0.019 A 
HETATM   14  C   UNK N   1      24.588  19.676   3.449  0.00  0.00     0.032 A 
HETATM   15  C   UNK N   1      24.669  18.320   3.768  0.00  0.00     0.019 A 
HETATM   16  C   UNK N   1      25.897  17.746   4.076  0.00  0.00     0.031 A 
BRANCH  14  17
HETATM   17  C   UNK N   1      23.273  20.270   3.125  0.00  0.00     0.249 C 
HETATM   18  N   UNK N   1      22.151  19.526   3.213  0.00  0.00    -0.366 N 
HETATM   19  H   UNK N   1      21.277  19.922   2.987  0.00  0.00     0.159 HD
HETATM   20  H   UNK N   1      22.203  18.587   3.503  0.00  0.00     0.159 HD
HETATM   21  O   UNK N   1      23.193  21.437   2.777  0.00  0.00    -0.268 OA
ENDBRANCH  14  17
ENDBRANCH   9  11
BRANCH   4  22
HETATM   22  O   UNK N   1      31.688  16.360   7.474  0.00  0.00    -0.333 OA
BRANCH  22  23
HETATM   23  C   UNK N   1      32.952  16.871   7.317  0.00  0.00     0.182 C 
BRANCH  23  24
HETATM   24  C   UNK N   1      33.858  16.186   8.341  0.00  0.00     0.010 C 
HETATM   25  C   UNK N   1      34.445  17.192   9.325  0.00  0.00     0.007 C 
HETATM   26  C   UNK N   1      35.391  16.479  10.295  0.00  0.00     0.000 C 
HETATM   27  C   UNK N   1      34.666  15.355  11.037  0.00  0.00     0.000 C 
HETATM   28  C   UNK N   1      34.068  14.364  10.044  0.00  0.00     0.000 C 
HETATM   29  C   UNK N   1      33.110  15.090   9.109  0.00  0.00     0.007 C 
ENDBRANCH  23  24
ENDBRANCH  22  23
ENDBRANCH   4  22
BRANCH   6  30
HETATM   30  N   UNK N   1      27.779  18.641   9.091  0.00  0.00    -0.383 N 
HETATM   31  H   UNK N   1      27.841  19.594   9.331  0.00  0.00     0.157 HD
HETATM   32  H   UNK N   1      27.160  18.050   9.581  0.00  0.00     0.157 HD
ENDBRANCH   6  30
BRANCH   5  33
HETATM   33  N   UNK N   1      30.305  17.297   9.619  0.00  0.00    -0.261 N 
ATOM     34  HN  UNK N   1      31.234  17.659   9.837  1.00  0.00     0.194 HD
BRANCH  33  35
HETATM   35  O   UNK N   1      29.687  16.739  10.474  0.00  0.00    -0.289 OA
ATOM     36  HO  UNK N   1      29.322  15.871  10.347  1.00  0.00     0.244 HD
ENDBRANCH  33  35
ENDBRANCH   5  33
TORSDOF 8
ENDMDL
MODEL 3
REMARK VINA RESULT:      -7.4      3.887     10.697
REMARK  8 active torsions:
REMARK  status: ('A' for Active; 'I' for Inactive)
REMARK       I    between atoms: C_1  and  N_25 
REMARK    1  A    between atoms: C_2  and  C_3 
REMARK    2  A    between atoms: C_2  and  O_17 
REMARK    3  A    between atoms: C_10  and  C_28 
REMARK       I    between atoms: N_13  and  C_28 
REMARK    4  A    between atoms: C_16  and  O_17 
REMARK    5  A    between atoms: C_18  and  N_19 
REMARK    6  A    between atoms: N_19  and  O_29 
REMARK    7  A    between atoms: N_21  and  C_22 
REMARK    8  A    between atoms: N_25  and  C_26 
ROOT
HETATM    1  C   UNK N   1      34.069  14.788  10.297  0.00  0.00     0.686 A 
HETATM    2  N   UNK N   1      34.206  14.373  11.591  0.00  0.00    -0.168 N 
ATOM      3  HN  UNK N   1      33.429  14.479  12.243  1.00  0.00     0.186 HD
HETATM    4  C   UNK N   1      35.381  13.816  12.019  0.00  0.00     0.190 A 
HETATM    5  C   UNK N   1      36.450  13.660  11.130  0.00  0.00     0.149 A 
HETATM    6  C   UNK N   1      36.281  14.083   9.806  0.00  0.00     0.147 A 
HETATM    7  N   UNK N   1      35.106  14.632   9.433  0.00  0.00    -0.174 N 
ATOM      8  HN  UNK N   1      34.993  14.941   8.467  1.00  0.00     0.186 HD
HETATM    9  N   UNK N   1      32.854  15.396   9.854  0.00  0.00    -0.192 N 
HETATM   10  H   UNK N   1      32.112  15.466  10.497  0.00  0.00     0.184 HD
ENDROOT
BRANCH   9  11
HETATM   11  C   UNK N   1      32.649  15.909   8.532  0.00  0.00     0.049 A 
HETATM   12  C   UNK N   1      33.098  17.195   8.202  0.00  0.00     0.031 A 
HETATM   13  C   UNK N   1      32.901  17.702   6.905  0.00  0.00     0.019 A 
HETATM   14  C   UNK N   1      32.254  16.925   5.928  0.00  0.00     0.032 A 
HETATM   15  C   UNK N   1      31.810  15.645   6.260  0.00  0.00     0.019 A 
HETATM   16  C   UNK N   1      32.006  15.147   7.543  0.00  0.00     0.031 A 
BRANCH  14  17
HETATM   17  C   UNK N   1      32.035  17.440   4.559  0.00  0.00     0.249 C 
HETATM   18  N   UNK N   1      30.827  17.923   4.200  0.00  0.00    -0.366 N 
HETATM   19  H   UNK N   1      30.681  18.256   3.284  0.00  0.00     0.159 HD
HETATM   20  H   UNK N   1      30.090  17.944   4.852  0.00  0.00     0.159 HD
HETATM   21  O   UNK N   1      32.944  17.432   3.745  0.00  0.00    -0.268 OA
ENDBRANCH  14  17
ENDBRANCH   9  11
BRANCH   4  22
HETATM   22  O   UNK N   1      35.559  13.412  13.294  0.00  0.00    -0.333 OA
BRANCH  22  23
HETATM   23  C   UNK N   1      34.966  12.337  13.909  0.00  0.00     0.182 C 
BRANCH  23  24
HETATM   24  C   UNK N   1      35.466  12.297  15.353  0.00  0.00     0.010 C 
HETATM   25  C   UNK N   1      34.585  13.137  16.271  0.00  0.00     0.007 C 
HETATM   26  C   UNK N   1      35.149  13.120  17.693  0.00  0.00     0.000 C 
HETATM   27  C   UNK N   1      35.267  11.687  18.216  0.00  0.00     0.000 C 
HETATM   28  C   UNK N   1      36.136  10.851  17.283  0.00  0.00     0.000 C 
HETATM   29  C   UNK N   1      35.538  10.859  15.882  0.00  0.00     0.007 C 
ENDBRANCH  23  24
ENDBRANCH  22  23
ENDBRANCH   4  22
BRANCH   6  30
HETATM   30  N   UNK N   1      37.310  13.955   8.851  0.00  0.00    -0.383 N 
HETATM   31  H   UNK N   1      38.139  14.476   8.946  0.00  0.00     0.157 HD
HETATM   32  H   UNK N   1      37.199  13.342   8.088  0.00  0.00     0.157 HD
ENDBRANCH   6  30
BRANCH   5  33
HETATM   33  N   UNK N   1      37.660  13.075  11.602  0.00  0.00    -0.261 N 
ATOM     34  HN  UNK N   1      37.614  12.378  12.346  1.00  0.00     0.194 HD
BRANCH  33  35
HETATM   35  O   UNK N   1      38.726  13.374  11.155  0.00  0.00    -0.289 OA
ATOM     36  HO  UNK N   1      39.115  14.227  11.306  1.00  0.00     0.244 HD
ENDBRANCH  33  35
ENDBRANCH   5  33
TORSDOF 8
ENDMDL
MODEL 4
REMARK VINA RESULT:      -7.3      3.669      9.398
REMARK  8 active torsions:
REMARK  status: ('A' for Active; 'I' for Inactive)
REMARK       I    between atoms: C_1  and  N_25 
REMARK    1  A    between atoms: C_2  and  C_3 
REMARK    2  A    between atoms: C_2  and  O_17 
REMARK    3  A    between atoms: C_10  and  C_28 
REMARK       I    between atoms: N_13  and  C_28 
REMARK    4  A    between atoms: C_16  and  O_17 
REMARK    5  A    between atoms: C_18  and  N_19 
REMARK    6  A    between atoms: N_19  and  O_29 
REMARK    7  A    between atoms: N_21  and  C_22 
REMARK    8  A    between atoms: N_25  and  C_26 
ROOT
HETATM    1  C   UNK N   1      28.688  17.979   5.675  0.00  0.00     0.686 A 
HETATM    2  N   UNK N   1      29.931  17.449   5.873  0.00  0.00    -0.168 N 
ATOM      3  HN  UNK N   1      30.490  17.152   5.073  1.00  0.00     0.186 HD
HETATM    4  C   UNK N   1      30.431  17.312   7.140  0.00  0.00     0.190 A 
HETATM    5  C   UNK N   1      29.676  17.722   8.243  0.00  0.00     0.149 A 
HETATM    6  C   UNK N   1      28.409  18.273   8.013  0.00  0.00     0.147 A 
HETATM    7  N   UNK N   1      27.956  18.382   6.746  0.00  0.00    -0.174 N 
ATOM      8  HN  UNK N   1      27.031  18.781   6.588  1.00  0.00     0.186 HD
HETATM    9  N   UNK N   1      28.151  18.097   4.356  0.00  0.00    -0.192 N 
HETATM   10  H   UNK N   1      28.720  17.824   3.600  0.00  0.00     0.184 HD
ENDROOT
BRANCH   9  11
HETATM   11  C   UNK N   1      26.837  18.588   4.066  0.00  0.00     0.049 A 
HETATM   12  C   UNK N   1      25.737  17.721   4.118  0.00  0.00     0.031 A 
HETATM   13  C   UNK N   1      24.445  18.199   3.836  0.00  0.00     0.019 A 
HETATM   14  C   UNK N   1      24.243  19.549   3.501  0.00  0.00     0.032 A 
HETATM   15  C   UNK N   1      25.340  20.410   3.452  0.00  0.00     0.019 A 
HETATM   16  C   UNK N   1      26.616  19.934   3.731  0.00  0.00     0.031 A 
BRANCH  14  17
HETATM   17  C   UNK N   1      22.893  20.072   3.200  0.00  0.00     0.249 C 
HETATM   18  N   UNK N   1      21.803  19.309   3.425  0.00  0.00    -0.366 N 
HETATM   19  H   UNK N   1      20.905  19.656   3.215  0.00  0.00     0.159 HD
HETATM   20  H   UNK N   1      21.903  18.405   3.802  0.00  0.00     0.159 HD
HETATM   21  O   UNK N   1      22.754  21.196   2.745  0.00  0.00    -0.268 OA
ENDBRANCH  14  17
ENDBRANCH   9  11
BRANCH   4  22
HETATM   22  O   UNK N   1      31.647  16.775   7.375  0.00  0.00    -0.333 OA
BRANCH  22  23
HETATM   23  C   UNK N   1      32.816  17.060   6.714  0.00  0.00     0.182 C 
BRANCH  23  24
HETATM   24  C   UNK N   1      32.781  16.321   5.376  0.00  0.00     0.010 C 
HETATM   25  C   UNK N   1      32.880  17.289   4.202  0.00  0.00     0.007 C 
HETATM   26  C   UNK N   1      32.782  16.520   2.882  0.00  0.00     0.000 C 
HETATM   27  C   UNK N   1      33.870  15.449   2.794  0.00  0.00     0.000 C 
HETATM   28  C   UNK N   1      33.775  14.495   3.980  0.00  0.00     0.000 C 
HETATM   29  C   UNK N   1      33.903  15.280   5.280  0.00  0.00     0.007 C 
ENDBRANCH  23  24
ENDBRANCH  22  23
ENDBRANCH   4  22
BRANCH   6  30
HETATM   30  N   UNK N   1      27.590  18.715   9.072  0.00  0.00    -0.383 N 
HETATM   31  H   UNK N   1      27.689  18.321   9.969  0.00  0.00     0.157 HD
HETATM   32  H   UNK N   1      26.919  19.418   8.914  0.00  0.00     0.157 HD
ENDBRANCH   6  30
BRANCH   5  33
HETATM   33  N   UNK N   1      30.223  17.571   9.550  0.00  0.00    -0.261 N 
ATOM     34  HN  UNK N   1      31.113  18.019   9.767  1.00  0.00     0.194 HD
BRANCH  33  35
HETATM   35  O   UNK N   1      29.673  16.936  10.398  0.00  0.00    -0.289 OA
ATOM     36  HO  UNK N   1      29.974  16.074  10.658  1.00  0.00     0.244 HD
ENDBRANCH  33  35
ENDBRANCH   5  33
TORSDOF 8
ENDMDL
MODEL 5
REMARK VINA RESULT:      -7.1      3.574      5.909
REMARK  8 active torsions:
REMARK  status: ('A' for Active; 'I' for Inactive)
REMARK       I    between atoms: C_1  and  N_25 
REMARK    1  A    between atoms: C_2  and  C_3 
REMARK    2  A    between atoms: C_2  and  O_17 
REMARK    3  A    between atoms: C_10  and  C_28 
REMARK       I    between atoms: N_13  and  C_28 
REMARK    4  A    between atoms: C_16  and  O_17 
REMARK    5  A    between atoms: C_18  and  N_19 
REMARK    6  A    between atoms: N_19  and  O_29 
REMARK    7  A    between atoms: N_21  and  C_22 
REMARK    8  A    between atoms: N_25  and  C_26 
ROOT
HETATM    1  C   UNK N   1      27.311  17.492   6.105  0.00  0.00     0.686 A 
HETATM    2  N   UNK N   1      26.002  17.162   5.895  0.00  0.00    -0.168 N 
ATOM      3  HN  UNK N   1      25.560  16.445   6.469  1.00  0.00     0.186 HD
HETATM    4  C   UNK N   1      25.280  17.790   4.915  0.00  0.00     0.190 A 
HETATM    5  C   UNK N   1      25.875  18.779   4.126  0.00  0.00     0.149 A 
HETATM    6  C   UNK N   1      27.215  19.106   4.370  0.00  0.00     0.147 A 
HETATM    7  N   UNK N   1      27.888  18.456   5.343  0.00  0.00    -0.174 N 
ATOM      8  HN  UNK N   1      28.864  18.698   5.511  1.00  0.00     0.186 HD
HETATM    9  N   UNK N   1      28.076  16.819   7.108  0.00  0.00    -0.192 N 
HETATM   10  H   UNK N   1      27.619  16.147   7.664  0.00  0.00     0.184 HD
ENDROOT
BRANCH   9  11
HETATM   11  C   UNK N   1      29.465  17.063   7.355  0.00  0.00     0.049 A 
HETATM   12  C   UNK N   1      29.851  17.950   8.371  0.00  0.00     0.031 A 
HETATM   13  C   UNK N   1      31.214  18.190   8.619  0.00  0.00     0.019 A 
HETATM   14  C   UNK N   1      32.202  17.544   7.855  0.00  0.00     0.032 A 
HETATM   15  C   UNK N   1      31.814  16.661   6.847  0.00  0.00     0.019 A 
HETATM   16  C   UNK N   1      30.465  16.426   6.604  0.00  0.00     0.031 A 
BRANCH  14  17
HETATM   17  C   UNK N   1      33.640  17.784   8.100  0.00  0.00     0.249 C 
HETATM   18  N   UNK N   1      34.182  17.503   9.303  0.00  0.00    -0.366 N 
HETATM   19  H   UNK N   1      35.138  17.673   9.466  0.00  0.00     0.159 HD
HETATM   20  H   UNK N   1      33.621  17.126  10.020  0.00  0.00     0.159 HD
HETATM   21  O   UNK N   1      34.349  18.238   7.216  0.00  0.00    -0.268 OA
ENDBRANCH  14  17
ENDBRANCH   9  11
BRANCH   4  22
HETATM   22  O   UNK N   1      23.991  17.478   4.665  0.00  0.00    -0.333 OA
BRANCH  22  23
HETATM   23  C   UNK N   1      22.896  17.836   5.413  0.00  0.00     0.182 C 
BRANCH  23  24
HETATM   24  C   UNK N   1      21.684  17.849   4.481  0.00  0.00     0.010 C 
HETATM   25  C   UNK N   1      21.450  19.235   3.891  0.00  0.00     0.007 C 
HETATM   26  C   UNK N   1      20.196  19.223   3.013  0.00  0.00     0.000 C 
HETATM   27  C   UNK N   1      20.318  18.175   1.905  0.00  0.00     0.000 C 
HETATM   28  C   UNK N   1      20.568  16.795   2.503  0.00  0.00     0.000 C 
HETATM   29  C   UNK N   1      21.835  16.826   3.348  0.00  0.00     0.007 C 
ENDBRANCH  23  24
ENDBRANCH  22  23
ENDBRANCH   4  22
BRANCH   6  30
HETATM   30  N   UNK N   1      27.883  20.096   3.621  0.00  0.00    -0.383 N 
HETATM   31  H   UNK N   1      27.774  20.133   2.643  0.00  0.00     0.157 HD
HETATM   32  H   UNK N   1      28.460  20.753   4.077  0.00  0.00     0.157 HD
ENDBRANCH   6  30
BRANCH   5  33
HETATM   33  N   UNK N   1      25.099  19.418   3.116  0.00  0.00    -0.261 N 
ATOM     34  HN  UNK N   1      24.817  18.880   2.297  1.00  0.00     0.194 HD
BRANCH  33  35
HETATM   35  O   UNK N   1      24.770  20.562   3.198  0.00  0.00    -0.289 OA
ATOM     36  HO  UNK N   1      25.121  21.230   2.622  1.00  0.00     0.244 HD
ENDBRANCH  33  35
ENDBRANCH   5  33
TORSDOF 8
ENDMDL
MODEL 6
REMARK VINA RESULT:      -7.0      2.954      9.993
REMARK  8 active torsions:
REMARK  status: ('A' for Active; 'I' for Inactive)
REMARK       I    between atoms: C_1  and  N_25 
REMARK    1  A    between atoms: C_2  and  C_3 
REMARK    2  A    between atoms: C_2  and  O_17 
REMARK    3  A    between atoms: C_10  and  C_28 
REMARK       I    between atoms: N_13  and  C_28 
REMARK    4  A    between atoms: C_16  and  O_17 
REMARK    5  A    between atoms: C_18  and  N_19 
REMARK    6  A    between atoms: N_19  and  O_29 
REMARK    7  A    between atoms: N_21  and  C_22 
REMARK    8  A    between atoms: N_25  and  C_26 
ROOT
HETATM    1  C   UNK N   1      29.640  17.556   6.298  0.00  0.00     0.686 A 
HETATM    2  N   UNK N   1      30.474  17.037   7.248  0.00  0.00    -0.168 N 
ATOM      3  HN  UNK N   1      30.133  16.889   8.197  1.00  0.00     0.186 HD
HETATM    4  C   UNK N   1      31.767  16.717   6.931  0.00  0.00     0.190 A 
HETATM    5  C   UNK N   1      32.242  16.910   5.631  0.00  0.00     0.149 A 
HETATM    6  C   UNK N   1      31.364  17.432   4.673  0.00  0.00     0.147 A 
HETATM    7  N   UNK N   1      30.099  17.738   5.034  0.00  0.00    -0.174 N 
ATOM      8  HN  UNK N   1      29.468  18.122   4.331  1.00  0.00     0.186 HD
HETATM    9  N   UNK N   1      28.298  17.918   6.631  0.00  0.00    -0.192 N 
HETATM   10  H   UNK N   1      27.987  17.744   7.549  0.00  0.00     0.184 HD
ENDROOT
BRANCH   9  11
HETATM   11  C   UNK N   1      27.377  18.518   5.713  0.00  0.00     0.049 A 
HETATM   12  C   UNK N   1      27.362  19.910   5.544  0.00  0.00     0.031 A 
HETATM   13  C   UNK N   1      26.463  20.504   4.641  0.00  0.00     0.019 A 
HETATM   14  C   UNK N   1      25.571  19.709   3.899  0.00  0.00     0.032 A 
HETATM   15  C   UNK N   1      25.590  18.324   4.068  0.00  0.00     0.019 A 
HETATM   16  C   UNK N   1      26.481  17.741   4.961  0.00  0.00     0.031 A 
BRANCH  14  17
HETATM   17  C   UNK N   1      24.616  20.314   2.946  0.00  0.00     0.249 C 
HETATM   18  N   UNK N   1      23.287  20.204   3.154  0.00  0.00    -0.366 N 
HETATM   19  H   UNK N   1      22.652  20.600   2.513  0.00  0.00     0.159 HD
HETATM   20  H   UNK N   1      22.949  19.729   3.948  0.00  0.00     0.159 HD
HETATM   21  O   UNK N   1      25.021  20.916   1.965  0.00  0.00    -0.268 OA
ENDBRANCH  14  17
ENDBRANCH   9  11
BRANCH   4  22
HETATM   22  O   UNK N   1      32.626  16.221   7.847  0.00  0.00    -0.333 OA
BRANCH  22  23
HETATM   23  C   UNK N   1      33.221  16.908   8.876  0.00  0.00     0.182 C 
BRANCH  23  24
HETATM   24  C   UNK N   1      34.190  15.951   9.571  0.00  0.00     0.010 C 
HETATM   25  C   UNK N   1      34.953  15.101   8.561  0.00  0.00     0.007 C 
HETATM   26  C   UNK N   1      35.867  14.116   9.293  0.00  0.00     0.000 C 
HETATM   27  C   UNK N   1      36.834  14.856  10.219  0.00  0.00     0.000 C 
HETATM   28  C   UNK N   1      36.064  15.717  11.215  0.00  0.00     0.000 C 
HETATM   29  C   UNK N   1      35.183  16.706  10.462  0.00  0.00     0.007 C 
ENDBRANCH  23  24
ENDBRANCH  22  23
ENDBRANCH   4  22
BRANCH   6  30
HETATM   30  N   UNK N   1      31.767  17.651   3.340  0.00  0.00    -0.383 N 
HETATM   31  H   UNK N   1      32.252  18.472   3.099  0.00  0.00     0.157 HD
HETATM   32  H   UNK N   1      31.562  16.979   2.648  0.00  0.00     0.157 HD
ENDBRANCH   6  30
BRANCH   5  33
HETATM   33  N   UNK N   1      33.591  16.565   5.329  0.00  0.00    -0.261 N 
ATOM     34  HN  UNK N   1      33.772  15.768   4.718  1.00  0.00     0.194 HD
BRANCH  33  35
HETATM   35  O   UNK N   1      34.516  17.176   5.771  0.00  0.00    -0.289 OA
ATOM     36  HO  UNK N   1      34.779  17.106   6.681  1.00  0.00     0.244 HD
ENDBRANCH  33  35
ENDBRANCH   5  33
TORSDOF 8
ENDMDL
MODEL 7
REMARK VINA RESULT:      -6.9      3.979     10.486
REMARK  8 active torsions:
REMARK  status: ('A' for Active; 'I' for Inactive)
REMARK       I    between atoms: C_1  and  N_25 
REMARK    1  A    between atoms: C_2  and  C_3 
REMARK    2  A    between atoms: C_2  and  O_17 
REMARK    3  A    between atoms: C_10  and  C_28 
REMARK       I    between atoms: N_13  and  C_28 
REMARK    4  A    between atoms: C_16  and  O_17 
REMARK    5  A    between atoms: C_18  and  N_19 
REMARK    6  A    between atoms: N_19  and  O_29 
REMARK    7  A    between atoms: N_21  and  C_22 
REMARK    8  A    between atoms: N_25  and  C_26 
ROOT
HETATM    1  C   UNK N   1      34.052  13.554  10.030  0.00  0.00     0.686 A 
HETATM    2  N   UNK N   1      34.167  12.607  11.008  0.00  0.00    -0.168 N 
ATOM      3  HN  UNK N   1      33.562  11.787  10.994  1.00  0.00     0.186 HD
HETATM    4  C   UNK N   1      35.092  12.754  12.007  0.00  0.00     0.190 A 
HETATM    5  C   UNK N   1      35.932  13.872  12.031  0.00  0.00     0.149 A 
HETATM    6  C   UNK N   1      35.801  14.823  11.011  0.00  0.00     0.147 A 
HETATM    7  N   UNK N   1      34.871  14.637  10.050  0.00  0.00    -0.174 N 
ATOM      8  HN  UNK N   1      34.780  15.337   9.313  1.00  0.00     0.186 HD
HETATM    9  N   UNK N   1      33.070  13.419   9.001  0.00  0.00    -0.192 N 
HETATM   10  H   UNK N   1      32.513  12.607   8.999  0.00  0.00     0.184 HD
ENDROOT
BRANCH   9  11
HETATM   11  C   UNK N   1      32.845  14.391   7.973  0.00  0.00     0.049 A 
HETATM   12  C   UNK N   1      32.001  15.485   8.215  0.00  0.00     0.031 A 
HETATM   13  C   UNK N   1      31.780  16.443   7.211  0.00  0.00     0.019 A 
HETATM   14  C   UNK N   1      32.401  16.315   5.956  0.00  0.00     0.032 A 
HETATM   15  C   UNK N   1      33.241  15.226   5.719  0.00  0.00     0.019 A 
HETATM   16  C   UNK N   1      33.457  14.281   6.715  0.00  0.00     0.031 A 
BRANCH  14  17
HETATM   17  C   UNK N   1      32.180  17.310   4.885  0.00  0.00     0.249 C 
HETATM   18  N   UNK N   1      30.927  17.611   4.485  0.00  0.00    -0.366 N 
HETATM   19  H   UNK N   1      30.783  18.268   3.764  0.00  0.00     0.159 HD
HETATM   20  H   UNK N   1      30.154  17.176   4.913  0.00  0.00     0.159 HD
HETATM   21  O   UNK N   1      33.128  17.866   4.355  0.00  0.00    -0.268 OA
ENDBRANCH  14  17
ENDBRANCH   9  11
BRANCH   4  22
HETATM   22  O   UNK N   1      35.222  11.849  13.000  0.00  0.00    -0.333 OA
BRANCH  22  23
HETATM   23  C   UNK N   1      34.249  11.008  13.481  0.00  0.00     0.182 C 
BRANCH  23  24
HETATM   24  C   UNK N   1      34.278  11.093  15.008  0.00  0.00     0.010 C 
HETATM   25  C   UNK N   1      34.882   9.836  15.623  0.00  0.00     0.007 C 
HETATM   26  C   UNK N   1      34.840   9.932  17.150  0.00  0.00     0.000 C 
HETATM   27  C   UNK N   1      35.574  11.181  17.639  0.00  0.00     0.000 C 
HETATM   28  C   UNK N   1      34.974  12.432  17.005  0.00  0.00     0.000 C 
HETATM   29  C   UNK N   1      35.054  12.326  15.487  0.00  0.00     0.007 C 
ENDBRANCH  23  24
ENDBRANCH  22  23
ENDBRANCH   4  22
BRANCH   6  30
HETATM   30  N   UNK N   1      36.615  15.973  10.962  0.00  0.00    -0.383 N 
HETATM   31  H   UNK N   1      37.256  16.155  11.686  0.00  0.00     0.157 HD
HETATM   32  H   UNK N   1      36.541  16.596  10.202  0.00  0.00     0.157 HD
ENDBRANCH   6  30
BRANCH   5  33
HETATM   33  N   UNK N   1      36.887  13.997  13.081  0.00  0.00    -0.261 N 
ATOM     34  HN  UNK N   1      37.624  13.297  13.164  1.00  0.00     0.194 HD
BRANCH  33  35
HETATM   35  O   UNK N   1      36.851  14.895  13.867  0.00  0.00    -0.289 OA
ATOM     36  HO  UNK N   1      36.656  14.753  14.786  1.00  0.00     0.244 HD
ENDBRANCH  33  35
ENDBRANCH   5  33
TORSDOF 8
ENDMDL
MODEL 8
REMARK VINA RESULT:      -6.8      4.262      6.719
REMARK  8 active torsions:
REMARK  status: ('A' for Active; 'I' for Inactive)
REMARK       I    between atoms: C_1  and  N_25 
REMARK    1  A    between atoms: C_2  and  C_3 
REMARK    2  A    between atoms: C_2  and  O_17 
REMARK    3  A    between atoms: C_10  and  C_28 
REMARK       I    between atoms: N_13  and  C_28 
REMARK    4  A    between atoms: C_16  and  O_17 
REMARK    5  A    between atoms: C_18  and  N_19 
REMARK    6  A    between atoms: N_19  and  O_29 
REMARK    7  A    between atoms: N_21  and  C_22 
REMARK    8  A    between atoms: N_25  and  C_26 
ROOT
HETATM    1  C   UNK N   1      35.558  14.097  12.115  0.00  0.00     0.686 A 
HETATM    2  N   UNK N   1      35.601  15.123  11.215  0.00  0.00    -0.168 N 
ATOM      3  HN  UNK N   1      36.077  15.992  11.457  1.00  0.00     0.186 HD
HETATM    4  C   UNK N   1      35.005  14.993   9.989  0.00  0.00     0.190 A 
HETATM    5  C   UNK N   1      34.355  13.804   9.645  0.00  0.00     0.149 A 
HETATM    6  C   UNK N   1      34.336  12.762  10.581  0.00  0.00     0.147 A 
HETATM    7  N   UNK N   1      34.932  12.940  11.779  0.00  0.00    -0.174 N 
ATOM      8  HN  UNK N   1      34.909  12.177  12.457  1.00  0.00     0.186 HD
HETATM    9  N   UNK N   1      36.154  14.239  13.407  0.00  0.00    -0.192 N 
HETATM   10  H   UNK N   1      36.627  15.079  13.607  0.00  0.00     0.184 HD
ENDROOT
BRANCH   9  11
HETATM   11  C   UNK N   1      36.106  13.235  14.427  0.00  0.00     0.049 A 
HETATM   12  C   UNK N   1      35.115  13.289  15.417  0.00  0.00     0.031 A 
HETATM   13  C   UNK N   1      35.062  12.304  16.419  0.00  0.00     0.019 A 
HETATM   14  C   UNK N   1      36.000  11.257  16.439  0.00  0.00     0.032 A 
HETATM   15  C   UNK N   1      36.984  11.206  15.451  0.00  0.00     0.019 A 
HETATM   16  C   UNK N   1      37.033  12.181  14.462  0.00  0.00     0.031 A 
BRANCH  14  17
HETATM   17  C   UNK N   1      35.964  10.213  17.485  0.00  0.00     0.249 C 
HETATM   18  N   UNK N   1      34.972  10.202  18.401  0.00  0.00    -0.366 N 
HETATM   19  H   UNK N   1      34.956   9.511  19.102  0.00  0.00     0.159 HD
HETATM   20  H   UNK N   1      34.264  10.885  18.368  0.00  0.00     0.159 HD
HETATM   21  O   UNK N   1      36.829   9.353  17.529  0.00  0.00    -0.268 OA
ENDBRANCH  14  17
ENDBRANCH   9  11
BRANCH   4  22
HETATM   22  O   UNK N   1      35.010  15.992   9.082  0.00  0.00    -0.333 OA
BRANCH  22  23
HETATM   23  C   UNK N   1      34.556  17.275   9.266  0.00  0.00     0.182 C 
BRANCH  23  24
HETATM   24  C   UNK N   1      33.570  17.583   8.138  0.00  0.00     0.010 C 
HETATM   25  C   UNK N   1      34.086  17.079   6.795  0.00  0.00     0.007 C 
HETATM   26  C   UNK N   1      33.104  17.457   5.684  0.00  0.00     0.000 C 
HETATM   27  C   UNK N   1      31.710  16.896   5.975  0.00  0.00     0.000 C 
HETATM   28  C   UNK N   1      31.210  17.392   7.327  0.00  0.00     0.000 C 
HETATM   29  C   UNK N   1      32.189  16.980   8.419  0.00  0.00     0.007 C 
ENDBRANCH  23  24
ENDBRANCH  22  23
ENDBRANCH   4  22
BRANCH   6  30
HETATM   30  N   UNK N   1      33.706  11.531  10.306  0.00  0.00    -0.383 N 
HETATM   31  H   UNK N   1      34.244  10.746  10.057  0.00  0.00     0.157 HD
HETATM   32  H   UNK N   1      32.725  11.457  10.365  0.00  0.00     0.157 HD
ENDBRANCH   6  30
BRANCH   5  33
HETATM   33  N   UNK N   1      33.747  13.695   8.361  0.00  0.00    -0.261 N 
ATOM     34  HN  UNK N   1      34.318  13.848   7.530  1.00  0.00     0.194 HD
BRANCH  33  35
HETATM   35  O   UNK N   1      32.590  13.432   8.227  0.00  0.00    -0.289 OA
ATOM     36  HO  UNK N   1      32.300  12.634   7.802  1.00  0.00     0.244 HD
ENDBRANCH  33  35
ENDBRANCH   5  33
TORSDOF 8
ENDMDL
MODEL 9
REMARK VINA RESULT:      -6.8      1.849      3.186
REMARK  8 active torsions:
REMARK  status: ('A' for Active; 'I' for Inactive)
REMARK       I    between atoms: C_1  and  N_25 
REMARK    1  A    between atoms: C_2  and  C_3 
REMARK    2  A    between atoms: C_2  and  O_17 
REMARK    3  A    between atoms: C_10  and  C_28 
REMARK       I    between atoms: N_13  and  C_28 
REMARK    4  A    between atoms: C_16  and  O_17 
REMARK    5  A    between atoms: C_18  and  N_19 
REMARK    6  A    between atoms: N_19  and  O_29 
REMARK    7  A    between atoms: N_21  and  C_22 
REMARK    8  A    between atoms: N_25  and  C_26 
ROOT
HETATM    1  C   UNK N   1      32.196  16.184   8.203  0.00  0.00     0.686 A 
HETATM    2  N   UNK N   1      30.930  16.641   7.975  0.00  0.00    -0.168 N 
ATOM      3  HN  UNK N   1      30.262  16.692   8.744  1.00  0.00     0.186 HD
HETATM    4  C   UNK N   1      30.551  17.031   6.719  0.00  0.00     0.190 A 
HETATM    5  C   UNK N   1      31.461  16.972   5.659  0.00  0.00     0.149 A 
HETATM    6  C   UNK N   1      32.757  16.510   5.921  0.00  0.00     0.147 A 
HETATM    7  N   UNK N   1      33.082  16.131   7.175  0.00  0.00    -0.174 N 
ATOM      8  HN  UNK N   1      34.027  15.792   7.356  1.00  0.00     0.186 HD
HETATM    9  N   UNK N   1      32.587  15.748   9.507  0.00  0.00    -0.192 N 
HETATM   10  H   UNK N   1      31.930  15.829  10.237  0.00  0.00     0.184 HD
ENDROOT
BRANCH   9  11
HETATM   11  C   UNK N   1      33.875  15.204   9.819  0.00  0.00     0.049 A 
HETATM   12  C   UNK N   1      34.111  13.831   9.663  0.00  0.00     0.031 A 
HETATM   13  C   UNK N   1      35.374  13.292   9.965  0.00  0.00     0.019 A 
HETATM   14  C   UNK N   1      36.411  14.123  10.426  0.00  0.00     0.032 A 
HETATM   15  C   UNK N   1      36.172  15.489  10.578  0.00  0.00     0.019 A 
HETATM   16  C   UNK N   1      34.922  16.018  10.278  0.00  0.00     0.031 A 
BRANCH  14  17
HETATM   17  C   UNK N   1      37.746  13.576  10.751  0.00  0.00     0.249 C 
HETATM   18  N   UNK N   1      37.945  12.913  11.909  0.00  0.00    -0.366 N 
HETATM   19  H   UNK N   1      38.838  12.558  12.128  0.00  0.00     0.159 HD
HETATM   20  H   UNK N   1      37.198  12.782  12.537  0.00  0.00     0.159 HD
HETATM   21  O   UNK N   1      38.677  13.720   9.976  0.00  0.00    -0.268 OA
ENDBRANCH  14  17
ENDBRANCH   9  11
BRANCH   4  22
HETATM   22  O   UNK N   1      29.303  17.470   6.452  0.00  0.00    -0.333 OA
BRANCH  22  23
HETATM   23  C   UNK N   1      28.591  18.410   7.156  0.00  0.00     0.182 C 
BRANCH  23  24
HETATM   24  C   UNK N   1      27.528  18.983   6.219  0.00  0.00     0.010 C 
HETATM   25  C   UNK N   1      27.520  20.507   6.251  0.00  0.00     0.007 C 
HETATM   26  C   UNK N   1      26.405  21.041   5.348  0.00  0.00     0.000 C 
HETATM   27  C   UNK N   1      26.572  20.530   3.916  0.00  0.00     0.000 C 
HETATM   28  C   UNK N   1      26.596  19.005   3.895  0.00  0.00     0.000 C 
HETATM   29  C   UNK N   1      27.729  18.499   4.778  0.00  0.00     0.007 C 
ENDBRANCH  23  24
ENDBRANCH  22  23
ENDBRANCH   4  22
BRANCH   6  30
HETATM   30  N   UNK N   1      33.733  16.427   4.907  0.00  0.00    -0.383 N 
HETATM   31  H   UNK N   1      34.621  16.828   5.043  0.00  0.00     0.157 HD
HETATM   32  H   UNK N   1      33.525  15.966   4.061  0.00  0.00     0.157 HD
ENDBRANCH   6  30
BRANCH   5  33
HETATM   33  N   UNK N   1      31.040  17.388   4.363  0.00  0.00    -0.261 N 
ATOM     34  HN  UNK N   1      30.195  16.980   3.964  1.00  0.00     0.194 HD
BRANCH  33  35
HETATM   35  O   UNK N   1      31.647  18.197   3.729  0.00  0.00    -0.289 OA
ATOM     36  HO  UNK N   1      32.176  18.869   4.143  1.00  0.00     0.244 HD
ENDBRANCH  33  35
ENDBRANCH   5  33
TORSDOF 8
ENDMDL
