MODEL 1
REMARK VINA RESULT:      -6.4      0.000      0.000
REMARK  5 active torsions:
REMARK  status: ('A' for Active; 'I' for Inactive)
REMARK    1  A    between atoms: N_1  and  C_2 
REMARK    2  A    between atoms: N_1  and  S_9 
REMARK    3  A    between atoms: S_9  and  C_10 
REMARK    4  A    between atoms: C_13  and  C_16 
REMARK    5  A    between atoms: C_16  and  O_18 
ROOT
HETATM    1  S   UNK N   1      34.212  16.960   8.394  0.00  0.00     0.264 S 
HETATM    2  O   UNK N   1      35.093  17.686   9.416  0.00  0.00    -0.200 OA
HETATM    3  O   UNK N   1      34.661  17.787   7.180  0.00  0.00    -0.200 OA
ENDROOT
BRANCH   1   4
HETATM    4  N   UNK N   1      32.736  17.705   9.000  0.00  0.00    -0.281 N 
HETATM    5  H   UNK N   1      32.822  18.162   9.867  0.00  0.00     0.179 HD
BRANCH   4   6
HETATM    6  C   UNK N   1      31.446  17.742   8.425  0.00  0.00     0.042 A 
HETATM    7  C   UNK N   1      30.393  18.488   8.972  0.00  0.00     0.032 A 
HETATM    8  C   UNK N   1      29.144  18.498   8.329  0.00  0.00     0.026 A 
HETATM    9  C   UNK N   1      28.951  17.765   7.148  0.00  0.00     0.034 A 
HETATM   10  C   UNK N   1      30.000  17.020   6.612  0.00  0.00     0.026 A 
HETATM   11 Cl   UNK N   1      27.402  17.777   6.332  0.00  0.00    -0.084 Cl
HETATM   12  C   UNK N   1      31.240  17.013   7.248  0.00  0.00     0.032 A 
ENDBRANCH   4   6
ENDBRANCH   1   4
BRANCH   1  13
HETATM   13  C   UNK N   1      34.998  15.339   8.533  0.00  0.00     0.104 A 
HETATM   14  C   UNK N   1      34.873  14.480   9.655  0.00  0.00     0.101 A 
HETATM   15  S   UNK N   1      35.756  13.128   9.304  0.00  0.00    -0.094 SA
HETATM   16  C   UNK N   1      36.335  13.524   7.799  0.00  0.00     0.052 A 
HETATM   17  C   UNK N   1      35.822  14.797   7.505  0.00  0.00     0.034 A 
BRANCH  14  18
HETATM   18  C   UNK N   1      34.132  14.680  10.926  0.00  0.00     0.184 C 
HETATM   19  O   UNK N   1      34.703  14.461  11.994  0.00  0.00    -0.646 OA
BRANCH  18  20
HETATM   20  O   UNK N   1      32.866  15.113  10.953  0.00  0.00    -0.772 OA
HETATM   21  H   UNK N   1      32.634  15.910  10.517  0.00  0.00     0.167 HD
ENDBRANCH  18  20
ENDBRANCH  14  18
ENDBRANCH   1  13
TORSDOF 5
ENDMDL
MODEL 2
REMARK VINA RESULT:      -6.1      2.477      3.400
REMARK  5 active torsions:
REMARK  status: ('A' for Active; 'I' for Inactive)
REMARK    1  A    between atoms: N_1  and  C_2 
REMARK    2  A    between atoms: N_1  and  S_9 
REMARK    3  A    between atoms: S_9  and  C_10 
REMARK    4  A    between atoms: C_13  and  C_16 
REMARK    5  A    between atoms: C_16  and  O_18 
ROOT
HETATM    1  S   UNK N   1      32.709  15.348   7.334  0.00  0.00     0.264 S 
HETATM    2  O   UNK N   1      33.863  14.928   6.418  0.00  0.00    -0.200 OA
HETATM    3  O   UNK N   1      32.028  13.972   7.373  0.00  0.00    -0.200 OA
ENDROOT
BRANCH   1   4
HETATM    4  N   UNK N   1      31.915  16.272   6.063  0.00  0.00    -0.281 N 
HETATM    5  H   UNK N   1      32.374  16.270   5.193  0.00  0.00     0.179 HD
BRANCH   4   6
HETATM    6  C   UNK N   1      30.716  17.019   6.108  0.00  0.00     0.042 A 
HETATM    7  C   UNK N   1      30.063  17.333   7.308  0.00  0.00     0.032 A 
HETATM    8  C   UNK N   1      28.888  18.103   7.276  0.00  0.00     0.026 A 
HETATM    9  C   UNK N   1      28.370  18.551   6.052  0.00  0.00     0.034 A 
HETATM   10  C   UNK N   1      29.019  18.229   4.862  0.00  0.00     0.026 A 
HETATM   11 Cl   UNK N   1      26.912  19.519   6.000  0.00  0.00    -0.084 Cl
HETATM   12  C   UNK N   1      30.188  17.470   4.893  0.00  0.00     0.032 A 
ENDBRANCH   4   6
ENDBRANCH   1   4
BRANCH   1  13
HETATM   13  C   UNK N   1      33.707  15.736   8.789  0.00  0.00     0.104 A 
HETATM   14  C   UNK N   1      34.469  16.922   8.946  0.00  0.00     0.101 A 
HETATM   15  S   UNK N   1      35.188  16.818  10.430  0.00  0.00    -0.094 SA
HETATM   16  C   UNK N   1      34.626  15.341  10.939  0.00  0.00     0.052 A 
HETATM   17  C   UNK N   1      33.807  14.858   9.906  0.00  0.00     0.034 A 
BRANCH  14  18
HETATM   18  C   UNK N   1      34.649  18.066   8.015  0.00  0.00     0.184 C 
HETATM   19  O   UNK N   1      35.065  19.138   8.456  0.00  0.00    -0.646 OA
BRANCH  18  20
HETATM   20  O   UNK N   1      34.395  17.965   6.705  0.00  0.00    -0.772 OA
HETATM   21  H   UNK N   1      35.008  17.536   6.140  0.00  0.00     0.167 HD
ENDBRANCH  18  20
ENDBRANCH  14  18
ENDBRANCH   1  13
TORSDOF 5
ENDMDL
MODEL 3
REMARK VINA RESULT:      -6.0      6.020      8.733
REMARK  5 active torsions:
REMARK  status: ('A' for Active; 'I' for Inactive)
REMARK    1  A    between atoms: N_1  and  C_2 
REMARK    2  A    between atoms: N_1  and  S_9 
REMARK    3  A    between atoms: S_9  and  C_10 
REMARK    4  A    between atoms: C_13  and  C_16 
REMARK    5  A    between atoms: C_16  and  O_18 
ROOT
HETATM    1  S   UNK N   1      36.118  13.512  13.029  0.00  0.00     0.264 S 
HETATM    2  O   UNK N   1      36.300  14.992  13.384  0.00  0.00    -0.200 OA
HETATM    3  O   UNK N   1      34.618  13.455  13.351  0.00  0.00    -0.200 OA
ENDROOT
BRANCH   1   4
HETATM    4  N   UNK N   1      36.969  12.967  14.471  0.00  0.00    -0.281 N 
HETATM    5  H   UNK N   1      37.941  13.120  14.468  0.00  0.00     0.179 HD
BRANCH   4   6
HETATM    6  C   UNK N   1      36.462  12.341  15.632  0.00  0.00     0.042 A 
HETATM    7  C   UNK N   1      36.687  10.989  15.925  0.00  0.00     0.032 A 
HETATM    8  C   UNK N   1      36.173  10.443  17.113  0.00  0.00     0.026 A 
HETATM    9  C   UNK N   1      35.436  11.244  17.998  0.00  0.00     0.034 A 
HETATM   10  C   UNK N   1      35.210  12.586  17.698  0.00  0.00     0.026 A 
HETATM   11 Cl   UNK N   1      34.799  10.578  19.486  0.00  0.00    -0.084 Cl
HETATM   12  C   UNK N   1      35.723  13.129  16.522  0.00  0.00     0.032 A 
ENDBRANCH   4   6
ENDBRANCH   1   4
BRANCH   1  13
HETATM   13  C   UNK N   1      36.506  13.655  11.270  0.00  0.00     0.104 A 
HETATM   14  C   UNK N   1      35.808  14.490  10.360  0.00  0.00     0.101 A 
HETATM   15  S   UNK N   1      36.535  14.284   8.890  0.00  0.00    -0.094 SA
HETATM   16  C   UNK N   1      37.706  13.175   9.283  0.00  0.00     0.052 A 
HETATM   17  C   UNK N   1      37.561  12.921  10.656  0.00  0.00     0.034 A 
BRANCH  14  18
HETATM   18  C   UNK N   1      34.647  15.386  10.593  0.00  0.00     0.184 C 
HETATM   19  O   UNK N   1      34.714  16.562  10.232  0.00  0.00    -0.646 OA
BRANCH  18  20
HETATM   20  O   UNK N   1      33.516  14.954  11.164  0.00  0.00    -0.772 OA
HETATM   21  H   UNK N   1      33.167  14.115  10.936  0.00  0.00     0.167 HD
ENDBRANCH  18  20
ENDBRANCH  14  18
ENDBRANCH   1  13
TORSDOF 5
ENDMDL
MODEL 4
REMARK VINA RESULT:      -6.0      4.303      6.738
REMARK  5 active torsions:
REMARK  status: ('A' for Active; 'I' for Inactive)
REMARK    1  A    between atoms: N_1  and  C_2 
REMARK    2  A    between atoms: N_1  and  S_9 
REMARK    3  A    between atoms: S_9  and  C_10 
REMARK    4  A    between atoms: C_13  and  C_16 
REMARK    5  A    between atoms: C_16  and  O_18 
ROOT
HETATM    1  S   UNK N   1      35.445  16.176  10.630  0.00  0.00     0.264 S 
HETATM    2  O   UNK N   1      36.414  15.522   9.639  0.00  0.00    -0.200 OA
HETATM    3  O   UNK N   1      36.071  17.577  10.564  0.00  0.00    -0.200 OA
ENDROOT
BRANCH   1   4
HETATM    4  N   UNK N   1      36.166  15.361  12.014  0.00  0.00    -0.281 N 
HETATM    5  H   UNK N   1      37.002  15.759  12.347  0.00  0.00     0.179 HD
BRANCH   4   6
HETATM    6  C   UNK N   1      35.722  14.218  12.717  0.00  0.00     0.042 A 
HETATM    7  C   UNK N   1      35.882  14.070  14.101  0.00  0.00     0.032 A 
HETATM    8  C   UNK N   1      35.390  12.916  14.735  0.00  0.00     0.026 A 
HETATM    9  C   UNK N   1      34.747  11.919  13.987  0.00  0.00     0.034 A 
HETATM   10  C   UNK N   1      34.597  12.069  12.610  0.00  0.00     0.026 A 
HETATM   11 Cl   UNK N   1      34.120  10.481  14.767  0.00  0.00    -0.084 Cl
HETATM   12  C   UNK N   1      35.081  13.215  11.981  0.00  0.00     0.032 A 
ENDBRANCH   4   6
ENDBRANCH   1   4
BRANCH   1  13
HETATM   13  C   UNK N   1      33.946  15.974   9.642  0.00  0.00     0.104 A 
HETATM   14  C   UNK N   1      33.605  16.783   8.528  0.00  0.00     0.101 A 
HETATM   15  S   UNK N   1      32.164  16.206   7.960  0.00  0.00    -0.094 SA
HETATM   16  C   UNK N   1      31.886  14.971   9.034  0.00  0.00     0.052 A 
HETATM   17  C   UNK N   1      32.976  14.969   9.919  0.00  0.00     0.034 A 
BRANCH  14  18
HETATM   18  C   UNK N   1      34.328  17.938   7.935  0.00  0.00     0.184 C 
HETATM   19  O   UNK N   1      34.551  17.948   6.725  0.00  0.00    -0.646 OA
BRANCH  18  20
HETATM   20  O   UNK N   1      34.727  18.982   8.671  0.00  0.00    -0.772 OA
HETATM   21  H   UNK N   1      34.673  19.850   8.321  0.00  0.00     0.167 HD
ENDBRANCH  18  20
ENDBRANCH  14  18
ENDBRANCH   1  13
TORSDOF 5
ENDMDL
MODEL 5
REMARK VINA RESULT:      -6.0      5.340      6.849
REMARK  5 active torsions:
REMARK  status: ('A' for Active; 'I' for Inactive)
REMARK    1  A    between atoms: N_1  and  C_2 
REMARK    2  A    between atoms: N_1  and  S_9 
REMARK    3  A    between atoms: S_9  and  C_10 
REMARK    4  A    between atoms: C_13  and  C_16 
REMARK    5  A    between atoms: C_16  and  O_18 
ROOT
HETATM    1  S   UNK N   1      28.008  18.335   6.064  0.00  0.00     0.264 S 
HETATM    2  O   UNK N   1      27.027  17.298   6.621  0.00  0.00    -0.200 OA
HETATM    3  O   UNK N   1      27.416  19.536   6.816  0.00  0.00    -0.200 OA
ENDROOT
BRANCH   1   4
HETATM    4  N   UNK N   1      27.265  18.317   4.468  0.00  0.00    -0.281 N 
HETATM    5  H   UNK N   1      27.755  17.808   3.783  0.00  0.00     0.179 HD
BRANCH   4   6
HETATM    6  C   UNK N   1      26.070  18.927   4.025  0.00  0.00     0.042 A 
HETATM    7  C   UNK N   1      26.057  20.090   3.243  0.00  0.00     0.032 A 
HETATM    8  C   UNK N   1      24.829  20.624   2.818  0.00  0.00     0.026 A 
HETATM    9  C   UNK N   1      23.625  20.001   3.176  0.00  0.00     0.034 A 
HETATM   10  C   UNK N   1      23.644  18.848   3.959  0.00  0.00     0.026 A 
HETATM   11 Cl   UNK N   1      22.089  20.651   2.643  0.00  0.00    -0.084 Cl
HETATM   12  C   UNK N   1      24.862  18.315   4.378  0.00  0.00     0.032 A 
ENDBRANCH   4   6
ENDBRANCH   1   4
BRANCH   1  13
HETATM   13  C   UNK N   1      29.505  17.646   6.806  0.00  0.00     0.104 A 
HETATM   14  C   UNK N   1      29.787  17.654   8.196  0.00  0.00     0.101 A 
HETATM   15  S   UNK N   1      31.250  16.907   8.376  0.00  0.00    -0.094 SA
HETATM   16  C   UNK N   1      31.610  16.556   6.794  0.00  0.00     0.052 A 
HETATM   17  C   UNK N   1      30.533  17.035   6.032  0.00  0.00     0.034 A 
BRANCH  14  18
HETATM   18  C   UNK N   1      28.994  18.207   9.324  0.00  0.00     0.184 C 
HETATM   19  O   UNK N   1      29.572  18.826  10.217  0.00  0.00    -0.646 OA
BRANCH  18  20
HETATM   20  O   UNK N   1      27.664  18.074   9.392  0.00  0.00    -0.772 OA
HETATM   21  H   UNK N   1      27.279  17.545  10.063  0.00  0.00     0.167 HD
ENDBRANCH  18  20
ENDBRANCH  14  18
ENDBRANCH   1  13
TORSDOF 5
ENDMDL
MODEL 6
REMARK VINA RESULT:      -5.8     16.149     18.009
REMARK  5 active torsions:
REMARK  status: ('A' for Active; 'I' for Inactive)
REMARK    1  A    between atoms: N_1  and  C_2 
REMARK    2  A    between atoms: N_1  and  S_9 
REMARK    3  A    between atoms: S_9  and  C_10 
REMARK    4  A    between atoms: C_13  and  C_16 
REMARK    5  A    between atoms: C_16  and  O_18 
ROOT
HETATM    1  S   UNK N   1      26.190  23.853  -6.613  0.00  0.00     0.264 S 
HETATM    2  O   UNK N   1      26.612  24.020  -8.076  0.00  0.00    -0.200 OA
HETATM    3  O   UNK N   1      25.110  22.794  -6.878  0.00  0.00    -0.200 OA
ENDROOT
BRANCH   1   4
HETATM    4  N   UNK N   1      25.375  25.413  -6.573  0.00  0.00    -0.281 N 
HETATM    5  H   UNK N   1      24.479  25.429  -6.979  0.00  0.00     0.179 HD
BRANCH   4   6
HETATM    6  C   UNK N   1      25.819  26.646  -6.045  0.00  0.00     0.042 A 
HETATM    7  C   UNK N   1      25.250  27.232  -4.906  0.00  0.00     0.032 A 
HETATM    8  C   UNK N   1      25.763  28.448  -4.424  0.00  0.00     0.026 A 
HETATM    9  C   UNK N   1      26.835  29.073  -5.079  0.00  0.00     0.034 A 
HETATM   10  C   UNK N   1      27.392  28.489  -6.215  0.00  0.00     0.026 A 
HETATM   11 Cl   UNK N   1      27.489  30.583  -4.482  0.00  0.00    -0.084 Cl
HETATM   12  C   UNK N   1      26.886  27.281  -6.692  0.00  0.00     0.032 A 
ENDBRANCH   4   6
ENDBRANCH   1   4
BRANCH   1  13
HETATM   13  C   UNK N   1      27.757  23.192  -6.003  0.00  0.00     0.104 A 
HETATM   14  C   UNK N   1      28.341  23.533  -4.756  0.00  0.00     0.101 A 
HETATM   15  S   UNK N   1      29.747  22.671  -4.651  0.00  0.00    -0.094 SA
HETATM   16  C   UNK N   1      29.720  21.866  -6.102  0.00  0.00     0.052 A 
HETATM   17  C   UNK N   1      28.540  22.265  -6.749  0.00  0.00     0.034 A 
BRANCH  14  18
HETATM   18  C   UNK N   1      27.861  24.468  -3.707  0.00  0.00     0.184 C 
HETATM   19  O   UNK N   1      28.259  25.634  -3.715  0.00  0.00    -0.646 OA
BRANCH  18  20
HETATM   20  O   UNK N   1      26.991  24.094  -2.761  0.00  0.00    -0.772 OA
HETATM   21  H   UNK N   1      26.815  23.184  -2.621  0.00  0.00     0.167 HD
ENDBRANCH  18  20
ENDBRANCH  14  18
ENDBRANCH   1  13
TORSDOF 5
ENDMDL
MODEL 7
REMARK VINA RESULT:      -5.8      5.663      8.291
REMARK  5 active torsions:
REMARK  status: ('A' for Active; 'I' for Inactive)
REMARK    1  A    between atoms: N_1  and  C_2 
REMARK    2  A    between atoms: N_1  and  S_9 
REMARK    3  A    between atoms: S_9  and  C_10 
REMARK    4  A    between atoms: C_13  and  C_16 
REMARK    5  A    between atoms: C_16  and  O_18 
ROOT
HETATM    1  S   UNK N   1      35.219  13.023  12.132  0.00  0.00     0.264 S 
HETATM    2  O   UNK N   1      36.094  11.830  11.733  0.00  0.00    -0.200 OA
HETATM    3  O   UNK N   1      36.337  13.817  12.824  0.00  0.00    -0.200 OA
ENDROOT
BRANCH   1   4
HETATM    4  N   UNK N   1      34.389  12.112  13.389  0.00  0.00    -0.281 N 
HETATM    5  H   UNK N   1      33.576  11.640  13.098  0.00  0.00     0.179 HD
BRANCH   4   6
HETATM    6  C   UNK N   1      34.717  11.960  14.755  0.00  0.00     0.042 A 
HETATM    7  C   UNK N   1      34.874  13.049  15.623  0.00  0.00     0.032 A 
HETATM    8  C   UNK N   1      35.174  12.818  16.976  0.00  0.00     0.026 A 
HETATM    9  C   UNK N   1      35.320  11.507  17.454  0.00  0.00     0.034 A 
HETATM   10  C   UNK N   1      35.169  10.429  16.585  0.00  0.00     0.026 A 
HETATM   11 Cl   UNK N   1      35.684  11.207  19.140  0.00  0.00    -0.084 Cl
HETATM   12  C   UNK N   1      34.867  10.657  15.244  0.00  0.00     0.032 A 
ENDBRANCH   4   6
ENDBRANCH   1   4
BRANCH   1  13
HETATM   13  C   UNK N   1      34.826  13.580  10.459  0.00  0.00     0.104 A 
HETATM   14  C   UNK N   1      35.140  14.865   9.946  0.00  0.00     0.101 A 
HETATM   15  S   UNK N   1      34.593  14.889   8.387  0.00  0.00    -0.094 SA
HETATM   16  C   UNK N   1      33.946  13.364   8.268  0.00  0.00     0.052 A 
HETATM   17  C   UNK N   1      34.154  12.752   9.514  0.00  0.00     0.034 A 
BRANCH  14  18
HETATM   18  C   UNK N   1      35.809  16.014  10.608  0.00  0.00     0.184 C 
HETATM   19  O   UNK N   1      35.139  16.999  10.921  0.00  0.00    -0.646 OA
BRANCH  18  20
HETATM   20  O   UNK N   1      37.115  16.008  10.898  0.00  0.00    -0.772 OA
HETATM   21  H   UNK N   1      37.486  16.703  11.405  0.00  0.00     0.167 HD
ENDBRANCH  18  20
ENDBRANCH  14  18
ENDBRANCH   1  13
TORSDOF 5
ENDMDL
MODEL 8
REMARK VINA RESULT:      -5.8      2.434      3.157
REMARK  5 active torsions:
REMARK  status: ('A' for Active; 'I' for Inactive)
REMARK    1  A    between atoms: N_1  and  C_2 
REMARK    2  A    between atoms: N_1  and  S_9 
REMARK    3  A    between atoms: S_9  and  C_10 
REMARK    4  A    between atoms: C_13  and  C_16 
REMARK    5  A    between atoms: C_16  and  O_18 
ROOT
HETATM    1  S   UNK N   1      35.315  15.847  10.393  0.00  0.00     0.264 S 
HETATM    2  O   UNK N   1      34.805  16.195  11.796  0.00  0.00    -0.200 OA
HETATM    3  O   UNK N   1      36.765  16.289  10.636  0.00  0.00    -0.200 OA
ENDROOT
BRANCH   1   4
HETATM    4  N   UNK N   1      34.484  17.212   9.653  0.00  0.00    -0.281 N 
HETATM    5  H   UNK N   1      34.554  18.061  10.144  0.00  0.00     0.179 HD
BRANCH   4   6
HETATM    6  C   UNK N   1      33.731  17.266   8.458  0.00  0.00     0.042 A 
HETATM    7  C   UNK N   1      34.318  17.465   7.201  0.00  0.00     0.032 A 
HETATM    8  C   UNK N   1      33.507  17.480   6.054  0.00  0.00     0.026 A 
HETATM    9  C   UNK N   1      32.120  17.301   6.166  0.00  0.00     0.034 A 
HETATM   10  C   UNK N   1      31.542  17.110   7.419  0.00  0.00     0.026 A 
HETATM   11 Cl   UNK N   1      31.100  17.308   4.742  0.00  0.00    -0.084 Cl
HETATM   12  C   UNK N   1      32.346  17.091   8.557  0.00  0.00     0.032 A 
ENDBRANCH   4   6
ENDBRANCH   1   4
BRANCH   1  13
HETATM   13  C   UNK N   1      35.044  14.063  10.493  0.00  0.00     0.104 A 
HETATM   14  C   UNK N   1      35.233  13.288  11.667  0.00  0.00     0.101 A 
HETATM   15  S   UNK N   1      34.852  11.732  11.260  0.00  0.00    -0.094 SA
HETATM   16  C   UNK N   1      34.458  11.923   9.659  0.00  0.00     0.052 A 
HETATM   17  C   UNK N   1      34.617  13.289   9.377  0.00  0.00     0.034 A 
BRANCH  14  18
HETATM   18  C   UNK N   1      35.688  13.705  13.018  0.00  0.00     0.184 C 
HETATM   19  O   UNK N   1      35.009  13.401  13.999  0.00  0.00    -0.646 OA
BRANCH  18  20
HETATM   20  O   UNK N   1      36.825  14.385  13.209  0.00  0.00    -0.772 OA
HETATM   21  H   UNK N   1      37.583  14.183  12.697  0.00  0.00     0.167 HD
ENDBRANCH  18  20
ENDBRANCH  14  18
ENDBRANCH   1  13
TORSDOF 5
ENDMDL
MODEL 9
REMARK VINA RESULT:      -5.7      4.764      7.284
REMARK  5 active torsions:
REMARK  status: ('A' for Active; 'I' for Inactive)
REMARK    1  A    between atoms: N_1  and  C_2 
REMARK    2  A    between atoms: N_1  and  S_9 
REMARK    3  A    between atoms: S_9  and  C_10 
REMARK    4  A    between atoms: C_13  and  C_16 
REMARK    5  A    between atoms: C_16  and  O_18 
ROOT
HETATM    1  S   UNK N   1      35.771  14.863  11.028  0.00  0.00     0.264 S 
HETATM    2  O   UNK N   1      36.427  16.246  11.089  0.00  0.00    -0.200 OA
HETATM    3  O   UNK N   1      34.413  15.305  11.593  0.00  0.00    -0.200 OA
ENDROOT
BRANCH   1   4
HETATM    4  N   UNK N   1      36.713  14.254  12.385  0.00  0.00    -0.281 N 
HETATM    5  H   UNK N   1      37.677  14.156  12.215  0.00  0.00     0.179 HD
BRANCH   4   6
HETATM    6  C   UNK N   1      36.289  13.885  13.681  0.00  0.00     0.042 A 
HETATM    7  C   UNK N   1      35.323  12.895  13.909  0.00  0.00     0.032 A 
HETATM    8  C   UNK N   1      34.971  12.563  15.229  0.00  0.00     0.026 A 
HETATM    9  C   UNK N   1      35.579  13.220  16.309  0.00  0.00     0.034 A 
HETATM   10  C   UNK N   1      36.534  14.208  16.076  0.00  0.00     0.026 A 
HETATM   11 Cl   UNK N   1      35.156  12.808  17.957  0.00  0.00    -0.084 Cl
HETATM   12  C   UNK N   1      36.887  14.534  14.767  0.00  0.00     0.032 A 
ENDBRANCH   4   6
ENDBRANCH   1   4
BRANCH   1  13
HETATM   13  C   UNK N   1      35.813  14.675   9.231  0.00  0.00     0.104 A 
HETATM   14  C   UNK N   1      34.980  15.389   8.331  0.00  0.00     0.101 A 
HETATM   15  S   UNK N   1      35.398  14.884   6.814  0.00  0.00    -0.094 SA
HETATM   16  C   UNK N   1      36.585  13.781   7.176  0.00  0.00     0.052 A 
HETATM   17  C   UNK N   1      36.701  13.776   8.575  0.00  0.00     0.034 A 
BRANCH  14  18
HETATM   18  C   UNK N   1      33.919  16.390   8.609  0.00  0.00     0.184 C 
HETATM   19  O   UNK N   1      32.836  16.292   8.032  0.00  0.00    -0.646 OA
BRANCH  18  20
HETATM   20  O   UNK N   1      34.092  17.387   9.485  0.00  0.00    -0.772 OA
HETATM   21  H   UNK N   1      34.931  17.527   9.876  0.00  0.00     0.167 HD
ENDBRANCH  18  20
ENDBRANCH  14  18
ENDBRANCH   1  13
TORSDOF 5
ENDMDL
