MODEL 1
REMARK VINA RESULT:      -6.1      0.000      0.000
REMARK  4 active torsions:
REMARK  status: ('A' for Active; 'I' for Inactive)
REMARK    1  A    between atoms: C_1  and  C_9 
REMARK    2  A    between atoms: C_3  and  S_8 
REMARK    3  A    between atoms: C_9  and  C_10 
REMARK    4  A    between atoms: C_13  and  C_16 
ROOT
HETATM    1  C   UNK N   1      21.202  15.141   7.879  0.00  0.00    -0.057 A 
HETATM    2  C   UNK N   1      22.377  14.389   7.769  0.00  0.00     0.008 A 
HETATM    3  C   UNK N   1      22.683  13.428   8.740  0.00  0.00     0.017 A 
HETATM    4  C   UNK N   1      21.812  13.208   9.821  0.00  0.00     0.047 A 
HETATM    5  C   UNK N   1      20.633  13.953   9.916  0.00  0.00     0.017 A 
HETATM    6  C   UNK N   1      20.325  14.903   8.944  0.00  0.00     0.008 A 
ENDROOT
BRANCH   1   7
HETATM    7  C   UNK N   1      20.835  16.136   6.823  0.00  0.00     0.063 C 
BRANCH   7   8
HETATM    8  C   UNK N   1      20.669  15.593   5.391  0.00  0.00     0.151 A 
HETATM    9  S   UNK N   1      21.712  16.444   4.130  0.00  0.00    -0.090 SA
HETATM   10  C   UNK N   1      20.226  17.158   3.448  0.00  0.00     0.108 A 
HETATM   11  N   UNK N   1      19.127  16.754   3.948  0.00  0.00    -0.315 N 
HETATM   12  C   UNK N   1      19.264  15.887   4.959  0.00  0.00     0.237 A 
ATOM     13  HN  UNK N   1      18.217  17.066   3.606  1.00  0.00     0.170 HD
HETATM   14  O   UNK N   1      18.291  15.415   5.525  0.00  0.00    -0.272 OA
BRANCH  10  15
HETATM   15  S   UNK N   1      20.278  18.395   2.159  0.00  0.00    -0.118 SA
HETATM   16  H   UNK N   1      19.688  19.606   2.347  0.00  0.00     0.109 HD
ENDBRANCH  10  15
ENDBRANCH   7   8
ENDBRANCH   1   7
BRANCH   4  17
HETATM   17  C   UNK N   1      22.122  12.184  10.872  0.00  0.00     0.417 C 
HETATM   18  F   UNK N   1      22.593  11.033  10.266  0.00  0.00    -0.166 F 
HETATM   19  F   UNK N   1      20.971  11.884  11.578  0.00  0.00    -0.166 F 
HETATM   20  F   UNK N   1      23.081  12.648  11.755  0.00  0.00    -0.166 F 
ENDBRANCH   4  17
TORSDOF 4
ENDMDL
MODEL 2
REMARK VINA RESULT:      -6.1     17.269     18.306
REMARK  4 active torsions:
REMARK  status: ('A' for Active; 'I' for Inactive)
REMARK    1  A    between atoms: C_1  and  C_9 
REMARK    2  A    between atoms: C_3  and  S_8 
REMARK    3  A    between atoms: C_9  and  C_10 
REMARK    4  A    between atoms: C_13  and  C_16 
ROOT
HETATM    1  C   UNK N   1      28.222  24.284  -4.277  0.00  0.00    -0.057 A 
HETATM    2  C   UNK N   1      26.872  24.088  -4.586  0.00  0.00     0.008 A 
HETATM    3  C   UNK N   1      26.021  25.191  -4.727  0.00  0.00     0.017 A 
HETATM    4  C   UNK N   1      26.518  26.495  -4.567  0.00  0.00     0.047 A 
HETATM    5  C   UNK N   1      27.871  26.684  -4.272  0.00  0.00     0.017 A 
HETATM    6  C   UNK N   1      28.719  25.586  -4.141  0.00  0.00     0.008 A 
ENDROOT
BRANCH   1   7
HETATM    7  C   UNK N   1      29.156  23.119  -4.173  0.00  0.00     0.063 C 
BRANCH   7   8
HETATM    8  C   UNK N   1      30.635  23.444  -3.896  0.00  0.00     0.151 A 
HETATM    9  S   UNK N   1      31.809  22.761  -5.145  0.00  0.00    -0.090 SA
HETATM   10  C   UNK N   1      32.392  21.618  -3.905  0.00  0.00     0.108 A 
HETATM   11  N   UNK N   1      31.927  21.775  -2.731  0.00  0.00    -0.315 N 
HETATM   12  C   UNK N   1      31.017  22.752  -2.623  0.00  0.00     0.237 A 
ATOM     13  HN  UNK N   1      32.222  21.204  -1.938  1.00  0.00     0.170 HD
HETATM   14  O   UNK N   1      30.494  23.014  -1.552  0.00  0.00    -0.272 OA
BRANCH  10  15
HETATM   15  S   UNK N   1      33.540  20.305  -4.296  0.00  0.00    -0.118 SA
HETATM   16  H   UNK N   1      34.880  20.540  -4.290  0.00  0.00     0.109 HD
ENDBRANCH  10  15
ENDBRANCH   7   8
ENDBRANCH   1   7
BRANCH   4  17
HETATM   17  C   UNK N   1      25.623  27.690  -4.713  0.00  0.00     0.417 C 
HETATM   18  F   UNK N   1      25.273  28.158  -3.459  0.00  0.00    -0.166 F 
HETATM   19  F   UNK N   1      24.476  27.327  -5.396  0.00  0.00    -0.166 F 
HETATM   20  F   UNK N   1      26.255  28.706  -5.408  0.00  0.00    -0.166 F 
ENDBRANCH   4  17
TORSDOF 4
ENDMDL
MODEL 3
REMARK VINA RESULT:      -5.8     10.851     11.849
REMARK  4 active torsions:
REMARK  status: ('A' for Active; 'I' for Inactive)
REMARK    1  A    between atoms: C_1  and  C_9 
REMARK    2  A    between atoms: C_3  and  S_8 
REMARK    3  A    between atoms: C_9  and  C_10 
REMARK    4  A    between atoms: C_13  and  C_16 
ROOT
HETATM    1  C   UNK N   1      32.083  17.085   6.468  0.00  0.00    -0.057 A 
HETATM    2  C   UNK N   1      32.523  17.631   7.678  0.00  0.00     0.008 A 
HETATM    3  C   UNK N   1      31.591  18.021   8.648  0.00  0.00     0.017 A 
HETATM    4  C   UNK N   1      30.215  17.857   8.415  0.00  0.00     0.047 A 
HETATM    5  C   UNK N   1      29.783  17.297   7.210  0.00  0.00     0.017 A 
HETATM    6  C   UNK N   1      30.712  16.902   6.249  0.00  0.00     0.008 A 
ENDROOT
BRANCH   1   7
HETATM    7  C   UNK N   1      33.068  16.617   5.442  0.00  0.00     0.063 C 
BRANCH   7   8
HETATM    8  C   UNK N   1      32.567  15.565   4.435  0.00  0.00     0.151 A 
HETATM    9  S   UNK N   1      33.533  13.993   4.436  0.00  0.00    -0.090 SA
HETATM   10  C   UNK N   1      34.168  14.436   2.828  0.00  0.00     0.108 A 
HETATM   11  N   UNK N   1      33.672  15.480   2.295  0.00  0.00    -0.315 N 
HETATM   12  C   UNK N   1      32.779  16.122   3.060  0.00  0.00     0.237 A 
ATOM     13  HN  UNK N   1      33.933  15.802   1.362  1.00  0.00     0.170 HD
HETATM   14  O   UNK N   1      32.222  17.135   2.669  0.00  0.00    -0.272 OA
BRANCH  10  15
HETATM   15  S   UNK N   1      35.452  13.486   2.025  0.00  0.00    -0.118 SA
HETATM   16  H   UNK N   1      36.295  14.083   1.141  0.00  0.00     0.109 HD
ENDBRANCH  10  15
ENDBRANCH   7   8
ENDBRANCH   1   7
BRANCH   4  17
HETATM   17  C   UNK N   1      29.200  18.268   9.441  0.00  0.00     0.417 C 
HETATM   18  F   UNK N   1      29.798  19.098  10.372  0.00  0.00    -0.166 F 
HETATM   19  F   UNK N   1      28.714  17.144  10.084  0.00  0.00    -0.166 F 
HETATM   20  F   UNK N   1      28.143  18.942   8.856  0.00  0.00    -0.166 F 
ENDBRANCH   4  17
TORSDOF 4
ENDMDL
MODEL 4
REMARK VINA RESULT:      -5.8     15.877     17.520
REMARK  4 active torsions:
REMARK  status: ('A' for Active; 'I' for Inactive)
REMARK    1  A    between atoms: C_1  and  C_9 
REMARK    2  A    between atoms: C_3  and  S_8 
REMARK    3  A    between atoms: C_9  and  C_10 
REMARK    4  A    between atoms: C_13  and  C_16 
ROOT
HETATM    1  C   UNK N   1      35.171  12.354  17.062  0.00  0.00    -0.057 A 
HETATM    2  C   UNK N   1      35.051  13.001  18.296  0.00  0.00     0.008 A 
HETATM    3  C   UNK N   1      35.439  12.344  19.470  0.00  0.00     0.017 A 
HETATM    4  C   UNK N   1      35.956  11.039  19.414  0.00  0.00     0.047 A 
HETATM    5  C   UNK N   1      36.086  10.403  18.176  0.00  0.00     0.017 A 
HETATM    6  C   UNK N   1      35.708  11.062  17.008  0.00  0.00     0.008 A 
ENDROOT
BRANCH   1   7
HETATM    7  C   UNK N   1      34.808  13.061  15.794  0.00  0.00     0.063 C 
BRANCH   7   8
HETATM    8  C   UNK N   1      35.650  12.720  14.550  0.00  0.00     0.151 A 
HETATM    9  S   UNK N   1      36.310  14.192  13.653  0.00  0.00    -0.090 SA
HETATM   10  C   UNK N   1      35.182  13.827  12.319  0.00  0.00     0.108 A 
HETATM   11  N   UNK N   1      34.521  12.744  12.420  0.00  0.00    -0.315 N 
HETATM   12  C   UNK N   1      34.739  12.067  13.556  0.00  0.00     0.237 A 
ATOM     13  HN  UNK N   1      33.880  12.419  11.696  1.00  0.00     0.170 HD
HETATM   14  O   UNK N   1      34.175  11.009  13.779  0.00  0.00    -0.272 OA
BRANCH  10  15
HETATM   15  S   UNK N   1      34.968  14.937  10.934  0.00  0.00    -0.118 SA
HETATM   16  H   UNK N   1      34.910  16.281  11.135  0.00  0.00     0.109 HD
ENDBRANCH  10  15
ENDBRANCH   7   8
ENDBRANCH   1   7
BRANCH   4  17
HETATM   17  C   UNK N   1      36.377  10.317  20.660  0.00  0.00     0.417 C 
HETATM   18  F   UNK N   1      37.330  11.067  21.325  0.00  0.00    -0.166 F 
HETATM   19  F   UNK N   1      36.922   9.091  20.321  0.00  0.00    -0.166 F 
HETATM   20  F   UNK N   1      35.302  10.110  21.506  0.00  0.00    -0.166 F 
ENDBRANCH   4  17
TORSDOF 4
ENDMDL
MODEL 5
REMARK VINA RESULT:      -5.8     16.615     17.816
REMARK  4 active torsions:
REMARK  status: ('A' for Active; 'I' for Inactive)
REMARK    1  A    between atoms: C_1  and  C_9 
REMARK    2  A    between atoms: C_3  and  S_8 
REMARK    3  A    between atoms: C_9  and  C_10 
REMARK    4  A    between atoms: C_13  and  C_16 
ROOT
HETATM    1  C   UNK N   1      28.824  22.664  -5.926  0.00  0.00    -0.057 A 
HETATM    2  C   UNK N   1      28.051  22.323  -7.041  0.00  0.00     0.008 A 
HETATM    3  C   UNK N   1      28.333  21.152  -7.755  0.00  0.00     0.017 A 
HETATM    4  C   UNK N   1      29.385  20.312  -7.352  0.00  0.00     0.047 A 
HETATM    5  C   UNK N   1      30.144  20.652  -6.228  0.00  0.00     0.017 A 
HETATM    6  C   UNK N   1      29.856  21.813  -5.514  0.00  0.00     0.008 A 
ENDROOT
BRANCH   1   7
HETATM    7  C   UNK N   1      28.503  23.886  -5.123  0.00  0.00     0.063 C 
BRANCH   7   8
HETATM    8  C   UNK N   1      27.010  24.203  -4.919  0.00  0.00     0.151 A 
HETATM    9  S   UNK N   1      26.410  25.669  -5.865  0.00  0.00    -0.090 SA
HETATM   10  C   UNK N   1      26.248  26.544  -4.318  0.00  0.00     0.108 A 
HETATM   11  N   UNK N   1      26.457  25.865  -3.263  0.00  0.00    -0.315 N 
HETATM   12  C   UNK N   1      26.826  24.596  -3.485  0.00  0.00     0.237 A 
ATOM     13  HN  UNK N   1      26.353  26.254  -2.325  1.00  0.00     0.170 HD
HETATM   14  O   UNK N   1      27.052  23.832  -2.561  0.00  0.00    -0.272 OA
BRANCH  10  15
HETATM   15  S   UNK N   1      25.848  28.285  -4.255  0.00  0.00    -0.118 SA
HETATM   16  H   UNK N   1      26.529  29.174  -5.027  0.00  0.00     0.109 HD
ENDBRANCH  10  15
ENDBRANCH   7   8
ENDBRANCH   1   7
BRANCH   4  17
HETATM   17  C   UNK N   1      29.705  19.053  -8.102  0.00  0.00     0.417 C 
HETATM   18  F   UNK N   1      31.062  18.801  -8.018  0.00  0.00    -0.166 F 
HETATM   19  F   UNK N   1      29.355  19.207  -9.431  0.00  0.00    -0.166 F 
HETATM   20  F   UNK N   1      29.017  17.972  -7.580  0.00  0.00    -0.166 F 
ENDBRANCH   4  17
TORSDOF 4
ENDMDL
MODEL 6
REMARK VINA RESULT:      -5.7     13.386     14.844
REMARK  4 active torsions:
REMARK  status: ('A' for Active; 'I' for Inactive)
REMARK    1  A    between atoms: C_1  and  C_9 
REMARK    2  A    between atoms: C_3  and  S_8 
REMARK    3  A    between atoms: C_9  and  C_10 
REMARK    4  A    between atoms: C_13  and  C_16 
ROOT
HETATM    1  C   UNK N   1      33.355  15.944   7.955  0.00  0.00    -0.057 A 
HETATM    2  C   UNK N   1      34.086  16.929   7.283  0.00  0.00     0.008 A 
HETATM    3  C   UNK N   1      33.728  17.298   5.981  0.00  0.00     0.017 A 
HETATM    4  C   UNK N   1      32.631  16.688   5.348  0.00  0.00     0.047 A 
HETATM    5  C   UNK N   1      31.897  15.715   6.031  0.00  0.00     0.017 A 
HETATM    6  C   UNK N   1      32.249  15.355   7.330  0.00  0.00     0.008 A 
ENDROOT
BRANCH   1   7
HETATM    7  C   UNK N   1      33.695  15.575   9.366  0.00  0.00     0.063 C 
BRANCH   7   8
HETATM    8  C   UNK N   1      35.176  15.277   9.663  0.00  0.00     0.151 A 
HETATM    9  S   UNK N   1      35.469  13.676  10.531  0.00  0.00    -0.090 SA
HETATM   10  C   UNK N   1      35.927  14.601  11.987  0.00  0.00     0.108 A 
HETATM   11  N   UNK N   1      35.997  15.865  11.852  0.00  0.00    -0.315 N 
HETATM   12  C   UNK N   1      35.656  16.312  10.635  0.00  0.00     0.237 A 
ATOM     13  HN  UNK N   1      36.288  16.487  12.607  1.00  0.00     0.170 HD
HETATM   14  O   UNK N   1      35.684  17.501  10.367  0.00  0.00    -0.272 OA
BRANCH  10  15
HETATM   15  S   UNK N   1      36.237  13.802  13.555  0.00  0.00    -0.118 SA
HETATM   16  H   UNK N   1      37.114  12.766  13.635  0.00  0.00     0.109 HD
ENDBRANCH  10  15
ENDBRANCH   7   8
ENDBRANCH   1   7
BRANCH   4  17
HETATM   17  C   UNK N   1      32.231  17.068   3.953  0.00  0.00     0.417 C 
HETATM   18  F   UNK N   1      33.313  16.911   3.106  0.00  0.00    -0.166 F 
HETATM   19  F   UNK N   1      31.830  18.392   3.932  0.00  0.00    -0.166 F 
HETATM   20  F   UNK N   1      31.190  16.278   3.499  0.00  0.00    -0.166 F 
ENDBRANCH   4  17
TORSDOF 4
ENDMDL
MODEL 7
REMARK VINA RESULT:      -5.7     11.292     12.630
REMARK  4 active torsions:
REMARK  status: ('A' for Active; 'I' for Inactive)
REMARK    1  A    between atoms: C_1  and  C_9 
REMARK    2  A    between atoms: C_3  and  S_8 
REMARK    3  A    between atoms: C_9  and  C_10 
REMARK    4  A    between atoms: C_13  and  C_16 
ROOT
HETATM    1  C   UNK N   1      30.710  17.501   7.497  0.00  0.00    -0.057 A 
HETATM    2  C   UNK N   1      29.394  17.909   7.734  0.00  0.00     0.008 A 
HETATM    3  C   UNK N   1      28.497  18.032   6.665  0.00  0.00     0.017 A 
HETATM    4  C   UNK N   1      28.912  17.739   5.355  0.00  0.00     0.047 A 
HETATM    5  C   UNK N   1      30.225  17.317   5.127  0.00  0.00     0.017 A 
HETATM    6  C   UNK N   1      31.113  17.187   6.193  0.00  0.00     0.008 A 
ENDROOT
BRANCH   1   7
HETATM    7  C   UNK N   1      31.666  17.316   8.634  0.00  0.00     0.063 C 
BRANCH   7   8
HETATM    8  C   UNK N   1      33.009  16.638   8.302  0.00  0.00     0.151 A 
HETATM    9  S   UNK N   1      33.437  15.224   9.407  0.00  0.00    -0.090 SA
HETATM   10  C   UNK N   1      34.738  16.225  10.108  0.00  0.00     0.108 A 
HETATM   11  N   UNK N   1      34.939  17.354   9.556  0.00  0.00    -0.315 N 
HETATM   12  C   UNK N   1      34.093  17.640   8.557  0.00  0.00     0.237 A 
ATOM     13  HN  UNK N   1      35.683  17.988   9.849  1.00  0.00     0.170 HD
HETATM   14  O   UNK N   1      34.178  18.688   7.937  0.00  0.00    -0.272 OA
BRANCH  10  15
HETATM   15  S   UNK N   1      35.684  15.687  11.527  0.00  0.00    -0.118 SA
HETATM   16  H   UNK N   1      36.402  14.534  11.475  0.00  0.00     0.109 HD
ENDBRANCH  10  15
ENDBRANCH   7   8
ENDBRANCH   1   7
BRANCH   4  17
HETATM   17  C   UNK N   1      27.967  17.864   4.196  0.00  0.00     0.417 C 
HETATM   18  F   UNK N   1      28.486  17.188   3.106  0.00  0.00    -0.166 F 
HETATM   19  F   UNK N   1      27.813  19.198   3.868  0.00  0.00    -0.166 F 
HETATM   20  F   UNK N   1      26.727  17.331   4.502  0.00  0.00    -0.166 F 
ENDBRANCH   4  17
TORSDOF 4
ENDMDL
MODEL 8
REMARK VINA RESULT:      -5.6     13.544     14.708
REMARK  4 active torsions:
REMARK  status: ('A' for Active; 'I' for Inactive)
REMARK    1  A    between atoms: C_1  and  C_9 
REMARK    2  A    between atoms: C_3  and  S_8 
REMARK    3  A    between atoms: C_9  and  C_10 
REMARK    4  A    between atoms: C_13  and  C_16 
ROOT
HETATM    1  C   UNK N   1      35.414  14.434  11.091  0.00  0.00    -0.057 A 
HETATM    2  C   UNK N   1      34.907  13.198  11.507  0.00  0.00     0.008 A 
HETATM    3  C   UNK N   1      35.066  12.789  12.836  0.00  0.00     0.017 A 
HETATM    4  C   UNK N   1      35.726  13.618  13.759  0.00  0.00     0.047 A 
HETATM    5  C   UNK N   1      36.217  14.859  13.340  0.00  0.00     0.017 A 
HETATM    6  C   UNK N   1      36.050  15.268  12.019  0.00  0.00     0.008 A 
ENDROOT
BRANCH   1   7
HETATM    7  C   UNK N   1      35.208  14.907   9.686  0.00  0.00     0.063 C 
BRANCH   7   8
HETATM    8  C   UNK N   1      34.066  15.915   9.459  0.00  0.00     0.151 A 
HETATM    9  S   UNK N   1      33.000  15.539   8.001  0.00  0.00    -0.090 SA
HETATM   10  C   UNK N   1      33.692  16.967   7.184  0.00  0.00     0.108 A 
HETATM   11  N   UNK N   1      34.469  17.694   7.883  0.00  0.00    -0.315 N 
HETATM   12  C   UNK N   1      34.692  17.234   9.121  0.00  0.00     0.237 A 
ATOM     13  HN  UNK N   1      34.888  18.555   7.529  1.00  0.00     0.170 HD
HETATM   14  O   UNK N   1      35.413  17.837   9.900  0.00  0.00    -0.272 OA
BRANCH  10  15
HETATM   15  S   UNK N   1      33.341  17.338   5.471  0.00  0.00    -0.118 SA
HETATM   16  H   UNK N   1      34.249  17.038   4.504  0.00  0.00     0.109 HD
ENDBRANCH  10  15
ENDBRANCH   7   8
ENDBRANCH   1   7
BRANCH   4  17
HETATM   17  C   UNK N   1      35.908  13.200  15.188  0.00  0.00     0.417 C 
HETATM   18  F   UNK N   1      36.764  14.083  15.820  0.00  0.00    -0.166 F 
HETATM   19  F   UNK N   1      36.455  11.930  15.231  0.00  0.00    -0.166 F 
HETATM   20  F   UNK N   1      34.700  13.189  15.863  0.00  0.00    -0.166 F 
ENDBRANCH   4  17
TORSDOF 4
ENDMDL
MODEL 9
REMARK VINA RESULT:      -5.5     14.198     15.313
REMARK  4 active torsions:
REMARK  status: ('A' for Active; 'I' for Inactive)
REMARK    1  A    between atoms: C_1  and  C_9 
REMARK    2  A    between atoms: C_3  and  S_8 
REMARK    3  A    between atoms: C_9  and  C_10 
REMARK    4  A    between atoms: C_13  and  C_16 
ROOT
HETATM    1  C   UNK N   1      35.748  13.743  12.946  0.00  0.00    -0.057 A 
HETATM    2  C   UNK N   1      36.416  14.197  14.087  0.00  0.00     0.008 A 
HETATM    3  C   UNK N   1      36.274  13.511  15.299  0.00  0.00     0.017 A 
HETATM    4  C   UNK N   1      35.468  12.361  15.373  0.00  0.00     0.047 A 
HETATM    5  C   UNK N   1      34.815  11.905  14.224  0.00  0.00     0.017 A 
HETATM    6  C   UNK N   1      34.965  12.584  13.017  0.00  0.00     0.008 A 
ENDROOT
BRANCH   1   7
HETATM    7  C   UNK N   1      35.930  14.436  11.631  0.00  0.00     0.063 C 
BRANCH   7   8
HETATM    8  C   UNK N   1      34.651  14.927  10.928  0.00  0.00     0.151 A 
HETATM    9  S   UNK N   1      34.119  13.883   9.504  0.00  0.00    -0.090 SA
HETATM   10  C   UNK N   1      34.579  15.217   8.412  0.00  0.00     0.108 A 
HETATM   11  N   UNK N   1      34.934  16.305   8.970  0.00  0.00    -0.315 N 
HETATM   12  C   UNK N   1      34.960  16.256  10.309  0.00  0.00     0.237 A 
ATOM     13  HN  UNK N   1      35.178  17.143   8.442  1.00  0.00     0.170 HD
HETATM   14  O   UNK N   1      35.277  17.231  10.971  0.00  0.00    -0.272 OA
BRANCH  10  15
HETATM   15  S   UNK N   1      34.573  15.028   6.634  0.00  0.00    -0.118 SA
HETATM   16  H   UNK N   1      34.381  13.804   6.076  0.00  0.00     0.109 HD
ENDBRANCH  10  15
ENDBRANCH   7   8
ENDBRANCH   1   7
BRANCH   4  17
HETATM   17  C   UNK N   1      35.302  11.611  16.661  0.00  0.00     0.417 C 
HETATM   18  F   UNK N   1      36.512  11.046  17.022  0.00  0.00    -0.166 F 
HETATM   19  F   UNK N   1      34.366  10.607  16.493  0.00  0.00    -0.166 F 
HETATM   20  F   UNK N   1      34.881  12.450  17.677  0.00  0.00    -0.166 F 
ENDBRANCH   4  17
TORSDOF 4
ENDMDL
