REMARK  4 active torsions:
REMARK  status: ('A' for Active; 'I' for Inactive)
REMARK    1  A    between atoms: C_1  and  C_9 
REMARK    2  A    between atoms: C_3  and  S_8 
REMARK    3  A    between atoms: C_9  and  C_10 
REMARK    4  A    between atoms: C_13  and  C_16 
ROOT
HETATM    1  C   UNK N   1      -0.376   0.697  -0.285  0.00  0.00    -0.057 A 
HETATM    2  C   UNK N   1      -0.437   2.015   0.179  0.00  0.00     0.008 A 
HETATM    3  C   UNK N   1       0.741   2.756   0.334  0.00  0.00     0.017 A 
HETATM    4  C   UNK N   1       1.985   2.184   0.018  0.00  0.00     0.047 A 
HETATM    5  C   UNK N   1       2.037   0.871  -0.459  0.00  0.00     0.017 A 
HETATM    6  C   UNK N   1       0.863   0.138  -0.621  0.00  0.00     0.008 A 
ENDROOT
BRANCH   1   7
HETATM    7  C   UNK N   1      -1.630  -0.091  -0.504  0.00  0.00     0.063 C 
BRANCH   7   8
HETATM    8  C   UNK N   1      -1.892  -1.254   0.471  0.00  0.00     0.151 A 
HETATM    9  S   UNK N   1      -0.364  -2.069   1.108  0.00  0.00    -0.090 SA
HETATM   10  C   UNK N   1      -0.781  -3.507   0.137  0.00  0.00     0.108 A 
HETATM   11  N   UNK N   1      -1.908  -3.480  -0.454  0.00  0.00    -0.315 N 
HETATM   12  C   UNK N   1      -2.588  -2.336  -0.297  0.00  0.00     0.237 A 
ATOM     13  HN  UNK N   1      -2.264  -4.264  -1.002  1.00  0.00     0.170 HD
HETATM   14  O   UNK N   1      -3.686  -2.178  -0.805  0.00  0.00    -0.272 OA
BRANCH  10  15
HETATM   15  S   UNK N   1       0.335  -4.894  -0.024  0.00  0.00    -0.118 SA
HETATM   16  H   UNK N   1      -0.154  -6.157  -0.146  0.00  0.00     0.109 HD
ENDBRANCH  10  15
ENDBRANCH   7   8
ENDBRANCH   1   7
BRANCH   4  17
HETATM   17  C   UNK N   1       3.259   2.960   0.177  0.00  0.00     0.417 C 
HETATM   18  F   UNK N   1       3.902   3.042  -1.045  0.00  0.00    -0.166 F 
HETATM   19  F   UNK N   1       4.084   2.313   1.079  0.00  0.00    -0.166 F 
HETATM   20  F   UNK N   1       3.010   4.241   0.637  0.00  0.00    -0.166 F 
ENDBRANCH   4  17
TORSDOF 4
