REMARK  5 active torsions:
REMARK  status: ('A' for Active; 'I' for Inactive)
REMARK    1  A    between atoms: S_1  and  C_2 
REMARK    2  A    between atoms: C_2  and  C_3 
REMARK    3  A    between atoms: C_3  and  C_4 
REMARK    4  A    between atoms: C_3  and  C_14 
REMARK    5  A    between atoms: C_14  and  C_15 
ROOT
HETATM    1  C   UNK N   1       0.084  -1.298  -0.116  0.00  0.00     0.087 A 
HETATM    2  N   UNK N   1       0.731  -2.458   0.184  0.00  0.00    -0.343 N 
ATOM      3  HN  UNK N   1       0.324  -3.366   0.407  1.00  0.00     0.167 HD
HETATM    4  C   UNK N   1       2.030  -2.126   0.117  0.00  0.00     0.076 A 
HETATM    5  C   UNK N   1       2.152  -0.819  -0.209  0.00  0.00     0.063 A 
HETATM    6  N   UNK N   1       0.941  -0.277  -0.375  0.00  0.00    -0.344 N 
HETATM    7  C   UNK N   1       3.390  -0.202  -0.330  0.00  0.00     0.049 A 
HETATM    8  C   UNK N   1       4.522  -1.007  -0.101  0.00  0.00     0.090 A 
HETATM    9  N   UNK N   1       4.378  -2.336   0.218  0.00  0.00    -0.373 N 
HETATM   10  C   UNK N   1       3.145  -2.920   0.336  0.00  0.00     0.119 A 
HETATM   11  H   UNK N   1       0.722   0.649  -0.627  0.00  0.00     0.167 HD
HETATM   12  H   UNK N   1       5.183  -2.882   0.367  0.00  0.00     0.164 HD
ENDROOT
BRANCH   1  13
HETATM   13  C   UNK N   1      -1.420  -1.153  -0.175  0.00  0.00     0.067 C 
BRANCH  13  14
HETATM   14  C   UNK N   1      -2.074  -2.500   0.145  0.00  0.00     0.083 C 
BRANCH  14  15
HETATM   15  S   UNK N   1      -3.878  -2.472  -0.105  0.00  0.00    -0.181 SA
HETATM   16  H   UNK N   1      -4.533  -1.296  -0.292  0.00  0.00     0.101 HD
ENDBRANCH  14  15
ENDBRANCH  13  14
BRANCH  13  17
HETATM   17  C   UNK N   1      -1.949  -0.099   0.821  0.00  0.00     0.051 C 
BRANCH  17  18
HETATM   18  C   UNK N   1      -1.710   1.339   0.447  0.00  0.00    -0.057 A 
HETATM   19  C   UNK N   1      -2.788   2.134   0.039  0.00  0.00     0.007 A 
HETATM   20  C   UNK N   1      -2.588   3.482  -0.282  0.00  0.00     0.001 A 
HETATM   21  C   UNK N   1      -1.311   4.042  -0.192  0.00  0.00     0.000 A 
HETATM   22  C   UNK N   1      -0.235   3.259   0.230  0.00  0.00     0.001 A 
HETATM   23  C   UNK N   1      -0.438   1.916   0.559  0.00  0.00     0.007 A 
ENDBRANCH  17  18
ENDBRANCH  13  17
ENDBRANCH   1  13
TORSDOF 5
