MODEL 1
REMARK VINA RESULT:      -6.5      0.000      0.000
REMARK  5 active torsions:
REMARK  status: ('A' for Active; 'I' for Inactive)
REMARK    1  A    between atoms: S_1  and  C_2 
REMARK    2  A    between atoms: C_2  and  C_3 
REMARK    3  A    between atoms: C_3  and  C_4 
REMARK    4  A    between atoms: C_3  and  C_14 
REMARK    5  A    between atoms: C_14  and  C_15 
ROOT
HETATM    1  C   UNK N   1      35.125  13.726  12.371  0.00  0.00     0.087 A 
HETATM    2  N   UNK N   1      35.737  14.942  12.321  0.00  0.00    -0.343 N 
ATOM      3  HN  UNK N   1      36.468  15.303  12.933  1.00  0.00     0.167 HD
HETATM    4  C   UNK N   1      35.153  15.551  11.278  0.00  0.00     0.076 A 
HETATM    5  C   UNK N   1      34.228  14.731  10.728  0.00  0.00     0.063 A 
HETATM    6  N   UNK N   1      34.200  13.570  11.390  0.00  0.00    -0.344 N 
HETATM    7  C   UNK N   1      33.456  15.115   9.640  0.00  0.00     0.049 A 
HETATM    8  C   UNK N   1      33.686  16.406   9.126  0.00  0.00     0.090 A 
HETATM    9  N   UNK N   1      34.638  17.220   9.691  0.00  0.00    -0.373 N 
HETATM   10  C   UNK N   1      35.383  16.819  10.768  0.00  0.00     0.119 A 
HETATM   11  H   UNK N   1      33.637  12.783  11.207  0.00  0.00     0.167 HD
HETATM   12  H   UNK N   1      34.788  18.116   9.312  0.00  0.00     0.164 HD
ENDROOT
BRANCH   1  13
HETATM   13  C   UNK N   1      35.443  12.654  13.389  0.00  0.00     0.067 C 
BRANCH  13  14
HETATM   14  C   UNK N   1      35.641  11.315  12.673  0.00  0.00     0.083 C 
BRANCH  14  15
HETATM   15  S   UNK N   1      34.287  10.143  13.008  0.00  0.00    -0.181 SA
HETATM   16  H   UNK N   1      34.553   8.840  13.286  0.00  0.00     0.101 HD
ENDBRANCH  14  15
ENDBRANCH  13  14
BRANCH  13  17
HETATM   17  C   UNK N   1      36.717  12.973  14.201  0.00  0.00     0.051 C 
BRANCH  17  18
HETATM   18  C   UNK N   1      36.505  13.697  15.502  0.00  0.00    -0.057 A 
HETATM   19  C   UNK N   1      37.210  14.880  15.757  0.00  0.00     0.007 A 
HETATM   20  C   UNK N   1      37.000  15.583  16.949  0.00  0.00     0.001 A 
HETATM   21  C   UNK N   1      36.082  15.110  17.890  0.00  0.00     0.000 A 
HETATM   22  C   UNK N   1      35.364  13.940  17.636  0.00  0.00     0.001 A 
HETATM   23  C   UNK N   1      35.568  13.244  16.441  0.00  0.00     0.007 A 
ENDBRANCH  17  18
ENDBRANCH  13  17
ENDBRANCH   1  13
TORSDOF 5
ENDMDL
MODEL 2
REMARK VINA RESULT:      -6.4      1.205      1.735
REMARK  5 active torsions:
REMARK  status: ('A' for Active; 'I' for Inactive)
REMARK    1  A    between atoms: S_1  and  C_2 
REMARK    2  A    between atoms: C_2  and  C_3 
REMARK    3  A    between atoms: C_3  and  C_4 
REMARK    4  A    between atoms: C_3  and  C_14 
REMARK    5  A    between atoms: C_14  and  C_15 
ROOT
HETATM    1  C   UNK N   1      35.496  13.911  12.579  0.00  0.00     0.087 A 
HETATM    2  N   UNK N   1      36.026  15.149  12.377  0.00  0.00    -0.343 N 
ATOM      3  HN  UNK N   1      36.787  15.598  12.886  1.00  0.00     0.167 HD
HETATM    4  C   UNK N   1      35.312  15.639  11.351  0.00  0.00     0.076 A 
HETATM    5  C   UNK N   1      34.392  14.729  10.958  0.00  0.00     0.063 A 
HETATM    6  N   UNK N   1      34.496  13.625  11.706  0.00  0.00    -0.344 N 
HETATM    7  C   UNK N   1      33.502  14.981   9.922  0.00  0.00     0.049 A 
HETATM    8  C   UNK N   1      33.605  16.235   9.292  0.00  0.00     0.090 A 
HETATM    9  N   UNK N   1      34.554  17.142   9.698  0.00  0.00    -0.373 N 
HETATM   10  C   UNK N   1      35.418  16.872  10.726  0.00  0.00     0.119 A 
HETATM   11  H   UNK N   1      33.968  12.797  11.639  0.00  0.00     0.167 HD
HETATM   12  H   UNK N   1      34.614  18.011   9.239  0.00  0.00     0.164 HD
ENDROOT
BRANCH   1  13
HETATM   13  C   UNK N   1      35.970  12.945  13.641  0.00  0.00     0.067 C 
BRANCH  13  14
HETATM   14  C   UNK N   1      37.175  12.161  13.114  0.00  0.00     0.083 C 
BRANCH  14  15
HETATM   15  S   UNK N   1      36.717  10.500  12.523  0.00  0.00    -0.181 SA
HETATM   16  H   UNK N   1      35.563   9.912  12.934  0.00  0.00     0.101 HD
ENDBRANCH  14  15
ENDBRANCH  13  14
BRANCH  13  17
HETATM   17  C   UNK N   1      36.380  13.660  14.946  0.00  0.00     0.051 C 
BRANCH  17  18
HETATM   18  C   UNK N   1      36.005  12.962  16.226  0.00  0.00    -0.057 A 
HETATM   19  C   UNK N   1      35.523  13.712  17.305  0.00  0.00     0.007 A 
HETATM   20  C   UNK N   1      35.140  13.074  18.491  0.00  0.00     0.001 A 
HETATM   21  C   UNK N   1      35.232  11.684  18.602  0.00  0.00     0.000 A 
HETATM   22  C   UNK N   1      35.696  10.929  17.523  0.00  0.00     0.001 A 
HETATM   23  C   UNK N   1      36.070  11.566  16.336  0.00  0.00     0.007 A 
ENDBRANCH  17  18
ENDBRANCH  13  17
ENDBRANCH   1  13
TORSDOF 5
ENDMDL
MODEL 3
REMARK VINA RESULT:      -6.3      4.662      8.198
REMARK  5 active torsions:
REMARK  status: ('A' for Active; 'I' for Inactive)
REMARK    1  A    between atoms: S_1  and  C_2 
REMARK    2  A    between atoms: C_2  and  C_3 
REMARK    3  A    between atoms: C_3  and  C_4 
REMARK    4  A    between atoms: C_3  and  C_14 
REMARK    5  A    between atoms: C_14  and  C_15 
ROOT
HETATM    1  C   UNK N   1      33.911  16.782   8.195  0.00  0.00     0.087 A 
HETATM    2  N   UNK N   1      34.103  17.237   9.464  0.00  0.00    -0.343 N 
ATOM      3  HN  UNK N   1      33.673  18.044   9.915  1.00  0.00     0.167 HD
HETATM    4  C   UNK N   1      34.990  16.373   9.983  0.00  0.00     0.076 A 
HETATM    5  C   UNK N   1      35.315  15.441   9.058  0.00  0.00     0.063 A 
HETATM    6  N   UNK N   1      34.639  15.667   7.927  0.00  0.00    -0.344 N 
HETATM    7  C   UNK N   1      36.230  14.430   9.320  0.00  0.00     0.049 A 
HETATM    8  C   UNK N   1      36.805  14.417  10.605  0.00  0.00     0.090 A 
HETATM    9  N   UNK N   1      36.454  15.366  11.535  0.00  0.00    -0.373 N 
HETATM   10  C   UNK N   1      35.552  16.356  11.250  0.00  0.00     0.119 A 
HETATM   11  H   UNK N   1      34.663  15.146   7.093  0.00  0.00     0.167 HD
HETATM   12  H   UNK N   1      36.863  15.333  12.430  0.00  0.00     0.164 HD
ENDROOT
BRANCH   1  13
HETATM   13  C   UNK N   1      32.981  17.426   7.192  0.00  0.00     0.067 C 
BRANCH  13  14
HETATM   14  C   UNK N   1      33.677  17.504   5.830  0.00  0.00     0.083 C 
BRANCH  14  15
HETATM   15  S   UNK N   1      32.500  17.411   4.443  0.00  0.00    -0.181 SA
HETATM   16  H   UNK N   1      31.423  16.585   4.503  0.00  0.00     0.101 HD
ENDBRANCH  14  15
ENDBRANCH  13  14
BRANCH  13  17
HETATM   17  C   UNK N   1      31.661  16.645   7.027  0.00  0.00     0.051 C 
BRANCH  17  18
HETATM   18  C   UNK N   1      30.448  17.256   7.675  0.00  0.00    -0.057 A 
HETATM   19  C   UNK N   1      30.583  17.923   8.899  0.00  0.00     0.007 A 
HETATM   20  C   UNK N   1      29.471  18.525   9.500  0.00  0.00     0.001 A 
HETATM   21  C   UNK N   1      28.220  18.466   8.879  0.00  0.00     0.000 A 
HETATM   22  C   UNK N   1      28.083  17.816   7.651  0.00  0.00     0.001 A 
HETATM   23  C   UNK N   1      29.196  17.224   7.048  0.00  0.00     0.007 A 
ENDBRANCH  17  18
ENDBRANCH  13  17
ENDBRANCH   1  13
TORSDOF 5
ENDMDL
MODEL 4
REMARK VINA RESULT:      -6.2      0.872      1.883
REMARK  5 active torsions:
REMARK  status: ('A' for Active; 'I' for Inactive)
REMARK    1  A    between atoms: S_1  and  C_2 
REMARK    2  A    between atoms: C_2  and  C_3 
REMARK    3  A    between atoms: C_3  and  C_4 
REMARK    4  A    between atoms: C_3  and  C_14 
REMARK    5  A    between atoms: C_14  and  C_15 
ROOT
HETATM    1  C   UNK N   1      35.133  13.574  12.498  0.00  0.00     0.087 A 
HETATM    2  N   UNK N   1      34.272  13.352  11.468  0.00  0.00    -0.343 N 
ATOM      3  HN  UNK N   1      33.710  12.521  11.285  1.00  0.00     0.167 HD
HETATM    4  C   UNK N   1      34.335  14.484  10.749  0.00  0.00     0.076 A 
HETATM    5  C   UNK N   1      35.201  15.346  11.328  0.00  0.00     0.063 A 
HETATM    6  N   UNK N   1      35.708  14.803  12.440  0.00  0.00    -0.344 N 
HETATM    7  C   UNK N   1      35.474  16.594  10.783  0.00  0.00     0.049 A 
HETATM    8  C   UNK N   1      34.799  16.925   9.594  0.00  0.00     0.090 A 
HETATM    9  N   UNK N   1      33.914  16.040   9.026  0.00  0.00    -0.373 N 
HETATM   10  C   UNK N   1      33.665  14.813   9.581  0.00  0.00     0.119 A 
HETATM   11  H   UNK N   1      36.350  15.203  13.070  0.00  0.00     0.167 HD
HETATM   12  H   UNK N   1      33.447  16.295   8.198  0.00  0.00     0.164 HD
ENDROOT
BRANCH   1  13
HETATM   13  C   UNK N   1      35.415  12.579  13.602  0.00  0.00     0.067 C 
BRANCH  13  14
HETATM   14  C   UNK N   1      35.578  11.182  12.997  0.00  0.00     0.083 C 
BRANCH  14  15
HETATM   15  S   UNK N   1      37.318  10.646  12.948  0.00  0.00    -0.181 SA
HETATM   16  H   UNK N   1      38.291  11.398  13.528  0.00  0.00     0.101 HD
ENDBRANCH  14  15
ENDBRANCH  13  14
BRANCH  13  17
HETATM   17  C   UNK N   1      36.693  12.926  14.394  0.00  0.00     0.051 C 
BRANCH  17  18
HETATM   18  C   UNK N   1      36.499  13.787  15.613  0.00  0.00    -0.057 A 
HETATM   19  C   UNK N   1      35.622  13.369  16.621  0.00  0.00     0.007 A 
HETATM   20  C   UNK N   1      35.454  14.143  17.775  0.00  0.00     0.001 A 
HETATM   21  C   UNK N   1      36.166  15.335  17.930  0.00  0.00     0.000 A 
HETATM   22  C   UNK N   1      37.055  15.749  16.936  0.00  0.00     0.001 A 
HETATM   23  C   UNK N   1      37.228  14.971  15.788  0.00  0.00     0.007 A 
ENDBRANCH  17  18
ENDBRANCH  13  17
ENDBRANCH   1  13
TORSDOF 5
ENDMDL
MODEL 5
REMARK VINA RESULT:      -6.0      9.163     11.787
REMARK  5 active torsions:
REMARK  status: ('A' for Active; 'I' for Inactive)
REMARK    1  A    between atoms: S_1  and  C_2 
REMARK    2  A    between atoms: C_2  and  C_3 
REMARK    3  A    between atoms: C_3  and  C_4 
REMARK    4  A    between atoms: C_3  and  C_14 
REMARK    5  A    between atoms: C_14  and  C_15 
ROOT
HETATM    1  C   UNK N   1      27.670  18.874   5.935  0.00  0.00     0.087 A 
HETATM    2  N   UNK N   1      26.388  18.418   5.998  0.00  0.00    -0.343 N 
ATOM      3  HN  UNK N   1      25.985  17.767   6.671  1.00  0.00     0.167 HD
HETATM    4  C   UNK N   1      25.781  19.027   4.967  0.00  0.00     0.076 A 
HETATM    5  C   UNK N   1      26.667  19.814   4.315  0.00  0.00     0.063 A 
HETATM    6  N   UNK N   1      27.861  19.747   4.912  0.00  0.00    -0.344 N 
HETATM    7  C   UNK N   1      26.311  20.550   3.192  0.00  0.00     0.049 A 
HETATM    8  C   UNK N   1      24.975  20.443   2.764  0.00  0.00     0.090 A 
HETATM    9  N   UNK N   1      24.087  19.647   3.447  0.00  0.00    -0.373 N 
HETATM   10  C   UNK N   1      24.464  18.927   4.549  0.00  0.00     0.119 A 
HETATM   11  H   UNK N   1      28.688  20.221   4.667  0.00  0.00     0.167 HD
HETATM   12  H   UNK N   1      23.155  19.592   3.135  0.00  0.00     0.164 HD
ENDROOT
BRANCH   1  13
HETATM   13  C   UNK N   1      28.764  18.476   6.900  0.00  0.00     0.067 C 
BRANCH  13  14
HETATM   14  C   UNK N   1      28.178  18.348   8.309  0.00  0.00     0.083 C 
BRANCH  14  15
HETATM   15  S   UNK N   1      29.459  18.407   9.602  0.00  0.00    -0.181 SA
HETATM   16  H   UNK N   1      30.690  17.873   9.382  0.00  0.00     0.101 HD
ENDBRANCH  14  15
ENDBRANCH  13  14
BRANCH  13  17
HETATM   17  C   UNK N   1      29.426  17.135   6.518  0.00  0.00     0.051 C 
BRANCH  17  18
HETATM   18  C   UNK N   1      30.826  17.224   5.973  0.00  0.00    -0.057 A 
HETATM   19  C   UNK N   1      31.021  17.414   4.599  0.00  0.00     0.007 A 
HETATM   20  C   UNK N   1      32.316  17.531   4.081  0.00  0.00     0.001 A 
HETATM   21  C   UNK N   1      33.421  17.462   4.933  0.00  0.00     0.000 A 
HETATM   22  C   UNK N   1      33.233  17.289   6.305  0.00  0.00     0.001 A 
HETATM   23  C   UNK N   1      31.940  17.182   6.823  0.00  0.00     0.007 A 
ENDBRANCH  17  18
ENDBRANCH  13  17
ENDBRANCH   1  13
TORSDOF 5
ENDMDL
MODEL 6
REMARK VINA RESULT:      -6.0     19.296     22.429
REMARK  5 active torsions:
REMARK  status: ('A' for Active; 'I' for Inactive)
REMARK    1  A    between atoms: S_1  and  C_2 
REMARK    2  A    between atoms: C_2  and  C_3 
REMARK    3  A    between atoms: C_3  and  C_4 
REMARK    4  A    between atoms: C_3  and  C_14 
REMARK    5  A    between atoms: C_14  and  C_15 
ROOT
HETATM    1  C   UNK N   1      28.563  22.865  -5.807  0.00  0.00     0.087 A 
HETATM    2  N   UNK N   1      29.065  23.076  -4.559  0.00  0.00    -0.343 N 
ATOM      3  HN  UNK N   1      28.791  23.789  -3.883  1.00  0.00     0.167 HD
HETATM    4  C   UNK N   1      30.003  22.125  -4.427  0.00  0.00     0.076 A 
HETATM    5  C   UNK N   1      30.059  21.378  -5.553  0.00  0.00     0.063 A 
HETATM    6  N   UNK N   1      29.152  21.814  -6.434  0.00  0.00    -0.344 N 
HETATM    7  C   UNK N   1      30.958  20.329  -5.698  0.00  0.00     0.049 A 
HETATM    8  C   UNK N   1      31.812  20.075  -4.609  0.00  0.00     0.090 A 
HETATM    9  N   UNK N   1      31.733  20.838  -3.469  0.00  0.00    -0.373 N 
HETATM   10  C   UNK N   1      30.840  21.870  -3.352  0.00  0.00     0.119 A 
HETATM   11  H   UNK N   1      28.957  21.455  -7.329  0.00  0.00     0.167 HD
HETATM   12  H   UNK N   1      32.335  20.638  -2.716  0.00  0.00     0.164 HD
ENDROOT
BRANCH   1  13
HETATM   13  C   UNK N   1      27.460  23.690  -6.432  0.00  0.00     0.067 C 
BRANCH  13  14
HETATM   14  C   UNK N   1      26.974  23.004  -7.712  0.00  0.00     0.083 C 
BRANCH  14  15
HETATM   15  S   UNK N   1      25.409  22.104  -7.465  0.00  0.00    -0.181 SA
HETATM   16  H   UNK N   1      24.228  22.649  -7.858  0.00  0.00     0.101 HD
ENDBRANCH  14  15
ENDBRANCH  13  14
BRANCH  13  17
HETATM   17  C   UNK N   1      26.256  23.876  -5.484  0.00  0.00     0.051 C 
BRANCH  17  18
HETATM   18  C   UNK N   1      26.014  25.279  -4.995  0.00  0.00    -0.057 A 
HETATM   19  C   UNK N   1      25.230  26.151  -5.760  0.00  0.00     0.007 A 
HETATM   20  C   UNK N   1      24.970  27.449  -5.304  0.00  0.00     0.001 A 
HETATM   21  C   UNK N   1      25.487  27.878  -4.079  0.00  0.00     0.000 A 
HETATM   22  C   UNK N   1      26.255  27.008  -3.304  0.00  0.00     0.001 A 
HETATM   23  C   UNK N   1      26.507  25.710  -3.756  0.00  0.00     0.007 A 
ENDBRANCH  17  18
ENDBRANCH  13  17
ENDBRANCH   1  13
TORSDOF 5
ENDMDL
MODEL 7
REMARK VINA RESULT:      -5.9      3.835      8.727
REMARK  5 active torsions:
REMARK  status: ('A' for Active; 'I' for Inactive)
REMARK    1  A    between atoms: S_1  and  C_2 
REMARK    2  A    between atoms: C_2  and  C_3 
REMARK    3  A    between atoms: C_3  and  C_4 
REMARK    4  A    between atoms: C_3  and  C_14 
REMARK    5  A    between atoms: C_14  and  C_15 
ROOT
HETATM    1  C   UNK N   1      33.359  16.417   8.982  0.00  0.00     0.087 A 
HETATM    2  N   UNK N   1      34.370  17.096   9.591  0.00  0.00    -0.343 N 
ATOM      3  HN  UNK N   1      34.672  18.056   9.426  1.00  0.00     0.167 HD
HETATM    4  C   UNK N   1      34.876  16.205  10.459  0.00  0.00     0.076 A 
HETATM    5  C   UNK N   1      34.193  15.041  10.369  0.00  0.00     0.063 A 
HETATM    6  N   UNK N   1      33.223  15.152   9.456  0.00  0.00    -0.344 N 
HETATM    7  C   UNK N   1      34.517  13.935  11.144  0.00  0.00     0.049 A 
HETATM    8  C   UNK N   1      35.593  14.084  12.039  0.00  0.00     0.090 A 
HETATM    9  N   UNK N   1      36.267  15.279  12.124  0.00  0.00    -0.373 N 
HETATM   10  C   UNK N   1      35.932  16.353  11.344  0.00  0.00     0.119 A 
HETATM   11  H   UNK N   1      32.563  14.472   9.189  0.00  0.00     0.167 HD
HETATM   12  H   UNK N   1      37.012  15.363  12.761  0.00  0.00     0.164 HD
ENDROOT
BRANCH   1  13
HETATM   13  C   UNK N   1      32.468  17.000   7.908  0.00  0.00     0.067 C 
BRANCH  13  14
HETATM   14  C   UNK N   1      31.521  18.027   8.536  0.00  0.00     0.083 C 
BRANCH  14  15
HETATM   15  S   UNK N   1      29.815  17.406   8.671  0.00  0.00    -0.181 SA
HETATM   16  H   UNK N   1      28.939  17.970   9.545  0.00  0.00     0.101 HD
ENDBRANCH  14  15
ENDBRANCH  13  14
BRANCH  13  17
HETATM   17  C   UNK N   1      33.272  17.692   6.787  0.00  0.00     0.051 C 
BRANCH  17  18
HETATM   18  C   UNK N   1      33.262  17.004   5.449  0.00  0.00    -0.057 A 
HETATM   19  C   UNK N   1      32.637  17.622   4.360  0.00  0.00     0.007 A 
HETATM   20  C   UNK N   1      32.646  17.010   3.100  0.00  0.00     0.001 A 
HETATM   21  C   UNK N   1      33.284  15.780   2.924  0.00  0.00     0.000 A 
HETATM   22  C   UNK N   1      33.924  15.166   4.002  0.00  0.00     0.001 A 
HETATM   23  C   UNK N   1      33.922  15.782   5.256  0.00  0.00     0.007 A 
ENDBRANCH  17  18
ENDBRANCH  13  17
ENDBRANCH   1  13
TORSDOF 5
ENDMDL
MODEL 8
REMARK VINA RESULT:      -5.9     21.104     23.246
REMARK  5 active torsions:
REMARK  status: ('A' for Active; 'I' for Inactive)
REMARK    1  A    between atoms: S_1  and  C_2 
REMARK    2  A    between atoms: C_2  and  C_3 
REMARK    3  A    between atoms: C_3  and  C_4 
REMARK    4  A    between atoms: C_3  and  C_14 
REMARK    5  A    between atoms: C_14  and  C_15 
ROOT
HETATM    1  C   UNK N   1      26.155  24.022  -5.989  0.00  0.00     0.087 A 
HETATM    2  N   UNK N   1      25.393  25.037  -6.483  0.00  0.00    -0.343 N 
ATOM      3  HN  UNK N   1      24.892  25.072  -7.371  1.00  0.00     0.167 HD
HETATM    4  C   UNK N   1      25.456  25.978  -5.529  0.00  0.00     0.076 A 
HETATM    5  C   UNK N   1      26.227  25.542  -4.506  0.00  0.00     0.063 A 
HETATM    6  N   UNK N   1      26.668  24.306  -4.765  0.00  0.00    -0.344 N 
HETATM    7  C   UNK N   1      26.479  26.324  -3.387  0.00  0.00     0.049 A 
HETATM    8  C   UNK N   1      25.887  27.602  -3.363  0.00  0.00     0.090 A 
HETATM    9  N   UNK N   1      25.098  28.023  -4.407  0.00  0.00    -0.373 N 
HETATM   10  C   UNK N   1      24.868  27.233  -5.502  0.00  0.00     0.119 A 
HETATM   11  H   UNK N   1      27.235  23.735  -4.197  0.00  0.00     0.167 HD
HETATM   12  H   UNK N   1      24.688  28.916  -4.366  0.00  0.00     0.164 HD
ENDROOT
BRANCH   1  13
HETATM   13  C   UNK N   1      26.396  22.712  -6.705  0.00  0.00     0.067 C 
BRANCH  13  14
HETATM   14  C   UNK N   1      25.270  22.469  -7.714  0.00  0.00     0.083 C 
BRANCH  14  15
HETATM   15  S   UNK N   1      25.690  21.173  -8.924  0.00  0.00    -0.181 SA
HETATM   16  H   UNK N   1      25.993  19.914  -8.513  0.00  0.00     0.101 HD
ENDBRANCH  14  15
ENDBRANCH  13  14
BRANCH  13  17
HETATM   17  C   UNK N   1      27.744  22.692  -7.456  0.00  0.00     0.051 C 
BRANCH  17  18
HETATM   18  C   UNK N   1      28.823  21.835  -6.850  0.00  0.00    -0.057 A 
HETATM   19  C   UNK N   1      29.219  20.661  -7.501  0.00  0.00     0.007 A 
HETATM   20  C   UNK N   1      30.243  19.869  -6.967  0.00  0.00     0.001 A 
HETATM   21  C   UNK N   1      30.879  20.251  -5.783  0.00  0.00     0.000 A 
HETATM   22  C   UNK N   1      30.500  21.430  -5.138  0.00  0.00     0.001 A 
HETATM   23  C   UNK N   1      29.484  22.224  -5.677  0.00  0.00     0.007 A 
ENDBRANCH  17  18
ENDBRANCH  13  17
ENDBRANCH   1  13
TORSDOF 5
ENDMDL
MODEL 9
REMARK VINA RESULT:      -5.5      2.265      3.091
REMARK  5 active torsions:
REMARK  status: ('A' for Active; 'I' for Inactive)
REMARK    1  A    between atoms: S_1  and  C_2 
REMARK    2  A    between atoms: C_2  and  C_3 
REMARK    3  A    between atoms: C_3  and  C_4 
REMARK    4  A    between atoms: C_3  and  C_14 
REMARK    5  A    between atoms: C_14  and  C_15 
ROOT
HETATM    1  C   UNK N   1      35.263  11.564  12.469  0.00  0.00     0.087 A 
HETATM    2  N   UNK N   1      36.504  11.657  11.915  0.00  0.00    -0.343 N 
ATOM      3  HN  UNK N   1      37.228  10.940  11.872  1.00  0.00     0.167 HD
HETATM    4  C   UNK N   1      36.550  12.911  11.441  0.00  0.00     0.076 A 
HETATM    5  C   UNK N   1      35.383  13.543  11.702  0.00  0.00     0.063 A 
HETATM    6  N   UNK N   1      34.549  12.712  12.337  0.00  0.00    -0.344 N 
HETATM    7  C   UNK N   1      35.161  14.864  11.337  0.00  0.00     0.049 A 
HETATM    8  C   UNK N   1      36.214  15.520  10.671  0.00  0.00     0.090 A 
HETATM    9  N   UNK N   1      37.388  14.858  10.404  0.00  0.00    -0.373 N 
HETATM   10  C   UNK N   1      37.584  13.556  10.780  0.00  0.00     0.119 A 
HETATM   11  H   UNK N   1      33.630  12.891  12.639  0.00  0.00     0.167 HD
HETATM   12  H   UNK N   1      38.108  15.334   9.932  0.00  0.00     0.164 HD
ENDROOT
BRANCH   1  13
HETATM   13  C   UNK N   1      34.722  10.323  13.142  0.00  0.00     0.067 C 
BRANCH  13  14
HETATM   14  C   UNK N   1      35.883   9.509  13.719  0.00  0.00     0.083 C 
BRANCH  14  15
HETATM   15  S   UNK N   1      36.153   7.950  12.817  0.00  0.00    -0.181 SA
HETATM   16  H   UNK N   1      35.366   7.616  11.761  0.00  0.00     0.101 HD
ENDBRANCH  14  15
ENDBRANCH  13  14
BRANCH  13  17
HETATM   17  C   UNK N   1      33.737  10.655  14.283  0.00  0.00     0.051 C 
BRANCH  17  18
HETATM   18  C   UNK N   1      34.358  10.996  15.611  0.00  0.00    -0.057 A 
HETATM   19  C   UNK N   1      34.671  12.329  15.904  0.00  0.00     0.007 A 
HETATM   20  C   UNK N   1      35.220  12.668  17.146  0.00  0.00     0.001 A 
HETATM   21  C   UNK N   1      35.454  11.676  18.103  0.00  0.00     0.000 A 
HETATM   22  C   UNK N   1      35.129  10.348  17.823  0.00  0.00     0.001 A 
HETATM   23  C   UNK N   1      34.572  10.013  16.585  0.00  0.00     0.007 A 
ENDBRANCH  17  18
ENDBRANCH  13  17
ENDBRANCH   1  13
TORSDOF 5
ENDMDL
