MODEL 1
REMARK VINA RESULT:      -5.7      0.000      0.000
REMARK  4 active torsions:
REMARK  status: ('A' for Active; 'I' for Inactive)
REMARK    1  A    between atoms: N_1  and  C_2 
REMARK    2  A    between atoms: C_2  and  C_3 
REMARK    3  A    between atoms: C_3  and  C_6 
REMARK    4  A    between atoms: C_11  and  C_13 
ROOT
HETATM    1  C   UNK N   1      35.533  14.358  12.773  0.00  0.00     0.212 A 
HETATM    2  N   UNK N   1      36.715  14.664  13.341  0.00  0.00    -0.275 N 
ATOM      3  HN  UNK N   1      37.396  15.345  13.004  1.00  0.00     0.189 HD
HETATM    4  N   UNK N   1      36.821  13.907  14.423  0.00  0.00    -0.281 N 
ATOM      5  HN  UNK N   1      37.602  13.887  15.079  1.00  0.00     0.189 HD
HETATM    6  C   UNK N   1      35.696  13.167  14.488  0.00  0.00     0.148 A 
HETATM    7  O   UNK N   1      34.911  13.439  13.472  0.00  0.00    -0.274 OA
ENDROOT
BRANCH   1   8
HETATM    8  C   UNK N   1      34.990  15.007  11.573  0.00  0.00     0.218 C 
HETATM    9  O   UNK N   1      33.845  14.771  11.218  0.00  0.00    -0.287 OA
BRANCH   8  10
HETATM   10  C   UNK N   1      35.810  16.010  10.824  0.00  0.00     0.201 C 
BRANCH  10  11
HETATM   11  N   UNK N   1      35.042  17.216  10.575  0.00  0.00    -0.418 N 
HETATM   12  C   UNK N   1      34.746  17.232   9.155  0.00  0.00     0.140 C 
HETATM   13  H   UNK N   1      34.764  17.916  11.264  0.00  0.00     0.153 HD
ENDBRANCH  10  11
ENDBRANCH   8  10
ENDBRANCH   1   8
BRANCH   6  14
HETATM   14  C   UNK N   1      35.353  12.209  15.593  0.00  0.00     0.016 C 
HETATM   15  C   UNK N   1      36.499  11.243  15.816  0.00  0.00     0.023 C 
HETATM   16  C   UNK N   1      34.116  11.425  15.198  0.00  0.00     0.023 C 
HETATM   17  C   UNK N   1      35.066  12.939  16.894  0.00  0.00     0.023 C 
ENDBRANCH   6  14
TORSDOF 4
ENDMDL
MODEL 2
REMARK VINA RESULT:      -5.5      1.385      1.832
REMARK  4 active torsions:
REMARK  status: ('A' for Active; 'I' for Inactive)
REMARK    1  A    between atoms: N_1  and  C_2 
REMARK    2  A    between atoms: C_2  and  C_3 
REMARK    3  A    between atoms: C_3  and  C_6 
REMARK    4  A    between atoms: C_11  and  C_13 
ROOT
HETATM    1  C   UNK N   1      35.625  14.560  12.752  0.00  0.00     0.212 A 
HETATM    2  N   UNK N   1      36.739  14.883  13.436  0.00  0.00    -0.275 N 
ATOM      3  HN  UNK N   1      37.433  15.583  13.174  1.00  0.00     0.189 HD
HETATM    4  N   UNK N   1      36.756  14.114  14.513  0.00  0.00    -0.281 N 
ATOM      5  HN  UNK N   1      37.470  14.102  15.243  1.00  0.00     0.189 HD
HETATM    6  C   UNK N   1      35.648  13.348  14.460  0.00  0.00     0.148 A 
HETATM    7  O   UNK N   1      34.959  13.618  13.376  0.00  0.00    -0.274 OA
ENDROOT
BRANCH   1   8
HETATM    8  C   UNK N   1      35.186  15.213  11.512  0.00  0.00     0.218 C 
HETATM    9  O   UNK N   1      35.598  16.328  11.232  0.00  0.00    -0.287 OA
BRANCH   8  10
HETATM   10  C   UNK N   1      34.291  14.488  10.557  0.00  0.00     0.201 C 
BRANCH  10  11
HETATM   11  N   UNK N   1      32.949  15.041  10.592  0.00  0.00    -0.418 N 
HETATM   12  C   UNK N   1      32.476  15.066   9.220  0.00  0.00     0.140 C 
HETATM   13  H   UNK N   1      32.438  15.352  11.419  0.00  0.00     0.153 HD
ENDBRANCH  10  11
ENDBRANCH   8  10
ENDBRANCH   1   8
BRANCH   6  14
HETATM   14  C   UNK N   1      35.221  12.367  15.515  0.00  0.00     0.016 C 
HETATM   15  C   UNK N   1      34.052  11.544  15.013  0.00  0.00     0.023 C 
HETATM   16  C   UNK N   1      34.793  13.130  16.753  0.00  0.00     0.023 C 
HETATM   17  C   UNK N   1      36.355  11.430  15.894  0.00  0.00     0.023 C 
ENDBRANCH   6  14
TORSDOF 4
ENDMDL
MODEL 3
REMARK VINA RESULT:      -5.5      1.789      2.009
REMARK  4 active torsions:
REMARK  status: ('A' for Active; 'I' for Inactive)
REMARK    1  A    between atoms: N_1  and  C_2 
REMARK    2  A    between atoms: C_2  and  C_3 
REMARK    3  A    between atoms: C_3  and  C_6 
REMARK    4  A    between atoms: C_11  and  C_13 
ROOT
HETATM    1  C   UNK N   1      35.386  14.769  11.817  0.00  0.00     0.212 A 
HETATM    2  N   UNK N   1      34.608  13.673  11.729  0.00  0.00    -0.275 N 
ATOM      3  HN  UNK N   1      34.012  13.411  10.945  1.00  0.00     0.189 HD
HETATM    4  N   UNK N   1      34.770  13.004  12.861  0.00  0.00    -0.281 N 
ATOM      5  HN  UNK N   1      34.317  12.127  13.120  1.00  0.00     0.189 HD
HETATM    6  C   UNK N   1      35.648  13.707  13.604  0.00  0.00     0.148 A 
HETATM    7  O   UNK N   1      36.020  14.792  12.966  0.00  0.00    -0.274 OA
ENDROOT
BRANCH   1   8
HETATM    8  C   UNK N   1      35.549  15.767  10.752  0.00  0.00     0.218 C 
HETATM    9  O   UNK N   1      36.571  16.433  10.693  0.00  0.00    -0.287 OA
BRANCH   8  10
HETATM   10  C   UNK N   1      34.498  15.918   9.698  0.00  0.00     0.201 C 
BRANCH  10  11
HETATM   11  N   UNK N   1      34.080  17.304   9.588  0.00  0.00    -0.418 N 
HETATM   12  C   UNK N   1      33.096  17.355   8.522  0.00  0.00     0.140 C 
HETATM   13  H   UNK N   1      34.411  18.088  10.150  0.00  0.00     0.153 HD
ENDBRANCH  10  11
ENDBRANCH   8  10
ENDBRANCH   1   8
BRANCH   6  14
HETATM   14  C   UNK N   1      36.179  13.287  14.945  0.00  0.00     0.016 C 
HETATM   15  C   UNK N   1      37.044  12.052  14.796  0.00  0.00     0.023 C 
HETATM   16  C   UNK N   1      35.013  12.967  15.858  0.00  0.00     0.023 C 
HETATM   17  C   UNK N   1      37.005  14.390  15.585  0.00  0.00     0.023 C 
ENDBRANCH   6  14
TORSDOF 4
ENDMDL
MODEL 4
REMARK VINA RESULT:      -5.3      3.101      6.640
REMARK  4 active torsions:
REMARK  status: ('A' for Active; 'I' for Inactive)
REMARK    1  A    between atoms: N_1  and  C_2 
REMARK    2  A    between atoms: C_2  and  C_3 
REMARK    3  A    between atoms: C_3  and  C_6 
REMARK    4  A    between atoms: C_11  and  C_13 
ROOT
HETATM    1  C   UNK N   1      34.448  15.562  10.436  0.00  0.00     0.212 A 
HETATM    2  N   UNK N   1      33.361  14.905  10.883  0.00  0.00    -0.275 N 
ATOM      3  HN  UNK N   1      33.296  14.339  11.729  1.00  0.00     0.189 HD
HETATM    4  N   UNK N   1      32.394  15.137  10.008  0.00  0.00    -0.281 N 
ATOM      5  HN  UNK N   1      31.439  14.780  10.047  1.00  0.00     0.189 HD
HETATM    6  C   UNK N   1      32.917  15.936   9.057  0.00  0.00     0.148 A 
HETATM    7  O   UNK N   1      34.178  16.191   9.316  0.00  0.00    -0.274 OA
ENDROOT
BRANCH   1   8
HETATM    8  C   UNK N   1      35.738  15.619  11.136  0.00  0.00     0.218 C 
HETATM    9  O   UNK N   1      36.623  16.353  10.724  0.00  0.00    -0.287 OA
BRANCH   8  10
HETATM   10  C   UNK N   1      35.946  14.832  12.391  0.00  0.00     0.201 C 
BRANCH  10  11
HETATM   11  N   UNK N   1      37.041  13.892  12.232  0.00  0.00    -0.418 N 
HETATM   12  C   UNK N   1      36.476  12.695  11.638  0.00  0.00     0.140 C 
HETATM   13  H   UNK N   1      38.018  14.044  12.486  0.00  0.00     0.153 HD
ENDBRANCH  10  11
ENDBRANCH   8  10
ENDBRANCH   1   8
BRANCH   6  14
HETATM   14  C   UNK N   1      32.158  16.509   7.894  0.00  0.00     0.016 C 
HETATM   15  C   UNK N   1      31.823  15.412   6.903  0.00  0.00     0.023 C 
HETATM   16  C   UNK N   1      33.020  17.550   7.207  0.00  0.00     0.023 C 
HETATM   17  C   UNK N   1      30.868  17.173   8.345  0.00  0.00     0.023 C 
ENDBRANCH   6  14
TORSDOF 4
ENDMDL
MODEL 5
REMARK VINA RESULT:      -5.2      7.873      8.919
REMARK  4 active torsions:
REMARK  status: ('A' for Active; 'I' for Inactive)
REMARK    1  A    between atoms: N_1  and  C_2 
REMARK    2  A    between atoms: C_2  and  C_3 
REMARK    3  A    between atoms: C_3  and  C_6 
REMARK    4  A    between atoms: C_11  and  C_13 
ROOT
HETATM    1  C   UNK N   1      32.249  17.576   7.443  0.00  0.00     0.212 A 
HETATM    2  N   UNK N   1      32.243  17.656   8.787  0.00  0.00    -0.275 N 
ATOM      3  HN  UNK N   1      33.058  17.687   9.400  1.00  0.00     0.189 HD
HETATM    4  N   UNK N   1      30.972  17.685   9.157  0.00  0.00    -0.281 N 
ATOM      5  HN  UNK N   1      30.616  17.738  10.112  1.00  0.00     0.189 HD
HETATM    6  C   UNK N   1      30.239  17.631   8.027  0.00  0.00     0.148 A 
HETATM    7  O   UNK N   1      31.023  17.558   6.977  0.00  0.00    -0.274 OA
ENDROOT
BRANCH   1   8
HETATM    8  C   UNK N   1      33.460  17.574   6.611  0.00  0.00     0.218 C 
HETATM    9  O   UNK N   1      34.502  18.036   7.050  0.00  0.00    -0.287 OA
BRANCH   8  10
HETATM   10  C   UNK N   1      33.437  16.944   5.254  0.00  0.00     0.201 C 
BRANCH  10  11
HETATM   11  N   UNK N   1      32.528  17.655   4.375  0.00  0.00    -0.418 N 
HETATM   12  C   UNK N   1      32.506  16.922   3.122  0.00  0.00     0.140 C 
HETATM   13  H   UNK N   1      32.005  18.503   4.594  0.00  0.00     0.153 HD
ENDBRANCH  10  11
ENDBRANCH   8  10
ENDBRANCH   1   8
BRANCH   6  14
HETATM   14  C   UNK N   1      28.740  17.705   7.962  0.00  0.00     0.016 C 
HETATM   15  C   UNK N   1      28.221  16.765   6.893  0.00  0.00     0.023 C 
HETATM   16  C   UNK N   1      28.331  19.123   7.615  0.00  0.00     0.023 C 
HETATM   17  C   UNK N   1      28.107  17.332   9.292  0.00  0.00     0.023 C 
ENDBRANCH   6  14
TORSDOF 4
ENDMDL
MODEL 6
REMARK VINA RESULT:      -5.2     22.168     24.025
REMARK  4 active torsions:
REMARK  status: ('A' for Active; 'I' for Inactive)
REMARK    1  A    between atoms: N_1  and  C_2 
REMARK    2  A    between atoms: C_2  and  C_3 
REMARK    3  A    between atoms: C_3  and  C_6 
REMARK    4  A    between atoms: C_11  and  C_13 
ROOT
HETATM    1  C   UNK N   1      26.566  26.429  -3.648  0.00  0.00     0.212 A 
HETATM    2  N   UNK N   1      25.997  27.213  -2.711  0.00  0.00    -0.275 N 
ATOM      3  HN  UNK N   1      25.398  26.909  -1.944  1.00  0.00     0.189 HD
HETATM    4  N   UNK N   1      26.368  28.455  -2.983  0.00  0.00    -0.281 N 
ATOM      5  HN  UNK N   1      26.107  29.296  -2.468  1.00  0.00     0.189 HD
HETATM    6  C   UNK N   1      27.160  28.392  -4.073  0.00  0.00     0.148 A 
HETATM    7  O   UNK N   1      27.274  27.151  -4.483  0.00  0.00    -0.274 OA
ENDROOT
BRANCH   1   8
HETATM    8  C   UNK N   1      26.458  24.965  -3.691  0.00  0.00     0.218 C 
HETATM    9  O   UNK N   1      26.746  24.304  -2.705  0.00  0.00    -0.287 OA
BRANCH   8  10
HETATM   10  C   UNK N   1      25.929  24.287  -4.915  0.00  0.00     0.201 C 
BRANCH  10  11
HETATM   11  N   UNK N   1      25.213  25.230  -5.754  0.00  0.00    -0.418 N 
HETATM   12  C   UNK N   1      25.806  25.141  -7.076  0.00  0.00     0.140 C 
HETATM   13  H   UNK N   1      24.443  25.836  -5.471  0.00  0.00     0.153 HD
ENDBRANCH  10  11
ENDBRANCH   8  10
ENDBRANCH   1   8
BRANCH   6  14
HETATM   14  C   UNK N   1      27.864  29.561  -4.700  0.00  0.00     0.016 C 
HETATM   15  C   UNK N   1      27.088  30.836  -4.436  0.00  0.00     0.023 C 
HETATM   16  C   UNK N   1      27.953  29.338  -6.197  0.00  0.00     0.023 C 
HETATM   17  C   UNK N   1      29.272  29.722  -4.152  0.00  0.00     0.023 C 
ENDBRANCH   6  14
TORSDOF 4
ENDMDL
MODEL 7
REMARK VINA RESULT:      -5.1      3.261      4.926
REMARK  4 active torsions:
REMARK  status: ('A' for Active; 'I' for Inactive)
REMARK    1  A    between atoms: N_1  and  C_2 
REMARK    2  A    between atoms: C_2  and  C_3 
REMARK    3  A    between atoms: C_3  and  C_6 
REMARK    4  A    between atoms: C_11  and  C_13 
ROOT
HETATM    1  C   UNK N   1      34.842  17.057   9.348  0.00  0.00     0.212 A 
HETATM    2  N   UNK N   1      35.126  17.282  10.644  0.00  0.00    -0.275 N 
ATOM      3  HN  UNK N   1      35.164  18.188  11.112  1.00  0.00     0.189 HD
HETATM    4  N   UNK N   1      35.346  16.097  11.193  0.00  0.00    -0.281 N 
ATOM      5  HN  UNK N   1      35.593  15.912  12.166  1.00  0.00     0.189 HD
HETATM    6  C   UNK N   1      35.182  15.182  10.217  0.00  0.00     0.148 A 
HETATM    7  O   UNK N   1      34.880  15.773   9.084  0.00  0.00    -0.274 OA
ENDROOT
BRANCH   1   8
HETATM    8  C   UNK N   1      34.480  18.099   8.378  0.00  0.00     0.218 C 
HETATM    9  O   UNK N   1      35.070  19.168   8.384  0.00  0.00    -0.287 OA
BRANCH   8  10
HETATM   10  C   UNK N   1      33.438  17.828   7.338  0.00  0.00     0.201 C 
BRANCH  10  11
HETATM   11  N   UNK N   1      32.374  17.005   7.882  0.00  0.00    -0.418 N 
HETATM   12  C   UNK N   1      31.422  17.912   8.496  0.00  0.00     0.140 C 
HETATM   13  H   UNK N   1      32.307  15.988   7.840  0.00  0.00     0.153 HD
ENDBRANCH  10  11
ENDBRANCH   8  10
ENDBRANCH   1   8
BRANCH   6  14
HETATM   14  C   UNK N   1      35.270  13.694  10.401  0.00  0.00     0.016 C 
HETATM   15  C   UNK N   1      34.201  13.006   9.576  0.00  0.00     0.023 C 
HETATM   16  C   UNK N   1      35.054  13.364  11.864  0.00  0.00     0.023 C 
HETATM   17  C   UNK N   1      36.631  13.162   9.982  0.00  0.00     0.023 C 
ENDBRANCH   6  14
TORSDOF 4
ENDMDL
MODEL 8
REMARK VINA RESULT:      -5.0     14.338     16.568
REMARK  4 active torsions:
REMARK  status: ('A' for Active; 'I' for Inactive)
REMARK    1  A    between atoms: N_1  and  C_2 
REMARK    2  A    between atoms: C_2  and  C_3 
REMARK    3  A    between atoms: C_3  and  C_6 
REMARK    4  A    between atoms: C_11  and  C_13 
ROOT
HETATM    1  C   UNK N   1      22.580  18.924   4.047  0.00  0.00     0.212 A 
HETATM    2  N   UNK N   1      22.988  18.163   5.079  0.00  0.00    -0.275 N 
ATOM      3  HN  UNK N   1      22.416  17.517   5.624  1.00  0.00     0.189 HD
HETATM    4  N   UNK N   1      24.276  18.417   5.250  0.00  0.00    -0.281 N 
ATOM      5  HN  UNK N   1      24.891  18.009   5.955  1.00  0.00     0.189 HD
HETATM    6  C   UNK N   1      24.619  19.321   4.310  0.00  0.00     0.148 A 
HETATM    7  O   UNK N   1      23.577  19.636   3.577  0.00  0.00    -0.274 OA
ENDROOT
BRANCH   1   8
HETATM    8  C   UNK N   1      21.222  18.914   3.485  0.00  0.00     0.218 C 
HETATM    9  O   UNK N   1      20.714  17.858   3.142  0.00  0.00    -0.287 OA
BRANCH   8  10
HETATM   10  C   UNK N   1      20.436  20.183   3.396  0.00  0.00     0.201 C 
BRANCH  10  11
HETATM   11  N   UNK N   1      21.098  21.136   2.524  0.00  0.00    -0.418 N 
HETATM   12  C   UNK N   1      20.791  20.733   1.163  0.00  0.00     0.140 C 
HETATM   13  H   UNK N   1      21.666  21.933   2.810  0.00  0.00     0.153 HD
ENDBRANCH  10  11
ENDBRANCH   8  10
ENDBRANCH   1   8
BRANCH   6  14
HETATM   14  C   UNK N   1      26.006  19.853   4.084  0.00  0.00     0.016 C 
HETATM   15  C   UNK N   1      26.038  20.700   2.828  0.00  0.00     0.023 C 
HETATM   16  C   UNK N   1      26.960  18.687   3.919  0.00  0.00     0.023 C 
HETATM   17  C   UNK N   1      26.475  20.698   5.257  0.00  0.00     0.023 C 
ENDBRANCH   6  14
TORSDOF 4
ENDMDL
MODEL 9
REMARK VINA RESULT:      -5.0      4.899      8.699
REMARK  4 active torsions:
REMARK  status: ('A' for Active; 'I' for Inactive)
REMARK    1  A    between atoms: N_1  and  C_2 
REMARK    2  A    between atoms: C_2  and  C_3 
REMARK    3  A    between atoms: C_3  and  C_6 
REMARK    4  A    between atoms: C_11  and  C_13 
ROOT
HETATM    1  C   UNK N   1      32.546  17.453   7.931  0.00  0.00     0.212 A 
HETATM    2  N   UNK N   1      31.676  17.890   8.862  0.00  0.00    -0.275 N 
ATOM      3  HN  UNK N   1      31.906  18.280   9.776  1.00  0.00     0.189 HD
HETATM    4  N   UNK N   1      30.464  17.713   8.358  0.00  0.00    -0.281 N 
ATOM      5  HN  UNK N   1      29.577  17.936   8.811  1.00  0.00     0.189 HD
HETATM    6  C   UNK N   1      30.629  17.181   7.130  0.00  0.00     0.148 A 
HETATM    7  O   UNK N   1      31.906  17.016   6.873  0.00  0.00    -0.274 OA
ENDROOT
BRANCH   1   8
HETATM    8  C   UNK N   1      34.008  17.515   8.058  0.00  0.00     0.218 C 
HETATM    9  O   UNK N   1      34.637  18.365   7.447  0.00  0.00    -0.287 OA
BRANCH   8  10
HETATM   10  C   UNK N   1      34.721  16.584   8.987  0.00  0.00     0.201 C 
BRANCH  10  11
HETATM   11  N   UNK N   1      34.855  17.179  10.305  0.00  0.00    -0.418 N 
HETATM   12  C   UNK N   1      35.512  16.190  11.140  0.00  0.00     0.140 C 
HETATM   13  H   UNK N   1      34.549  18.110  10.588  0.00  0.00     0.153 HD
ENDBRANCH  10  11
ENDBRANCH   8  10
ENDBRANCH   1   8
BRANCH   6  14
HETATM   14  C   UNK N   1      29.522  16.874   6.163  0.00  0.00     0.016 C 
HETATM   15  C   UNK N   1      28.180  17.006   6.854  0.00  0.00     0.023 C 
HETATM   16  C   UNK N   1      29.684  15.451   5.665  0.00  0.00     0.023 C 
HETATM   17  C   UNK N   1      29.553  17.810   4.967  0.00  0.00     0.023 C 
ENDBRANCH   6  14
TORSDOF 4
ENDMDL
