REMARK  4 active torsions:
REMARK  status: ('A' for Active; 'I' for Inactive)
REMARK    1  A    between atoms: N_1  and  C_2 
REMARK    2  A    between atoms: C_2  and  C_3 
REMARK    3  A    between atoms: C_3  and  C_6 
REMARK    4  A    between atoms: C_11  and  C_13 
ROOT
HETATM    1  C   UNK N   1       0.083  -0.733   0.340  0.00  0.00     0.212 A 
HETATM    2  N   UNK N   1      -1.246  -0.797   0.547  0.00  0.00    -0.275 N 
ATOM      3  HN  UNK N   1      -1.804  -1.642   0.668  1.00  0.00     0.189 HD
HETATM    4  N   UNK N   1      -1.686   0.452   0.562  0.00  0.00    -0.281 N 
ATOM      5  HN  UNK N   1      -2.651   0.757   0.692  1.00  0.00     0.189 HD
HETATM    6  C   UNK N   1      -0.611   1.243   0.372  0.00  0.00     0.148 A 
HETATM    7  O   UNK N   1       0.472   0.515   0.229  0.00  0.00    -0.274 OA
ENDROOT
BRANCH   1   8
HETATM    8  C   UNK N   1       0.981  -1.895   0.305  0.00  0.00     0.218 C 
HETATM    9  O   UNK N   1       2.165  -1.742   0.048  0.00  0.00    -0.287 OA
BRANCH   8  10
HETATM   10  C   UNK N   1       0.463  -3.255   0.652  0.00  0.00     0.201 C 
BRANCH  10  11
HETATM   11  N   UNK N   1       0.655  -4.174  -0.455  0.00  0.00    -0.418 N 
HETATM   12  C   UNK N   1      -0.669  -4.529  -0.932  0.00  0.00     0.140 C 
HETATM   13  H   UNK N   1       1.546  -4.505  -0.826  0.00  0.00     0.153 HD
ENDBRANCH  10  11
ENDBRANCH   8  10
ENDBRANCH   1   8
BRANCH   6  14
HETATM   14  C   UNK N   1      -0.628   2.745   0.381  0.00  0.00     0.016 C 
HETATM   15  C   UNK N   1      -0.085   3.277  -0.930  0.00  0.00     0.023 C 
HETATM   16  C   UNK N   1       0.246   3.241   1.516  0.00  0.00     0.023 C 
HETATM   17  C   UNK N   1      -2.034   3.284   0.584  0.00  0.00     0.023 C 
ENDBRANCH   6  14
TORSDOF 4
