REMARK  5 active torsions:
REMARK  status: ('A' for Active; 'I' for Inactive)
REMARK    1  A    between atoms: C_11  and  C_13 
REMARK    2  A    between atoms: C_14  and  C_18 
REMARK    3  A    between atoms: C_18  and  C_19 
REMARK    4  A    between atoms: C_19  and  C_20 
REMARK    5  A    between atoms: C_20  and  O_22 
ROOT
HETATM    1  N   UNK N   1      -0.771   3.101  -0.447  0.00  0.00    -0.365 N 
HETATM    2  C   UNK N   1      -0.494   1.843  -0.045  0.00  0.00     0.039 A 
HETATM    3  C   UNK N   1      -1.669   1.208   0.350  0.00  0.00    -0.024 A 
HETATM    4  C   UNK N   1      -2.679   2.127   0.156  0.00  0.00    -0.038 A 
HETATM    5  C   UNK N   1      -2.105   3.277  -0.339  0.00  0.00     0.095 A 
HETATM    6  C   UNK N   1      -4.127   1.951   0.458  0.00  0.00     0.050 C 
HETATM    7  H   UNK N   1      -0.120   3.768  -0.762  0.00  0.00     0.165 HD
ENDROOT
BRANCH   2   8
HETATM    8  C   UNK N   1       0.909   1.371   0.044  0.00  0.00     0.048 C 
HETATM    9  C   UNK N   1       1.421   0.141  -0.136  0.00  0.00     0.047 A 
HETATM   10  C   UNK N   1       0.821  -1.115  -0.624  0.00  0.00     0.257 A 
HETATM   11  C   UNK N   1       2.815  -0.219   0.108  0.00  0.00     0.006 A 
HETATM   12  N   UNK N   1       1.730  -2.115  -0.613  0.00  0.00    -0.322 N 
HETATM   13  O   UNK N   1      -0.293  -1.245  -1.087  0.00  0.00    -0.267 OA
HETATM   14  C   UNK N   1       2.944  -1.564  -0.162  0.00  0.00     0.046 A 
HETATM   15  H   UNK N   1       1.573  -3.052  -0.872  0.00  0.00     0.169 HD
HETATM   16  C   UNK N   1       4.160  -2.225  -0.021  0.00  0.00     0.030 A 
HETATM   17  C   UNK N   1       5.270  -1.477   0.409  0.00  0.00     0.002 A 
HETATM   18  C   UNK N   1       5.141  -0.096   0.680  0.00  0.00     0.001 A 
HETATM   19  C   UNK N   1       3.899   0.547   0.534  0.00  0.00     0.015 A 
ENDBRANCH   2   8
BRANCH   3  20
HETATM   20  C   UNK N   1      -1.843  -0.159   0.941  0.00  0.00     0.052 C 
BRANCH  20  21
HETATM   21  C   UNK N   1      -2.857  -0.962   0.127  0.00  0.00     0.115 C 
BRANCH  21  22
HETATM   22  C   UNK N   1      -2.644  -2.443   0.215  0.00  0.00     0.139 C 
HETATM   23  O   UNK N   1      -3.362  -3.190  -0.428  0.00  0.00    -0.650 OA
BRANCH  22  24
HETATM   24  O   UNK N   1      -1.649  -2.958   0.965  0.00  0.00    -0.776 OA
HETATM   25  H   UNK N   1      -1.613  -3.736   1.486  0.00  0.00     0.167 HD
ENDBRANCH  22  24
ENDBRANCH  21  22
ENDBRANCH  20  21
ENDBRANCH   3  20
TORSDOF 5
