MODEL 1
REMARK VINA RESULT:      -7.3      0.000      0.000
REMARK  5 active torsions:
REMARK  status: ('A' for Active; 'I' for Inactive)
REMARK    1  A    between atoms: C_11  and  C_13 
REMARK    2  A    between atoms: C_14  and  C_18 
REMARK    3  A    between atoms: C_18  and  C_19 
REMARK    4  A    between atoms: C_19  and  C_20 
REMARK    5  A    between atoms: C_20  and  O_22 
ROOT
HETATM    1  N   UNK N   1      30.562  15.101   5.869  0.00  0.00    -0.365 N 
HETATM    2  C   UNK N   1      30.727  16.149   6.703  0.00  0.00     0.039 A 
HETATM    3  C   UNK N   1      31.856  15.947   7.492  0.00  0.00    -0.024 A 
HETATM    4  C   UNK N   1      32.385  14.737   7.093  0.00  0.00    -0.038 A 
HETATM    5  C   UNK N   1      31.578  14.241   6.092  0.00  0.00     0.095 A 
HETATM    6  C   UNK N   1      33.581  14.048   7.652  0.00  0.00     0.050 C 
HETATM    7  H   UNK N   1      29.835  14.985   5.216  0.00  0.00     0.165 HD
ENDROOT
BRANCH   2   8
HETATM    8  C   UNK N   1      29.713  17.229   6.767  0.00  0.00     0.048 C 
HETATM    9  C   UNK N   1      29.062  17.865   5.777  0.00  0.00     0.047 A 
HETATM   10  C   UNK N   1      29.004  17.625   4.322  0.00  0.00     0.257 A 
HETATM   11  C   UNK N   1      28.174  19.008   5.970  0.00  0.00     0.006 A 
HETATM   12  N   UNK N   1      28.226  18.550   3.716  0.00  0.00    -0.322 N 
HETATM   13  O   UNK N   1      29.478  16.677   3.732  0.00  0.00    -0.267 OA
HETATM   14  C   UNK N   1      27.725  19.393   4.726  0.00  0.00     0.046 A 
HETATM   15  H   UNK N   1      28.043  18.619   2.751  0.00  0.00     0.169 HD
HETATM   16  C   UNK N   1      26.857  20.468   4.562  0.00  0.00     0.030 A 
HETATM   17  C   UNK N   1      26.443  21.161   5.713  0.00  0.00     0.002 A 
HETATM   18  C   UNK N   1      26.897  20.763   6.990  0.00  0.00     0.001 A 
HETATM   19  C   UNK N   1      27.778  19.676   7.128  0.00  0.00     0.015 A 
ENDBRANCH   2   8
BRANCH   3  20
HETATM   20  C   UNK N   1      32.385  16.797   8.608  0.00  0.00     0.052 C 
BRANCH  20  21
HETATM   21  C   UNK N   1      32.779  18.176   8.081  0.00  0.00     0.115 C 
BRANCH  21  22
HETATM   22  C   UNK N   1      34.235  18.285   7.743  0.00  0.00     0.139 C 
HETATM   23  O   UNK N   1      34.686  17.631   6.818  0.00  0.00    -0.650 OA
BRANCH  22  24
HETATM   24  O   UNK N   1      35.045  19.120   8.424  0.00  0.00    -0.776 OA
HETATM   25  H   UNK N   1      35.816  19.581   8.157  0.00  0.00     0.167 HD
ENDBRANCH  22  24
ENDBRANCH  21  22
ENDBRANCH  20  21
ENDBRANCH   3  20
TORSDOF 5
ENDMDL
MODEL 2
REMARK VINA RESULT:      -7.1      2.963      3.522
REMARK  5 active torsions:
REMARK  status: ('A' for Active; 'I' for Inactive)
REMARK    1  A    between atoms: C_11  and  C_13 
REMARK    2  A    between atoms: C_14  and  C_18 
REMARK    3  A    between atoms: C_18  and  C_19 
REMARK    4  A    between atoms: C_19  and  C_20 
REMARK    5  A    between atoms: C_20  and  O_22 
ROOT
HETATM    1  N   UNK N   1      30.536  15.882   5.819  0.00  0.00    -0.365 N 
HETATM    2  C   UNK N   1      30.179  17.062   6.367  0.00  0.00     0.039 A 
HETATM    3  C   UNK N   1      30.758  17.187   7.628  0.00  0.00    -0.024 A 
HETATM    4  C   UNK N   1      31.499  16.040   7.819  0.00  0.00    -0.038 A 
HETATM    5  C   UNK N   1      31.352  15.258   6.694  0.00  0.00     0.095 A 
HETATM    6  C   UNK N   1      32.287  15.667   9.027  0.00  0.00     0.050 C 
HETATM    7  H   UNK N   1      30.254  15.540   4.941  0.00  0.00     0.165 HD
ENDROOT
BRANCH   2   8
HETATM    8  C   UNK N   1      29.202  17.946   5.686  0.00  0.00     0.048 C 
HETATM    9  C   UNK N   1      27.914  17.728   5.368  0.00  0.00     0.047 A 
HETATM   10  C   UNK N   1      26.986  16.632   5.705  0.00  0.00     0.257 A 
HETATM   11  C   UNK N   1      27.091  18.640   4.578  0.00  0.00     0.006 A 
HETATM   12  N   UNK N   1      25.779  16.835   5.133  0.00  0.00    -0.322 N 
HETATM   13  O   UNK N   1      27.204  15.720   6.475  0.00  0.00    -0.267 OA
HETATM   14  C   UNK N   1      25.849  18.059   4.444  0.00  0.00     0.046 A 
HETATM   15  H   UNK N   1      24.997  16.238   5.190  0.00  0.00     0.169 HD
HETATM   16  C   UNK N   1      24.825  18.678   3.733  0.00  0.00     0.030 A 
HETATM   17  C   UNK N   1      25.092  19.928   3.147  0.00  0.00     0.002 A 
HETATM   18  C   UNK N   1      26.364  20.528   3.289  0.00  0.00     0.001 A 
HETATM   19  C   UNK N   1      27.383  19.879   4.009  0.00  0.00     0.015 A 
ENDBRANCH   2   8
BRANCH   3  20
HETATM   20  C   UNK N   1      30.582  18.283   8.636  0.00  0.00     0.052 C 
BRANCH  20  21
HETATM   21  C   UNK N   1      29.609  17.846   9.729  0.00  0.00     0.115 C 
BRANCH  21  22
HETATM   22  C   UNK N   1      28.177  17.864   9.286  0.00  0.00     0.139 C 
HETATM   23  O   UNK N   1      27.480  16.880   9.473  0.00  0.00    -0.650 OA
BRANCH  22  24
HETATM   24  O   UNK N   1      27.640  18.962   8.718  0.00  0.00    -0.776 OA
HETATM   25  H   UNK N   1      28.036  19.656   8.229  0.00  0.00     0.167 HD
ENDBRANCH  22  24
ENDBRANCH  21  22
ENDBRANCH  20  21
ENDBRANCH   3  20
TORSDOF 5
ENDMDL
MODEL 3
REMARK VINA RESULT:      -7.0     11.177     13.550
REMARK  5 active torsions:
REMARK  status: ('A' for Active; 'I' for Inactive)
REMARK    1  A    between atoms: C_11  and  C_13 
REMARK    2  A    between atoms: C_14  and  C_18 
REMARK    3  A    between atoms: C_18  and  C_19 
REMARK    4  A    between atoms: C_19  and  C_20 
REMARK    5  A    between atoms: C_20  and  O_22 
ROOT
HETATM    1  N   UNK N   1      27.854  21.856  -7.265  0.00  0.00    -0.365 N 
HETATM    2  C   UNK N   1      28.525  22.481  -6.275  0.00  0.00     0.039 A 
HETATM    3  C   UNK N   1      29.756  21.861  -6.080  0.00  0.00    -0.024 A 
HETATM    4  C   UNK N   1      29.816  20.839  -7.005  0.00  0.00    -0.038 A 
HETATM    5  C   UNK N   1      28.642  20.860  -7.724  0.00  0.00     0.095 A 
HETATM    6  C   UNK N   1      30.917  19.852  -7.187  0.00  0.00     0.050 C 
HETATM    7  H   UNK N   1      26.955  22.084  -7.594  0.00  0.00     0.165 HD
ENDROOT
BRANCH   2   8
HETATM    8  C   UNK N   1      27.883  23.568  -5.498  0.00  0.00     0.048 C 
HETATM    9  C   UNK N   1      27.087  24.571  -5.909  0.00  0.00     0.047 A 
HETATM   10  C   UNK N   1      26.454  24.858  -7.210  0.00  0.00     0.257 A 
HETATM   11  C   UNK N   1      26.620  25.659  -5.054  0.00  0.00     0.006 A 
HETATM   12  N   UNK N   1      25.748  26.009  -7.154  0.00  0.00    -0.322 N 
HETATM   13  O   UNK N   1      26.450  24.131  -8.181  0.00  0.00    -0.267 OA
HETATM   14  C   UNK N   1      25.855  26.496  -5.838  0.00  0.00     0.046 A 
HETATM   15  H   UNK N   1      25.252  26.428  -7.894  0.00  0.00     0.169 HD
HETATM   16  C   UNK N   1      25.262  27.643  -5.321  0.00  0.00     0.030 A 
HETATM   17  C   UNK N   1      25.463  27.932  -3.959  0.00  0.00     0.002 A 
HETATM   18  C   UNK N   1      26.241  27.071  -3.153  0.00  0.00     0.001 A 
HETATM   19  C   UNK N   1      26.834  25.921  -3.702  0.00  0.00     0.015 A 
ENDBRANCH   2   8
BRANCH   3  20
HETATM   20  C   UNK N   1      30.800  22.154  -5.044  0.00  0.00     0.052 C 
BRANCH  20  21
HETATM   21  C   UNK N   1      30.432  21.489  -3.718  0.00  0.00     0.115 C 
BRANCH  21  22
HETATM   22  C   UNK N   1      31.249  21.983  -2.563  0.00  0.00     0.139 C 
HETATM   23  O   UNK N   1      30.853  22.936  -1.914  0.00  0.00    -0.650 OA
BRANCH  22  24
HETATM   24  O   UNK N   1      32.396  21.368  -2.211  0.00  0.00    -0.776 OA
HETATM   25  H   UNK N   1      32.700  20.496  -2.373  0.00  0.00     0.167 HD
ENDBRANCH  22  24
ENDBRANCH  21  22
ENDBRANCH  20  21
ENDBRANCH   3  20
TORSDOF 5
ENDMDL
MODEL 4
REMARK VINA RESULT:      -7.0      2.888      6.485
REMARK  5 active torsions:
REMARK  status: ('A' for Active; 'I' for Inactive)
REMARK    1  A    between atoms: C_11  and  C_13 
REMARK    2  A    between atoms: C_14  and  C_18 
REMARK    3  A    between atoms: C_18  and  C_19 
REMARK    4  A    between atoms: C_19  and  C_20 
REMARK    5  A    between atoms: C_20  and  O_22 
ROOT
HETATM    1  N   UNK N   1      27.019  16.266   5.586  0.00  0.00    -0.365 N 
HETATM    2  C   UNK N   1      27.807  17.351   5.436  0.00  0.00     0.039 A 
HETATM    3  C   UNK N   1      27.043  18.425   4.984  0.00  0.00    -0.024 A 
HETATM    4  C   UNK N   1      25.751  17.953   4.880  0.00  0.00    -0.038 A 
HETATM    5  C   UNK N   1      25.761  16.630   5.260  0.00  0.00     0.095 A 
HETATM    6  C   UNK N   1      24.555  18.702   4.405  0.00  0.00     0.050 C 
HETATM    7  H   UNK N   1      27.309  15.373   5.879  0.00  0.00     0.165 HD
ENDROOT
BRANCH   2   8
HETATM    8  C   UNK N   1      29.274  17.251   5.627  0.00  0.00     0.048 C 
HETATM    9  C   UNK N   1      30.014  17.408   6.738  0.00  0.00     0.047 A 
HETATM   10  C   UNK N   1      29.642  17.575   8.156  0.00  0.00     0.257 A 
HETATM   11  C   UNK N   1      31.474  17.408   6.767  0.00  0.00     0.006 A 
HETATM   12  N   UNK N   1      30.743  17.720   8.925  0.00  0.00    -0.322 N 
HETATM   13  O   UNK N   1      28.524  17.485   8.619  0.00  0.00    -0.267 OA
HETATM   14  C   UNK N   1      31.858  17.621   8.073  0.00  0.00     0.046 A 
HETATM   15  H   UNK N   1      30.762  17.866   9.899  0.00  0.00     0.169 HD
HETATM   16  C   UNK N   1      33.199  17.683   8.440  0.00  0.00     0.030 A 
HETATM   17  C   UNK N   1      34.166  17.521   7.432  0.00  0.00     0.002 A 
HETATM   18  C   UNK N   1      33.774  17.296   6.093  0.00  0.00     0.001 A 
HETATM   19  C   UNK N   1      32.411  17.242   5.748  0.00  0.00     0.015 A 
ENDBRANCH   2   8
BRANCH   3  20
HETATM   20  C   UNK N   1      27.496  19.803   4.602  0.00  0.00     0.052 C 
BRANCH  20  21
HETATM   21  C   UNK N   1      27.989  20.558   5.836  0.00  0.00     0.115 C 
BRANCH  21  22
HETATM   22  C   UNK N   1      26.938  20.712   6.893  0.00  0.00     0.139 C 
HETATM   23  O   UNK N   1      26.045  21.527   6.734  0.00  0.00    -0.650 OA
BRANCH  22  24
HETATM   24  O   UNK N   1      26.945  19.938   7.997  0.00  0.00    -0.776 OA
HETATM   25  H   UNK N   1      26.789  19.020   8.104  0.00  0.00     0.167 HD
ENDBRANCH  22  24
ENDBRANCH  21  22
ENDBRANCH  20  21
ENDBRANCH   3  20
TORSDOF 5
ENDMDL
MODEL 5
REMARK VINA RESULT:      -6.8      8.081     11.748
REMARK  5 active torsions:
REMARK  status: ('A' for Active; 'I' for Inactive)
REMARK    1  A    between atoms: C_11  and  C_13 
REMARK    2  A    between atoms: C_14  and  C_18 
REMARK    3  A    between atoms: C_18  and  C_19 
REMARK    4  A    between atoms: C_19  and  C_20 
REMARK    5  A    between atoms: C_20  and  O_22 
ROOT
HETATM    1  N   UNK N   1      34.278  11.288  12.397  0.00  0.00    -0.365 N 
HETATM    2  C   UNK N   1      34.968  12.365  12.827  0.00  0.00     0.039 A 
HETATM    3  C   UNK N   1      35.572  12.998  11.743  0.00  0.00    -0.024 A 
HETATM    4  C   UNK N   1      35.206  12.271  10.629  0.00  0.00    -0.038 A 
HETATM    5  C   UNK N   1      34.408  11.232  11.055  0.00  0.00     0.095 A 
HETATM    6  C   UNK N   1      35.618  12.516   9.219  0.00  0.00     0.050 C 
HETATM    7  H   UNK N   1      33.771  10.659  12.959  0.00  0.00     0.165 HD
ENDROOT
BRANCH   2   8
HETATM    8  C   UNK N   1      35.100  12.648  14.277  0.00  0.00     0.048 C 
HETATM    9  C   UNK N   1      35.305  11.808  15.307  0.00  0.00     0.047 A 
HETATM   10  C   UNK N   1      35.620  10.368  15.357  0.00  0.00     0.257 A 
HETATM   11  C   UNK N   1      35.288  12.204  16.713  0.00  0.00     0.006 A 
HETATM   12  N   UNK N   1      35.718   9.945  16.637  0.00  0.00    -0.322 N 
HETATM   13  O   UNK N   1      35.878   9.657  14.409  0.00  0.00    -0.267 OA
HETATM   14  C   UNK N   1      35.510  11.068  17.460  0.00  0.00     0.046 A 
HETATM   15  H   UNK N   1      35.900   9.025  16.937  0.00  0.00     0.169 HD
HETATM   16  C   UNK N   1      35.549  11.103  18.850  0.00  0.00     0.030 A 
HETATM   17  C   UNK N   1      35.353  12.343  19.483  0.00  0.00     0.002 A 
HETATM   18  C   UNK N   1      35.132  13.510  18.718  0.00  0.00     0.001 A 
HETATM   19  C   UNK N   1      35.093  13.446  17.314  0.00  0.00     0.015 A 
ENDBRANCH   2   8
BRANCH   3  20
HETATM   20  C   UNK N   1      36.496  14.178  11.742  0.00  0.00     0.052 C 
BRANCH  20  21
HETATM   21  C   UNK N   1      35.739  15.444  12.143  0.00  0.00     0.115 C 
BRANCH  21  22
HETATM   22  C   UNK N   1      35.257  16.240  10.969  0.00  0.00     0.139 C 
HETATM   23  O   UNK N   1      35.927  17.176  10.565  0.00  0.00    -0.650 OA
BRANCH  22  24
HETATM   24  O   UNK N   1      34.114  15.916  10.332  0.00  0.00    -0.776 OA
HETATM   25  H   UNK N   1      33.969  15.530   9.490  0.00  0.00     0.167 HD
ENDBRANCH  22  24
ENDBRANCH  21  22
ENDBRANCH  20  21
ENDBRANCH   3  20
TORSDOF 5
ENDMDL
MODEL 6
REMARK VINA RESULT:      -6.7     12.659     14.728
REMARK  5 active torsions:
REMARK  status: ('A' for Active; 'I' for Inactive)
REMARK    1  A    between atoms: C_11  and  C_13 
REMARK    2  A    between atoms: C_14  and  C_18 
REMARK    3  A    between atoms: C_18  and  C_19 
REMARK    4  A    between atoms: C_19  and  C_20 
REMARK    5  A    between atoms: C_20  and  O_22 
ROOT
HETATM    1  N   UNK N   1      29.578  22.034  -5.865  0.00  0.00    -0.365 N 
HETATM    2  C   UNK N   1      28.495  22.380  -6.593  0.00  0.00     0.039 A 
HETATM    3  C   UNK N   1      28.252  21.410  -7.562  0.00  0.00    -0.024 A 
HETATM    4  C   UNK N   1      29.224  20.448  -7.385  0.00  0.00    -0.038 A 
HETATM    5  C   UNK N   1      30.020  20.849  -6.336  0.00  0.00     0.095 A 
HETATM    6  C   UNK N   1      29.425  19.212  -8.193  0.00  0.00     0.050 C 
HETATM    7  H   UNK N   1      29.972  22.551  -5.127  0.00  0.00     0.165 HD
ENDROOT
BRANCH   2   8
HETATM    8  C   UNK N   1      27.831  23.689  -6.381  0.00  0.00     0.048 C 
HETATM    9  C   UNK N   1      27.558  24.346  -5.240  0.00  0.00     0.047 A 
HETATM   10  C   UNK N   1      27.942  24.092  -3.839  0.00  0.00     0.257 A 
HETATM   11  C   UNK N   1      26.779  25.579  -5.162  0.00  0.00     0.006 A 
HETATM   12  N   UNK N   1      27.407  25.023  -3.020  0.00  0.00    -0.322 N 
HETATM   13  O   UNK N   1      28.721  23.246  -3.452  0.00  0.00    -0.267 OA
HETATM   14  C   UNK N   1      26.695  25.926  -3.831  0.00  0.00     0.046 A 
HETATM   15  H   UNK N   1      27.498  25.063  -2.040  0.00  0.00     0.169 HD
HETATM   16  C   UNK N   1      26.007  27.061  -3.413  0.00  0.00     0.030 A 
HETATM   17  C   UNK N   1      25.392  27.857  -4.395  0.00  0.00     0.002 A 
HETATM   18  C   UNK N   1      25.482  27.506  -5.761  0.00  0.00     0.001 A 
HETATM   19  C   UNK N   1      26.180  26.351  -6.156  0.00  0.00     0.015 A 
ENDBRANCH   2   8
BRANCH   3  20
HETATM   20  C   UNK N   1      27.213  21.405  -8.644  0.00  0.00     0.052 C 
BRANCH  20  21
HETATM   21  C   UNK N   1      25.920  20.773  -8.131  0.00  0.00     0.115 C 
BRANCH  21  22
HETATM   22  C   UNK N   1      24.921  21.782  -7.651  0.00  0.00     0.139 C 
HETATM   23  O   UNK N   1      24.155  22.294  -8.451  0.00  0.00    -0.650 OA
BRANCH  22  24
HETATM   24  O   UNK N   1      24.832  22.105  -6.345  0.00  0.00    -0.776 OA
HETATM   25  H   UNK N   1      24.585  22.905  -5.926  0.00  0.00     0.167 HD
ENDBRANCH  22  24
ENDBRANCH  21  22
ENDBRANCH  20  21
ENDBRANCH   3  20
TORSDOF 5
ENDMDL
MODEL 7
REMARK VINA RESULT:      -6.6      2.066      2.640
REMARK  5 active torsions:
REMARK  status: ('A' for Active; 'I' for Inactive)
REMARK    1  A    between atoms: C_11  and  C_13 
REMARK    2  A    between atoms: C_14  and  C_18 
REMARK    3  A    between atoms: C_18  and  C_19 
REMARK    4  A    between atoms: C_19  and  C_20 
REMARK    5  A    between atoms: C_20  and  O_22 
ROOT
HETATM    1  N   UNK N   1      30.019  14.750   5.312  0.00  0.00    -0.365 N 
HETATM    2  C   UNK N   1      30.474  15.864   4.701  0.00  0.00     0.039 A 
HETATM    3  C   UNK N   1      31.792  15.670   4.295  0.00  0.00    -0.024 A 
HETATM    4  C   UNK N   1      32.118  14.384   4.669  0.00  0.00    -0.038 A 
HETATM    5  C   UNK N   1      31.014  13.838   5.285  0.00  0.00     0.095 A 
HETATM    6  C   UNK N   1      33.429  13.699   4.492  0.00  0.00     0.050 C 
HETATM    7  H   UNK N   1      29.126  14.625   5.705  0.00  0.00     0.165 HD
ENDROOT
BRANCH   2   8
HETATM    8  C   UNK N   1      29.642  17.090   4.652  0.00  0.00     0.048 C 
HETATM    9  C   UNK N   1      29.120  17.822   5.651  0.00  0.00     0.047 A 
HETATM   10  C   UNK N   1      29.306  17.768   7.114  0.00  0.00     0.257 A 
HETATM   11  C   UNK N   1      28.206  18.945   5.465  0.00  0.00     0.006 A 
HETATM   12  N   UNK N   1      28.547  18.703   7.727  0.00  0.00    -0.322 N 
HETATM   13  O   UNK N   1      30.104  17.075   7.710  0.00  0.00    -0.267 OA
HETATM   14  C   UNK N   1      27.875  19.416   6.717  0.00  0.00     0.046 A 
HETATM   15  H   UNK N   1      28.478  18.857   8.697  0.00  0.00     0.169 HD
HETATM   16  C   UNK N   1      27.007  20.490   6.888  0.00  0.00     0.030 A 
HETATM   17  C   UNK N   1      26.468  21.092   5.738  0.00  0.00     0.002 A 
HETATM   18  C   UNK N   1      26.812  20.614   4.453  0.00  0.00     0.001 A 
HETATM   19  C   UNK N   1      27.688  19.524   4.307  0.00  0.00     0.015 A 
ENDBRANCH   2   8
BRANCH   3  20
HETATM   20  C   UNK N   1      32.728  16.649   3.651  0.00  0.00     0.052 C 
BRANCH  20  21
HETATM   21  C   UNK N   1      33.014  17.811   4.601  0.00  0.00     0.115 C 
BRANCH  21  22
HETATM   22  C   UNK N   1      33.568  17.370   5.922  0.00  0.00     0.139 C 
HETATM   23  O   UNK N   1      34.645  16.800   5.959  0.00  0.00    -0.650 OA
BRANCH  22  24
HETATM   24  O   UNK N   1      32.911  17.626   7.071  0.00  0.00    -0.776 OA
HETATM   25  H   UNK N   1      33.065  17.327   7.946  0.00  0.00     0.167 HD
ENDBRANCH  22  24
ENDBRANCH  21  22
ENDBRANCH  20  21
ENDBRANCH   3  20
TORSDOF 5
ENDMDL
MODEL 8
REMARK VINA RESULT:      -6.6      9.615     10.783
REMARK  5 active torsions:
REMARK  status: ('A' for Active; 'I' for Inactive)
REMARK    1  A    between atoms: C_11  and  C_13 
REMARK    2  A    between atoms: C_14  and  C_18 
REMARK    3  A    between atoms: C_18  and  C_19 
REMARK    4  A    between atoms: C_19  and  C_20 
REMARK    5  A    between atoms: C_20  and  O_22 
ROOT
HETATM    1  N   UNK N   1      22.300  14.481   6.502  0.00  0.00    -0.365 N 
HETATM    2  C   UNK N   1      21.792  15.680   6.854  0.00  0.00     0.039 A 
HETATM    3  C   UNK N   1      21.156  15.576   8.089  0.00  0.00    -0.024 A 
HETATM    4  C   UNK N   1      21.311  14.263   8.484  0.00  0.00    -0.038 A 
HETATM    5  C   UNK N   1      22.021  13.614   7.498  0.00  0.00     0.095 A 
HETATM    6  C   UNK N   1      20.782  13.627   9.723  0.00  0.00     0.050 C 
HETATM    7  H   UNK N   1      22.785  14.276   5.671  0.00  0.00     0.165 HD
ENDROOT
BRANCH   2   8
HETATM    8  C   UNK N   1      21.851  16.829   5.919  0.00  0.00     0.048 C 
HETATM    9  C   UNK N   1      21.043  17.153   4.894  0.00  0.00     0.047 A 
HETATM   10  C   UNK N   1      19.758  16.592   4.436  0.00  0.00     0.257 A 
HETATM   11  C   UNK N   1      21.287  18.251   3.962  0.00  0.00     0.006 A 
HETATM   12  N   UNK N   1      19.321  17.237   3.332  0.00  0.00    -0.322 N 
HETATM   13  O   UNK N   1      19.099  15.750   5.009  0.00  0.00    -0.267 OA
HETATM   14  C   UNK N   1      20.260  18.245   3.044  0.00  0.00     0.046 A 
HETATM   15  H   UNK N   1      18.501  17.038   2.824  0.00  0.00     0.169 HD
HETATM   16  C   UNK N   1      20.199  19.173   2.009  0.00  0.00     0.030 A 
HETATM   17  C   UNK N   1      21.225  20.129   1.921  0.00  0.00     0.002 A 
HETATM   18  C   UNK N   1      22.276  20.141   2.866  0.00  0.00     0.001 A 
HETATM   19  C   UNK N   1      22.317  19.189   3.900  0.00  0.00     0.015 A 
ENDBRANCH   2   8
BRANCH   3  20
HETATM   20  C   UNK N   1      20.383  16.620   8.838  0.00  0.00     0.052 C 
BRANCH  20  21
HETATM   21  C   UNK N   1      19.005  16.814   8.206  0.00  0.00     0.115 C 
BRANCH  21  22
HETATM   22  C   UNK N   1      17.960  17.244   9.190  0.00  0.00     0.139 C 
HETATM   23  O   UNK N   1      16.938  16.589   9.301  0.00  0.00    -0.650 OA
BRANCH  22  24
HETATM   24  O   UNK N   1      18.150  18.322   9.977  0.00  0.00    -0.776 OA
HETATM   25  H   UNK N   1      18.296  19.222   9.760  0.00  0.00     0.167 HD
ENDBRANCH  22  24
ENDBRANCH  21  22
ENDBRANCH  20  21
ENDBRANCH   3  20
TORSDOF 5
ENDMDL
MODEL 9
REMARK VINA RESULT:      -6.6      9.319     11.679
REMARK  5 active torsions:
REMARK  status: ('A' for Active; 'I' for Inactive)
REMARK    1  A    between atoms: C_11  and  C_13 
REMARK    2  A    between atoms: C_14  and  C_18 
REMARK    3  A    between atoms: C_18  and  C_19 
REMARK    4  A    between atoms: C_19  and  C_20 
REMARK    5  A    between atoms: C_20  and  O_22 
ROOT
HETATM    1  N   UNK N   1      21.703  17.215   6.597  0.00  0.00    -0.365 N 
HETATM    2  C   UNK N   1      21.958  15.958   6.179  0.00  0.00     0.039 A 
HETATM    3  C   UNK N   1      21.570  15.819   4.848  0.00  0.00    -0.024 A 
HETATM    4  C   UNK N   1      21.083  17.052   4.466  0.00  0.00    -0.038 A 
HETATM    5  C   UNK N   1      21.181  17.892   5.552  0.00  0.00     0.095 A 
HETATM    6  C   UNK N   1      20.511  17.422   3.141  0.00  0.00     0.050 C 
HETATM    7  H   UNK N   1      21.869  17.574   7.498  0.00  0.00     0.165 HD
ENDROOT
BRANCH   2   8
HETATM    8  C   UNK N   1      22.452  14.932   7.129  0.00  0.00     0.048 C 
HETATM    9  C   UNK N   1      21.870  14.417   8.226  0.00  0.00     0.047 A 
HETATM   10  C   UNK N   1      20.510  14.561   8.780  0.00  0.00     0.257 A 
HETATM   11  C   UNK N   1      22.522  13.498   9.154  0.00  0.00     0.006 A 
HETATM   12  N   UNK N   1      20.387  13.863   9.931  0.00  0.00    -0.322 N 
HETATM   13  O   UNK N   1      19.575  15.122   8.249  0.00  0.00    -0.267 OA
HETATM   14  C   UNK N   1      21.618  13.219  10.157  0.00  0.00     0.046 A 
HETATM   15  H   UNK N   1      19.587  13.814  10.503  0.00  0.00     0.169 HD
HETATM   16  C   UNK N   1      21.935  12.370  11.212  0.00  0.00     0.030 A 
HETATM   17  C   UNK N   1      23.218  11.794  11.231  0.00  0.00     0.002 A 
HETATM   18  C   UNK N   1      24.143  12.073  10.200  0.00  0.00     0.001 A 
HETATM   19  C   UNK N   1      23.799  12.939   9.147  0.00  0.00     0.015 A 
ENDBRANCH   2   8
BRANCH   3  20
HETATM   20  C   UNK N   1      21.587  14.590   3.990  0.00  0.00     0.052 C 
BRANCH  20  21
HETATM   21  C   UNK N   1      20.496  13.617   4.438  0.00  0.00     0.115 C 
BRANCH  21  22
HETATM   22  C   UNK N   1      19.120  14.043   4.022  0.00  0.00     0.139 C 
HETATM   23  O   UNK N   1      18.267  14.225   4.875  0.00  0.00    -0.650 OA
BRANCH  22  24
HETATM   24  O   UNK N   1      18.823  14.261   2.725  0.00  0.00    -0.776 OA
HETATM   25  H   UNK N   1      19.356  14.212   1.957  0.00  0.00     0.167 HD
ENDBRANCH  22  24
ENDBRANCH  21  22
ENDBRANCH  20  21
ENDBRANCH   3  20
TORSDOF 5
ENDMDL
