MODEL 1
REMARK VINA RESULT:      -5.6      0.000      0.000
REMARK  5 active torsions:
REMARK  status: ('A' for Active; 'I' for Inactive)
REMARK    1  A    between atoms: C_8  and  N_9 
REMARK       I    between atoms: C_10  and  N_9 
REMARK    2  A    between atoms: C_10  and  C_12 
REMARK    3  A    between atoms: C_12  and  C_13 
REMARK    4  A    between atoms: C_14  and  C_13 
REMARK    5  A    between atoms: C_14  and  O_15 
ROOT
HETATM    1  N   UNK N   1      34.014  15.397  10.637  0.00  0.00    -0.313 N 
HETATM    2  C   UNK N   1      33.999  15.213   9.284  0.00  0.00     0.223 C 
HETATM    3  O   UNK N   1      34.630  14.303   8.769  0.00  0.00    -0.273 OA
HETATM    4  H   UNK N   1      33.488  16.145  10.999  0.00  0.00     0.170 HD
ENDROOT
BRANCH   1   5
HETATM    5  C   UNK N   1      34.734  14.586  11.571  0.00  0.00     0.107 A 
HETATM    6  N   UNK N   1      34.447  13.257  11.664  0.00  0.00    -0.351 N 
HETATM    7  C   UNK N   1      35.103  12.439  12.537  0.00  0.00     0.108 A 
ATOM      8  HN  UNK N   1      33.723  12.864  11.064  1.00  0.00     0.166 HD
HETATM    9  C   UNK N   1      36.100  12.956  13.369  0.00  0.00     0.026 A 
HETATM   10 Br   UNK N   1      37.026  11.827  14.595  0.00  0.00    -0.050 Br
HETATM   11  C   UNK N   1      36.415  14.309  13.297  0.00  0.00     0.024 A 
HETATM   12  C   UNK N   1      35.734  15.128  12.399  0.00  0.00     0.050 A 
ENDBRANCH   1   5
BRANCH   2  13
HETATM   13  C   UNK N   1      33.213  16.115   8.377  0.00  0.00     0.113 C 
BRANCH  13  14
HETATM   14  C   UNK N   1      33.289  17.603   8.689  0.00  0.00     0.119 C 
BRANCH  14  15
HETATM   15  C   UNK N   1      34.398  18.250   7.906  0.00  0.00     0.139 C 
HETATM   16  O   UNK N   1      34.545  17.973   6.728  0.00  0.00    -0.650 OA
BRANCH  15  17
HETATM   17  O   UNK N   1      35.233  19.136   8.488  0.00  0.00    -0.776 OA
HETATM   18  H   UNK N   1      35.448  19.051   9.396  0.00  0.00     0.167 HD
ENDBRANCH  15  17
ENDBRANCH  14  15
ENDBRANCH  13  14
ENDBRANCH   2  13
TORSDOF 5
ENDMDL
MODEL 2
REMARK VINA RESULT:      -5.4      3.085      4.158
REMARK  5 active torsions:
REMARK  status: ('A' for Active; 'I' for Inactive)
REMARK    1  A    between atoms: C_8  and  N_9 
REMARK       I    between atoms: C_10  and  N_9 
REMARK    2  A    between atoms: C_10  and  C_12 
REMARK    3  A    between atoms: C_12  and  C_13 
REMARK    4  A    between atoms: C_14  and  C_13 
REMARK    5  A    between atoms: C_14  and  O_15 
ROOT
HETATM    1  N   UNK N   1      34.554  12.575  13.012  0.00  0.00    -0.313 N 
HETATM    2  C   UNK N   1      35.392  13.482  12.430  0.00  0.00     0.223 C 
HETATM    3  O   UNK N   1      36.375  13.897  13.025  0.00  0.00    -0.273 OA
HETATM    4  H   UNK N   1      33.777  12.274  12.488  0.00  0.00     0.170 HD
ENDROOT
BRANCH   1   5
HETATM    5  C   UNK N   1      34.714  12.027  14.324  0.00  0.00     0.107 A 
HETATM    6  N   UNK N   1      35.173  12.823  15.330  0.00  0.00    -0.351 N 
HETATM    7  C   UNK N   1      35.345  12.352  16.599  0.00  0.00     0.108 A 
ATOM      8  HN  UNK N   1      35.395  13.797  15.129  1.00  0.00     0.166 HD
HETATM    9  C   UNK N   1      35.047  11.020  16.899  0.00  0.00     0.026 A 
HETATM   10 Br   UNK N   1      35.280  10.345  18.667  0.00  0.00    -0.050 Br
HETATM   11  C   UNK N   1      34.576  10.183  15.893  0.00  0.00     0.024 A 
HETATM   12  C   UNK N   1      34.408  10.683  14.604  0.00  0.00     0.050 A 
ENDBRANCH   1   5
BRANCH   2  13
HETATM   13  C   UNK N   1      35.146  14.004  11.045  0.00  0.00     0.113 C 
BRANCH  13  14
HETATM   14  C   UNK N   1      34.612  15.427  10.955  0.00  0.00     0.119 C 
BRANCH  14  15
HETATM   15  C   UNK N   1      35.729  16.395  10.678  0.00  0.00     0.139 C 
HETATM   16  O   UNK N   1      35.472  17.503  10.241  0.00  0.00    -0.650 OA
BRANCH  15  17
HETATM   17  O   UNK N   1      37.015  16.053  10.904  0.00  0.00    -0.776 OA
HETATM   18  H   UNK N   1      37.217  15.255  11.351  0.00  0.00     0.167 HD
ENDBRANCH  15  17
ENDBRANCH  14  15
ENDBRANCH  13  14
ENDBRANCH   2  13
TORSDOF 5
ENDMDL
MODEL 3
REMARK VINA RESULT:      -5.4     14.109     15.153
REMARK  5 active torsions:
REMARK  status: ('A' for Active; 'I' for Inactive)
REMARK    1  A    between atoms: C_8  and  N_9 
REMARK       I    between atoms: C_10  and  N_9 
REMARK    2  A    between atoms: C_10  and  C_12 
REMARK    3  A    between atoms: C_12  and  C_13 
REMARK    4  A    between atoms: C_14  and  C_13 
REMARK    5  A    between atoms: C_14  and  O_15 
ROOT
HETATM    1  N   UNK N   1      21.399  18.334   5.706  0.00  0.00    -0.313 N 
HETATM    2  C   UNK N   1      21.019  18.260   4.397  0.00  0.00     0.223 C 
HETATM    3  O   UNK N   1      20.518  17.240   3.948  0.00  0.00    -0.273 OA
HETATM    4  H   UNK N   1      21.797  19.179   6.015  0.00  0.00     0.170 HD
ENDROOT
BRANCH   1   5
HETATM    5  C   UNK N   1      21.264  17.281   6.665  0.00  0.00     0.107 A 
HETATM    6  N   UNK N   1      22.015  16.152   6.528  0.00  0.00    -0.351 N 
HETATM    7  C   UNK N   1      21.926  15.118   7.414  0.00  0.00     0.108 A 
ATOM      8  HN  UNK N   1      22.660  16.078   5.743  1.00  0.00     0.166 HD
HETATM    9  C   UNK N   1      21.048  15.196   8.499  0.00  0.00     0.026 A 
HETATM   10 Br   UNK N   1      20.912  13.760   9.745  0.00  0.00    -0.050 Br
HETATM   11  C   UNK N   1      20.269  16.336   8.665  0.00  0.00     0.024 A 
HETATM   12  C   UNK N   1      20.374  17.381   7.750  0.00  0.00     0.050 A 
ENDBRANCH   1   5
BRANCH   2  13
HETATM   13  C   UNK N   1      21.198  19.417   3.458  0.00  0.00     0.113 C 
BRANCH  13  14
HETATM   14  C   UNK N   1      20.630  19.233   2.058  0.00  0.00     0.119 C 
BRANCH  14  15
HETATM   15  C   UNK N   1      20.882  20.457   1.221  0.00  0.00     0.139 C 
HETATM   16  O   UNK N   1      21.356  21.454   1.739  0.00  0.00    -0.650 OA
BRANCH  15  17
HETATM   17  O   UNK N   1      20.591  20.469  -0.097  0.00  0.00    -0.776 OA
HETATM   18  H   UNK N   1      20.378  19.670  -0.537  0.00  0.00     0.167 HD
ENDBRANCH  15  17
ENDBRANCH  14  15
ENDBRANCH  13  14
ENDBRANCH   2  13
TORSDOF 5
ENDMDL
MODEL 4
REMARK VINA RESULT:      -5.4      1.879      2.296
REMARK  5 active torsions:
REMARK  status: ('A' for Active; 'I' for Inactive)
REMARK    1  A    between atoms: C_8  and  N_9 
REMARK       I    between atoms: C_10  and  N_9 
REMARK    2  A    between atoms: C_10  and  C_12 
REMARK    3  A    between atoms: C_12  and  C_13 
REMARK    4  A    between atoms: C_14  and  C_13 
REMARK    5  A    between atoms: C_14  and  O_15 
ROOT
HETATM    1  N   UNK N   1      36.282  15.431  12.049  0.00  0.00    -0.313 N 
HETATM    2  C   UNK N   1      35.250  15.837  11.253  0.00  0.00     0.223 C 
HETATM    3  O   UNK N   1      34.145  15.325  11.351  0.00  0.00    -0.273 OA
HETATM    4  H   UNK N   1      37.151  15.877  11.928  0.00  0.00     0.170 HD
ENDROOT
BRANCH   1   5
HETATM    5  C   UNK N   1      36.202  14.408  13.047  0.00  0.00     0.107 A 
HETATM    6  N   UNK N   1      36.789  14.610  14.260  0.00  0.00    -0.351 N 
HETATM    7  C   UNK N   1      36.743  13.669  15.246  0.00  0.00     0.108 A 
ATOM      8  HN  UNK N   1      37.277  15.488  14.434  1.00  0.00     0.166 HD
HETATM    9  C   UNK N   1      36.080  12.457  15.031  0.00  0.00     0.026 A 
HETATM   10 Br   UNK N   1      36.006  11.132  16.398  0.00  0.00    -0.050 Br
HETATM   11  C   UNK N   1      35.470  12.223  13.802  0.00  0.00     0.024 A 
HETATM   12  C   UNK N   1      35.529  13.196  12.808  0.00  0.00     0.050 A 
ENDBRANCH   1   5
BRANCH   2  13
HETATM   13  C   UNK N   1      35.425  16.920  10.229  0.00  0.00     0.113 C 
BRANCH  13  14
HETATM   14  C   UNK N   1      34.341  17.012   9.165  0.00  0.00     0.119 C 
BRANCH  14  15
HETATM   15  C   UNK N   1      34.656  18.108   8.184  0.00  0.00     0.139 C 
HETATM   16  O   UNK N   1      34.338  17.978   7.014  0.00  0.00    -0.650 OA
BRANCH  15  17
HETATM   17  O   UNK N   1      35.286  19.233   8.579  0.00  0.00    -0.776 OA
HETATM   18  H   UNK N   1      36.133  19.182   8.978  0.00  0.00     0.167 HD
ENDBRANCH  15  17
ENDBRANCH  14  15
ENDBRANCH  13  14
ENDBRANCH   2  13
TORSDOF 5
ENDMDL
MODEL 5
REMARK VINA RESULT:      -5.3     12.153     13.983
REMARK  5 active torsions:
REMARK  status: ('A' for Active; 'I' for Inactive)
REMARK    1  A    between atoms: C_8  and  N_9 
REMARK       I    between atoms: C_10  and  N_9 
REMARK    2  A    between atoms: C_10  and  C_12 
REMARK    3  A    between atoms: C_12  and  C_13 
REMARK    4  A    between atoms: C_14  and  C_13 
REMARK    5  A    between atoms: C_14  and  O_15 
ROOT
HETATM    1  N   UNK N   1      23.389  19.579   3.794  0.00  0.00    -0.313 N 
HETATM    2  C   UNK N   1      22.341  18.708   3.703  0.00  0.00     0.223 C 
HETATM    3  O   UNK N   1      22.508  17.509   3.863  0.00  0.00    -0.273 OA
HETATM    4  H   UNK N   1      23.198  20.534   3.656  0.00  0.00     0.170 HD
ENDROOT
BRANCH   1   5
HETATM    5  C   UNK N   1      24.744  19.212   4.075  0.00  0.00     0.107 A 
HETATM    6  N   UNK N   1      24.995  18.208   4.961  0.00  0.00    -0.351 N 
HETATM    7  C   UNK N   1      26.267  17.819   5.265  0.00  0.00     0.108 A 
ATOM      8  HN  UNK N   1      24.211  17.735   5.409  1.00  0.00     0.166 HD
HETATM    9  C   UNK N   1      27.357  18.453   4.663  0.00  0.00     0.026 A 
HETATM   10 Br   UNK N   1      29.141  17.921   5.076  0.00  0.00    -0.050 Br
HETATM   11  C   UNK N   1      27.132  19.481   3.754  0.00  0.00     0.024 A 
HETATM   12  C   UNK N   1      25.826  19.864   3.457  0.00  0.00     0.050 A 
ENDBRANCH   1   5
BRANCH   2  13
HETATM   13  C   UNK N   1      20.949  19.182   3.404  0.00  0.00     0.113 C 
BRANCH  13  14
HETATM   14  C   UNK N   1      20.526  19.127   1.942  0.00  0.00     0.119 C 
BRANCH  14  15
HETATM   15  C   UNK N   1      20.894  20.404   1.238  0.00  0.00     0.139 C 
HETATM   16  O   UNK N   1      21.448  21.296   1.857  0.00  0.00    -0.650 OA
BRANCH  15  17
HETATM   17  O   UNK N   1      20.620  20.578  -0.072  0.00  0.00    -0.776 OA
HETATM   18  H   UNK N   1      19.896  20.130  -0.463  0.00  0.00     0.167 HD
ENDBRANCH  15  17
ENDBRANCH  14  15
ENDBRANCH  13  14
ENDBRANCH   2  13
TORSDOF 5
ENDMDL
MODEL 6
REMARK VINA RESULT:      -5.2      4.128      6.629
REMARK  5 active torsions:
REMARK  status: ('A' for Active; 'I' for Inactive)
REMARK    1  A    between atoms: C_8  and  N_9 
REMARK       I    between atoms: C_10  and  N_9 
REMARK    2  A    between atoms: C_10  and  C_12 
REMARK    3  A    between atoms: C_12  and  C_13 
REMARK    4  A    between atoms: C_14  and  C_13 
REMARK    5  A    between atoms: C_14  and  O_15 
ROOT
HETATM    1  N   UNK N   1      33.953  15.571  10.158  0.00  0.00    -0.313 N 
HETATM    2  C   UNK N   1      35.036  16.300  10.559  0.00  0.00     0.223 C 
HETATM    3  O   UNK N   1      35.318  17.355  10.011  0.00  0.00    -0.273 OA
HETATM    4  H   UNK N   1      33.772  14.729  10.634  0.00  0.00     0.170 HD
ENDROOT
BRANCH   1   5
HETATM    5  C   UNK N   1      33.060  15.935   9.100  0.00  0.00     0.107 A 
HETATM    6  N   UNK N   1      32.589  17.212   9.032  0.00  0.00    -0.351 N 
HETATM    7  C   UNK N   1      31.735  17.611   8.046  0.00  0.00     0.108 A 
ATOM      8  HN  UNK N   1      32.882  17.886   9.738  1.00  0.00     0.166 HD
HETATM    9  C   UNK N   1      31.319  16.705   7.067  0.00  0.00     0.026 A 
HETATM   10 Br   UNK N   1      30.128  17.247   5.682  0.00  0.00    -0.050 Br
HETATM   11  C   UNK N   1      31.784  15.394   7.111  0.00  0.00     0.024 A 
HETATM   12  C   UNK N   1      32.655  15.005   8.126  0.00  0.00     0.050 A 
ENDBRANCH   1   5
BRANCH   2  13
HETATM   13  C   UNK N   1      35.921  15.841  11.681  0.00  0.00     0.113 C 
BRANCH  13  14
HETATM   14  C   UNK N   1      35.826  14.365  12.043  0.00  0.00     0.119 C 
BRANCH  14  15
HETATM   15  C   UNK N   1      35.922  14.180  13.533  0.00  0.00     0.139 C 
HETATM   16  O   UNK N   1      35.066  13.538  14.117  0.00  0.00    -0.650 OA
BRANCH  15  17
HETATM   17  O   UNK N   1      36.944  14.715  14.234  0.00  0.00    -0.776 OA
HETATM   18  H   UNK N   1      37.285  15.556  13.998  0.00  0.00     0.167 HD
ENDBRANCH  15  17
ENDBRANCH  14  15
ENDBRANCH  13  14
ENDBRANCH   2  13
TORSDOF 5
ENDMDL
MODEL 7
REMARK VINA RESULT:      -5.2      7.998      9.682
REMARK  5 active torsions:
REMARK  status: ('A' for Active; 'I' for Inactive)
REMARK    1  A    between atoms: C_8  and  N_9 
REMARK       I    between atoms: C_10  and  N_9 
REMARK    2  A    between atoms: C_10  and  C_12 
REMARK    3  A    between atoms: C_12  and  C_13 
REMARK    4  A    between atoms: C_14  and  C_13 
REMARK    5  A    between atoms: C_14  and  O_15 
ROOT
HETATM    1  N   UNK N   1      27.212  19.206   6.530  0.00  0.00    -0.313 N 
HETATM    2  C   UNK N   1      27.165  19.847   5.326  0.00  0.00     0.223 C 
HETATM    3  O   UNK N   1      28.129  19.842   4.576  0.00  0.00    -0.273 OA
HETATM    4  H   UNK N   1      26.407  19.243   7.095  0.00  0.00     0.170 HD
ENDROOT
BRANCH   1   5
HETATM    5  C   UNK N   1      28.339  18.485   7.037  0.00  0.00     0.107 A 
HETATM    6  N   UNK N   1      28.992  17.607   6.224  0.00  0.00    -0.351 N 
HETATM    7  C   UNK N   1      30.071  16.893   6.656  0.00  0.00     0.108 A 
ATOM      8  HN  UNK N   1      28.664  17.480   5.268  1.00  0.00     0.166 HD
HETATM    9  C   UNK N   1      30.539  17.050   7.964  0.00  0.00     0.026 A 
HETATM   10 Br   UNK N   1      32.046  16.061   8.584  0.00  0.00    -0.050 Br
HETATM   11  C   UNK N   1      29.893  17.940   8.817  0.00  0.00     0.024 A 
HETATM   12  C   UNK N   1      28.793  18.659   8.357  0.00  0.00     0.050 A 
ENDBRANCH   1   5
BRANCH   2  13
HETATM   13  C   UNK N   1      25.937  20.582   4.873  0.00  0.00     0.113 C 
BRANCH  13  14
HETATM   14  C   UNK N   1      24.942  19.773   4.052  0.00  0.00     0.119 C 
BRANCH  14  15
HETATM   15  C   UNK N   1      24.421  20.590   2.902  0.00  0.00     0.139 C 
HETATM   16  O   UNK N   1      25.140  20.806   1.941  0.00  0.00    -0.650 OA
BRANCH  15  17
HETATM   17  O   UNK N   1      23.167  21.088   2.916  0.00  0.00    -0.776 OA
HETATM   18  H   UNK N   1      22.703  21.168   3.727  0.00  0.00     0.167 HD
ENDBRANCH  15  17
ENDBRANCH  14  15
ENDBRANCH  13  14
ENDBRANCH   2  13
TORSDOF 5
ENDMDL
MODEL 8
REMARK VINA RESULT:      -5.1      6.063      8.375
REMARK  5 active torsions:
REMARK  status: ('A' for Active; 'I' for Inactive)
REMARK    1  A    between atoms: C_8  and  N_9 
REMARK       I    between atoms: C_10  and  N_9 
REMARK    2  A    between atoms: C_10  and  C_12 
REMARK    3  A    between atoms: C_12  and  C_13 
REMARK    4  A    between atoms: C_14  and  C_13 
REMARK    5  A    between atoms: C_14  and  O_15 
ROOT
HETATM    1  N   UNK N   1      30.909  16.910   6.693  0.00  0.00    -0.313 N 
HETATM    2  C   UNK N   1      31.582  17.218   7.840  0.00  0.00     0.223 C 
HETATM    3  O   UNK N   1      31.191  18.113   8.574  0.00  0.00    -0.273 OA
HETATM    4  H   UNK N   1      31.268  16.181   6.139  0.00  0.00     0.170 HD
ENDROOT
BRANCH   1   5
HETATM    5  C   UNK N   1      29.723  17.565   6.232  0.00  0.00     0.107 A 
HETATM    6  N   UNK N   1      28.789  17.973   7.137  0.00  0.00    -0.351 N 
HETATM    7  C   UNK N   1      27.641  18.601   6.752  0.00  0.00     0.108 A 
ATOM      8  HN  UNK N   1      28.954  17.803   8.129  1.00  0.00     0.166 HD
HETATM    9  C   UNK N   1      27.394  18.844   5.398  0.00  0.00     0.026 A 
HETATM   10 Br   UNK N   1      25.795  19.720   4.843  0.00  0.00    -0.050 Br
HETATM   11  C   UNK N   1      28.329  18.439   4.451  0.00  0.00     0.024 A 
HETATM   12  C   UNK N   1      29.495  17.799   4.864  0.00  0.00     0.050 A 
ENDBRANCH   1   5
BRANCH   2  13
HETATM   13  C   UNK N   1      32.822  16.477   8.248  0.00  0.00     0.113 C 
BRANCH  13  14
HETATM   14  C   UNK N   1      33.865  17.288   9.004  0.00  0.00     0.119 C 
BRANCH  14  15
HETATM   15  C   UNK N   1      34.607  18.200   8.066  0.00  0.00     0.139 C 
HETATM   16  O   UNK N   1      34.589  17.975   6.867  0.00  0.00    -0.650 OA
BRANCH  15  17
HETATM   17  O   UNK N   1      35.294  19.264   8.530  0.00  0.00    -0.776 OA
HETATM   18  H   UNK N   1      35.811  19.186   9.308  0.00  0.00     0.167 HD
ENDBRANCH  15  17
ENDBRANCH  14  15
ENDBRANCH  13  14
ENDBRANCH   2  13
TORSDOF 5
ENDMDL
MODEL 9
REMARK VINA RESULT:      -5.1      3.809      4.456
REMARK  5 active torsions:
REMARK  status: ('A' for Active; 'I' for Inactive)
REMARK    1  A    between atoms: C_8  and  N_9 
REMARK       I    between atoms: C_10  and  N_9 
REMARK    2  A    between atoms: C_10  and  C_12 
REMARK    3  A    between atoms: C_12  and  C_13 
REMARK    4  A    between atoms: C_14  and  C_13 
REMARK    5  A    between atoms: C_14  and  O_15 
ROOT
HETATM    1  N   UNK N   1      33.120  17.376   8.907  0.00  0.00    -0.313 N 
HETATM    2  C   UNK N   1      31.818  16.993   8.765  0.00  0.00     0.223 C 
HETATM    3  O   UNK N   1      31.488  15.827   8.925  0.00  0.00    -0.273 OA
HETATM    4  H   UNK N   1      33.331  18.327   8.767  0.00  0.00     0.170 HD
ENDROOT
BRANCH   1   5
HETATM    5  C   UNK N   1      34.205  16.505   9.245  0.00  0.00     0.107 A 
HETATM    6  N   UNK N   1      34.485  15.443   8.438  0.00  0.00    -0.351 N 
HETATM    7  C   UNK N   1      35.507  14.582   8.713  0.00  0.00     0.108 A 
ATOM      8  HN  UNK N   1      33.915  15.288   7.608  1.00  0.00     0.166 HD
HETATM    9  C   UNK N   1      36.302  14.775   9.846  0.00  0.00     0.026 A 
HETATM   10 Br   UNK N   1      37.733  13.581  10.244  0.00  0.00    -0.050 Br
HETATM   11  C   UNK N   1      36.040  15.850  10.688  0.00  0.00     0.024 A 
HETATM   12  C   UNK N   1      34.992  16.719  10.391  0.00  0.00     0.050 A 
ENDBRANCH   1   5
BRANCH   2  13
HETATM   13  C   UNK N   1      30.743  17.977   8.408  0.00  0.00     0.113 C 
BRANCH  13  14
HETATM   14  C   UNK N   1      29.878  18.466   9.562  0.00  0.00     0.119 C 
BRANCH  14  15
HETATM   15  C   UNK N   1      28.435  18.117   9.325  0.00  0.00     0.139 C 
HETATM   16  O   UNK N   1      28.005  17.041   9.702  0.00  0.00    -0.650 OA
BRANCH  15  17
HETATM   17  O   UNK N   1      27.606  18.980   8.700  0.00  0.00    -0.776 OA
HETATM   18  H   UNK N   1      27.941  19.562   8.046  0.00  0.00     0.167 HD
ENDBRANCH  15  17
ENDBRANCH  14  15
ENDBRANCH  13  14
ENDBRANCH   2  13
TORSDOF 5
ENDMDL
