MODEL 1
REMARK VINA RESULT:      -6.5      0.000      0.000
REMARK  2 active torsions:
REMARK  status: ('A' for Active; 'I' for Inactive)
REMARK    1  A    between atoms: C_6  and  N_7 
REMARK    2  A    between atoms: C_8  and  C_9 
REMARK       I    between atoms: C_9  and  N_11 
ROOT
HETATM    1 Br   UNK N   1      26.589  29.721  -3.605  0.00  0.00    -0.051 Br
HETATM    2  C   UNK N   1      26.177  27.957  -4.197  0.00  0.00     0.012 A 
HETATM    3  C   UNK N   1      26.872  26.861  -3.682  0.00  0.00     0.038 A 
HETATM    4  C   UNK N   1      25.188  27.767  -5.157  0.00  0.00     0.021 A 
HETATM    5  C   UNK N   1      24.910  26.484  -5.621  0.00  0.00     0.031 A 
HETATM    6  C   UNK N   1      25.595  25.377  -5.113  0.00  0.00     0.041 A 
HETATM    7  C   UNK N   1      26.581  25.550  -4.103  0.00  0.00     0.059 A 
ENDROOT
BRANCH   7   8
HETATM    8  C   UNK N   1      27.414  24.438  -3.523  0.00  0.00     0.256 C 
HETATM    9  N   UNK N   1      28.672  24.091  -3.963  0.00  0.00    -0.347 N 
HETATM   10  C   UNK N   1      29.219  24.626  -5.207  0.00  0.00     0.130 C 
HETATM   11  C   UNK N   1      29.379  23.025  -3.254  0.00  0.00     0.130 C 
HETATM   12  C   UNK N   1      30.751  24.797  -5.215  0.00  0.00    -0.000 C 
HETATM   13  C   UNK N   1      31.449  24.093  -4.056  0.00  0.00     0.011 C 
HETATM   14  C   UNK N   1      31.138  26.259  -5.206  0.00  0.00     0.011 C 
HETATM   15  C   UNK N   1      30.786  22.759  -3.782  0.00  0.00    -0.000 C 
HETATM   16  C   UNK N   1      31.576  22.016  -2.725  0.00  0.00     0.011 C 
HETATM   17  O   UNK N   1      26.908  23.781  -2.620  0.00  0.00    -0.267 OA
ENDBRANCH   7   8
BRANCH   6  18
HETATM   18  N   UNK N   1      25.363  24.130  -5.716  0.00  0.00    -0.398 N 
HETATM   19  H   UNK N   1      25.617  23.271  -5.307  0.00  0.00     0.156 HD
HETATM   20  H   UNK N   1      24.923  24.114  -6.597  0.00  0.00     0.156 HD
ENDBRANCH   6  18
TORSDOF 2
ENDMDL
MODEL 2
REMARK VINA RESULT:      -5.9     19.728     22.767
REMARK  2 active torsions:
REMARK  status: ('A' for Active; 'I' for Inactive)
REMARK    1  A    between atoms: C_6  and  N_7 
REMARK    2  A    between atoms: C_8  and  C_9 
REMARK       I    between atoms: C_9  and  N_11 
ROOT
HETATM    1 Br   UNK N   1      34.122  16.561   9.289  0.00  0.00    -0.051 Br
HETATM    2  C   UNK N   1      35.283  15.287  10.101  0.00  0.00     0.012 A 
HETATM    3  C   UNK N   1      35.283  15.118  11.488  0.00  0.00     0.038 A 
HETATM    4  C   UNK N   1      36.141  14.533   9.307  0.00  0.00     0.021 A 
HETATM    5  C   UNK N   1      37.018  13.628   9.899  0.00  0.00     0.031 A 
HETATM    6  C   UNK N   1      37.029  13.447  11.285  0.00  0.00     0.041 A 
HETATM    7  C   UNK N   1      36.131  14.181  12.108  0.00  0.00     0.059 A 
ENDROOT
BRANCH   7   8
HETATM    8  C   UNK N   1      36.091  14.103  13.611  0.00  0.00     0.256 C 
HETATM    9  N   UNK N   1      35.443  13.123  14.326  0.00  0.00    -0.347 N 
HETATM   10  C   UNK N   1      34.521  12.192  13.681  0.00  0.00     0.130 C 
HETATM   11  C   UNK N   1      35.548  13.151  15.785  0.00  0.00     0.130 C 
HETATM   12  C   UNK N   1      34.463  10.793  14.327  0.00  0.00    -0.000 C 
HETATM   13  C   UNK N   1      35.132  10.725  15.696  0.00  0.00     0.011 C 
HETATM   14  C   UNK N   1      35.084   9.748  13.425  0.00  0.00     0.011 C 
HETATM   15  C   UNK N   1      34.843  11.989  16.479  0.00  0.00    -0.000 C 
HETATM   16  C   UNK N   1      35.395  11.846  17.882  0.00  0.00     0.011 C 
HETATM   17  O   UNK N   1      36.651  15.004  14.226  0.00  0.00    -0.267 OA
ENDBRANCH   7   8
BRANCH   6  18
HETATM   18  N   UNK N   1      38.026  12.621  11.830  0.00  0.00    -0.398 N 
HETATM   19  H   UNK N   1      37.988  12.250  12.740  0.00  0.00     0.156 HD
HETATM   20  H   UNK N   1      38.805  12.402  11.269  0.00  0.00     0.156 HD
ENDBRANCH   6  18
TORSDOF 2
ENDMDL
MODEL 3
REMARK VINA RESULT:      -5.9      4.040      6.023
REMARK  2 active torsions:
REMARK  status: ('A' for Active; 'I' for Inactive)
REMARK    1  A    between atoms: C_6  and  N_7 
REMARK    2  A    between atoms: C_8  and  C_9 
REMARK       I    between atoms: C_9  and  N_11 
ROOT
HETATM    1 Br   UNK N   1      29.980  20.993  -7.850  0.00  0.00    -0.051 Br
HETATM    2  C   UNK N   1      28.113  21.369  -7.916  0.00  0.00     0.012 A 
HETATM    3  C   UNK N   1      27.643  22.654  -7.637  0.00  0.00     0.038 A 
HETATM    4  C   UNK N   1      27.216  20.352  -8.230  0.00  0.00     0.021 A 
HETATM    5  C   UNK N   1      25.849  20.613  -8.242  0.00  0.00     0.031 A 
HETATM    6  C   UNK N   1      25.365  21.894  -7.967  0.00  0.00     0.041 A 
HETATM    7  C   UNK N   1      26.269  22.954  -7.682  0.00  0.00     0.059 A 
ENDROOT
BRANCH   7   8
HETATM    8  C   UNK N   1      25.857  24.356  -7.323  0.00  0.00     0.256 C 
HETATM    9  N   UNK N   1      25.850  24.867  -6.045  0.00  0.00    -0.347 N 
HETATM   10  C   UNK N   1      26.017  24.004  -4.879  0.00  0.00     0.130 C 
HETATM   11  C   UNK N   1      25.480  26.270  -5.865  0.00  0.00     0.130 C 
HETATM   12  C   UNK N   1      26.715  24.672  -3.678  0.00  0.00    -0.000 C 
HETATM   13  C   UNK N   1      26.825  26.188  -3.804  0.00  0.00     0.011 C 
HETATM   14  C   UNK N   1      28.098  24.097  -3.459  0.00  0.00     0.011 C 
HETATM   15  C   UNK N   1      25.561  26.752  -4.420  0.00  0.00    -0.000 C 
HETATM   16  C   UNK N   1      25.630  28.265  -4.408  0.00  0.00     0.011 C 
HETATM   17  O   UNK N   1      25.468  25.071  -8.241  0.00  0.00    -0.267 OA
ENDBRANCH   7   8
BRANCH   6  18
HETATM   18  N   UNK N   1      23.974  22.060  -7.863  0.00  0.00    -0.398 N 
HETATM   19  H   UNK N   1      23.543  22.907  -7.604  0.00  0.00     0.156 HD
HETATM   20  H   UNK N   1      23.397  21.286  -8.060  0.00  0.00     0.156 HD
ENDBRANCH   6  18
TORSDOF 2
ENDMDL
MODEL 4
REMARK VINA RESULT:      -5.7     14.259     15.488
REMARK  2 active torsions:
REMARK  status: ('A' for Active; 'I' for Inactive)
REMARK    1  A    between atoms: C_6  and  N_7 
REMARK    2  A    between atoms: C_8  and  C_9 
REMARK       I    between atoms: C_9  and  N_11 
ROOT
HETATM    1 Br   UNK N   1      23.534  20.327   3.069  0.00  0.00    -0.051 Br
HETATM    2  C   UNK N   1      22.160  19.075   3.488  0.00  0.00     0.012 A 
HETATM    3  C   UNK N   1      22.413  18.018   4.364  0.00  0.00     0.038 A 
HETATM    4  C   UNK N   1      20.903  19.211   2.904  0.00  0.00     0.021 A 
HETATM    5  C   UNK N   1      19.909  18.277   3.177  0.00  0.00     0.031 A 
HETATM    6  C   UNK N   1      20.147  17.214   4.054  0.00  0.00     0.041 A 
HETATM    7  C   UNK N   1      21.412  17.083   4.688  0.00  0.00     0.059 A 
ENDROOT
BRANCH   7   8
HETATM    8  C   UNK N   1      21.794  15.954   5.607  0.00  0.00     0.256 C 
HETATM    9  N   UNK N   1      21.430  15.865   6.932  0.00  0.00    -0.347 N 
HETATM   10  C   UNK N   1      20.831  16.996   7.635  0.00  0.00     0.130 C 
HETATM   11  C   UNK N   1      21.830  14.673   7.678  0.00  0.00     0.130 C 
HETATM   12  C   UNK N   1      19.838  16.609   8.748  0.00  0.00    -0.000 C 
HETATM   13  C   UNK N   1      19.892  15.133   9.127  0.00  0.00     0.011 C 
HETATM   14  C   UNK N   1      18.419  16.965   8.364  0.00  0.00     0.011 C 
HETATM   15  C   UNK N   1      21.327  14.646   9.118  0.00  0.00    -0.000 C 
HETATM   16  C   UNK N   1      21.374  13.221   9.630  0.00  0.00     0.011 C 
HETATM   17  O   UNK N   1      22.511  15.076   5.138  0.00  0.00    -0.267 OA
ENDBRANCH   7   8
BRANCH   6  18
HETATM   18  N   UNK N   1      19.149  16.234   4.182  0.00  0.00    -0.398 N 
HETATM   19  H   UNK N   1      19.298  15.278   4.007  0.00  0.00     0.156 HD
HETATM   20  H   UNK N   1      18.250  16.521   4.464  0.00  0.00     0.156 HD
ENDBRANCH   6  18
TORSDOF 2
ENDMDL
MODEL 5
REMARK VINA RESULT:      -5.7     20.743     23.653
REMARK  2 active torsions:
REMARK  status: ('A' for Active; 'I' for Inactive)
REMARK    1  A    between atoms: C_6  and  N_7 
REMARK    2  A    between atoms: C_8  and  C_9 
REMARK       I    between atoms: C_9  and  N_11 
ROOT
HETATM    1 Br   UNK N   1      38.277   9.919  10.400  0.00  0.00    -0.051 Br
HETATM    2  C   UNK N   1      37.044  11.345  10.673  0.00  0.00     0.012 A 
HETATM    3  C   UNK N   1      36.937  11.954  11.925  0.00  0.00     0.038 A 
HETATM    4  C   UNK N   1      36.238  11.770   9.621  0.00  0.00     0.021 A 
HETATM    5  C   UNK N   1      35.309  12.786   9.826  0.00  0.00     0.031 A 
HETATM    6  C   UNK N   1      35.192  13.406  11.073  0.00  0.00     0.041 A 
HETATM    7  C   UNK N   1      36.035  13.011  12.148  0.00  0.00     0.059 A 
ENDROOT
BRANCH   7   8
HETATM    8  C   UNK N   1      35.961  13.573  13.543  0.00  0.00     0.256 C 
HETATM    9  N   UNK N   1      35.351  12.948  14.607  0.00  0.00    -0.347 N 
HETATM   10  C   UNK N   1      34.502  11.775  14.417  0.00  0.00     0.130 C 
HETATM   11  C   UNK N   1      35.417  13.596  15.916  0.00  0.00     0.130 C 
HETATM   12  C   UNK N   1      34.508  10.779  15.594  0.00  0.00    -0.000 C 
HETATM   13  C   UNK N   1      35.145  11.339  16.862  0.00  0.00     0.011 C 
HETATM   14  C   UNK N   1      35.212   9.493  15.219  0.00  0.00     0.011 C 
HETATM   15  C   UNK N   1      34.763  12.795  17.037  0.00  0.00    -0.000 C 
HETATM   16  C   UNK N   1      35.287  13.292  18.369  0.00  0.00     0.011 C 
HETATM   17  O   UNK N   1      36.451  14.683  13.718  0.00  0.00    -0.267 OA
ENDBRANCH   7   8
BRANCH   6  18
HETATM   18  N   UNK N   1      34.148  14.328  11.251  0.00  0.00    -0.398 N 
HETATM   19  H   UNK N   1      33.211  14.143  11.015  0.00  0.00     0.156 HD
HETATM   20  H   UNK N   1      34.366  15.209  11.633  0.00  0.00     0.156 HD
ENDBRANCH   6  18
TORSDOF 2
ENDMDL
MODEL 6
REMARK VINA RESULT:      -5.6     11.802     13.304
REMARK  2 active torsions:
REMARK  status: ('A' for Active; 'I' for Inactive)
REMARK    1  A    between atoms: C_6  and  N_7 
REMARK    2  A    between atoms: C_8  and  C_9 
REMARK       I    between atoms: C_9  and  N_11 
ROOT
HETATM    1 Br   UNK N   1      24.867  14.954   6.297  0.00  0.00    -0.051 Br
HETATM    2  C   UNK N   1      26.169  16.199   5.679  0.00  0.00     0.012 A 
HETATM    3  C   UNK N   1      27.320  16.447   6.431  0.00  0.00     0.038 A 
HETATM    4  C   UNK N   1      25.963  16.873   4.478  0.00  0.00     0.021 A 
HETATM    5  C   UNK N   1      26.893  17.811   4.042  0.00  0.00     0.031 A 
HETATM    6  C   UNK N   1      28.050  18.069   4.783  0.00  0.00     0.041 A 
HETATM    7  C   UNK N   1      28.295  17.362   5.991  0.00  0.00     0.059 A 
ENDROOT
BRANCH   7   8
HETATM    8  C   UNK N   1      29.479  17.594   6.893  0.00  0.00     0.256 C 
HETATM    9  N   UNK N   1      30.773  17.238   6.591  0.00  0.00    -0.347 N 
HETATM   10  C   UNK N   1      31.082  16.375   5.455  0.00  0.00     0.130 C 
HETATM   11  C   UNK N   1      31.824  17.587   7.547  0.00  0.00     0.130 C 
HETATM   12  C   UNK N   1      32.447  16.646   4.792  0.00  0.00    -0.000 C 
HETATM   13  C   UNK N   1      33.359  17.544   5.621  0.00  0.00     0.011 C 
HETATM   14  C   UNK N   1      32.276  17.257   3.418  0.00  0.00     0.011 C 
HETATM   15  C   UNK N   1      33.228  17.202   7.092  0.00  0.00    -0.000 C 
HETATM   16  C   UNK N   1      34.240  18.003   7.884  0.00  0.00     0.011 C 
HETATM   17  O   UNK N   1      29.251  18.105   7.984  0.00  0.00    -0.267 OA
ENDBRANCH   7   8
BRANCH   6  18
HETATM   18  N   UNK N   1      28.880  19.120   4.358  0.00  0.00    -0.398 N 
HETATM   19  H   UNK N   1      29.650  19.449   4.875  0.00  0.00     0.156 HD
HETATM   20  H   UNK N   1      28.679  19.551   3.496  0.00  0.00     0.156 HD
ENDBRANCH   6  18
TORSDOF 2
ENDMDL
MODEL 7
REMARK VINA RESULT:      -5.6     12.628     13.800
REMARK  2 active torsions:
REMARK  status: ('A' for Active; 'I' for Inactive)
REMARK    1  A    between atoms: C_6  and  N_7 
REMARK    2  A    between atoms: C_8  and  C_9 
REMARK       I    between atoms: C_9  and  N_11 
ROOT
HETATM    1 Br   UNK N   1      24.339  19.410   3.888  0.00  0.00    -0.051 Br
HETATM    2  C   UNK N   1      22.495  19.208   3.453  0.00  0.00     0.012 A 
HETATM    3  C   UNK N   1      21.835  18.007   3.721  0.00  0.00     0.038 A 
HETATM    4  C   UNK N   1      21.810  20.261   2.853  0.00  0.00     0.021 A 
HETATM    5  C   UNK N   1      20.474  20.105   2.498  0.00  0.00     0.031 A 
HETATM    6  C   UNK N   1      19.800  18.909   2.761  0.00  0.00     0.041 A 
HETATM    7  C   UNK N   1      20.473  17.838   3.409  0.00  0.00     0.059 A 
ENDROOT
BRANCH   7   8
HETATM    8  C   UNK N   1      19.862  16.492   3.695  0.00  0.00     0.256 C 
HETATM    9  N   UNK N   1      20.007  15.381   2.896  0.00  0.00    -0.347 N 
HETATM   10  C   UNK N   1      20.579  15.476   1.555  0.00  0.00     0.130 C 
HETATM   11  C   UNK N   1      19.400  14.128   3.342  0.00  0.00     0.130 C 
HETATM   12  C   UNK N   1      21.351  14.224   1.095  0.00  0.00    -0.000 C 
HETATM   13  C   UNK N   1      21.119  13.005   1.981  0.00  0.00     0.011 C 
HETATM   14  C   UNK N   1      22.837  14.496   1.015  0.00  0.00     0.011 C 
HETATM   15  C   UNK N   1      19.669  12.945   2.415  0.00  0.00    -0.000 C 
HETATM   16  C   UNK N   1      19.426  11.658   3.176  0.00  0.00     0.011 C 
HETATM   17  O   UNK N   1      19.158  16.405   4.696  0.00  0.00    -0.267 OA
ENDBRANCH   7   8
BRANCH   6  18
HETATM   18  N   UNK N   1      18.495  18.768   2.260  0.00  0.00    -0.398 N 
HETATM   19  H   UNK N   1      17.717  18.544   2.819  0.00  0.00     0.156 HD
HETATM   20  H   UNK N   1      18.352  18.901   1.294  0.00  0.00     0.156 HD
ENDBRANCH   6  18
TORSDOF 2
ENDMDL
MODEL 8
REMARK VINA RESULT:      -5.6      2.102      2.697
REMARK  2 active torsions:
REMARK  status: ('A' for Active; 'I' for Inactive)
REMARK    1  A    between atoms: C_6  and  N_7 
REMARK    2  A    between atoms: C_8  and  C_9 
REMARK       I    between atoms: C_9  and  N_11 
ROOT
HETATM    1 Br   UNK N   1      27.917  29.153  -6.124  0.00  0.00    -0.051 Br
HETATM    2  C   UNK N   1      27.157  27.411  -6.001  0.00  0.00     0.012 A 
HETATM    3  C   UNK N   1      27.950  26.280  -6.209  0.00  0.00     0.038 A 
HETATM    4  C   UNK N   1      25.802  27.269  -5.716  0.00  0.00     0.021 A 
HETATM    5  C   UNK N   1      25.234  25.999  -5.663  0.00  0.00     0.031 A 
HETATM    6  C   UNK N   1      26.016  24.859  -5.866  0.00  0.00     0.041 A 
HETATM    7  C   UNK N   1      27.409  24.984  -6.120  0.00  0.00     0.059 A 
ENDROOT
BRANCH   7   8
HETATM    8  C   UNK N   1      28.333  23.830  -6.404  0.00  0.00     0.256 C 
HETATM    9  N   UNK N   1      29.234  23.309  -5.504  0.00  0.00    -0.347 N 
HETATM   10  C   UNK N   1      29.544  23.995  -4.252  0.00  0.00     0.130 C 
HETATM   11  C   UNK N   1      30.020  22.145  -5.911  0.00  0.00     0.130 C 
HETATM   12  C   UNK N   1      29.909  23.062  -3.080  0.00  0.00    -0.000 C 
HETATM   13  C   UNK N   1      30.186  21.625  -3.509  0.00  0.00     0.011 C 
HETATM   14  C   UNK N   1      28.825  23.059  -2.025  0.00  0.00     0.011 C 
HETATM   15  C   UNK N   1      30.944  21.610  -4.821  0.00  0.00    -0.000 C 
HETATM   16  C   UNK N   1      31.331  20.185  -5.159  0.00  0.00     0.011 C 
HETATM   17  O   UNK N   1      28.294  23.355  -7.535  0.00  0.00    -0.267 OA
ENDBRANCH   7   8
BRANCH   6  18
HETATM   18  N   UNK N   1      25.360  23.618  -5.932  0.00  0.00    -0.398 N 
HETATM   19  H   UNK N   1      24.688  23.392  -6.615  0.00  0.00     0.156 HD
HETATM   20  H   UNK N   1      25.585  22.937  -5.257  0.00  0.00     0.156 HD
ENDBRANCH   6  18
TORSDOF 2
ENDMDL
MODEL 9
REMARK VINA RESULT:      -5.6     12.710     14.208
REMARK  2 active torsions:
REMARK  status: ('A' for Active; 'I' for Inactive)
REMARK    1  A    between atoms: C_6  and  N_7 
REMARK    2  A    between atoms: C_8  and  C_9 
REMARK       I    between atoms: C_9  and  N_11 
ROOT
HETATM    1 Br   UNK N   1      27.175  19.511   4.367  0.00  0.00    -0.051 Br
HETATM    2  C   UNK N   1      28.186  18.792   5.813  0.00  0.00     0.012 A 
HETATM    3  C   UNK N   1      29.088  17.749   5.592  0.00  0.00     0.038 A 
HETATM    4  C   UNK N   1      28.012  19.304   7.096  0.00  0.00     0.021 A 
HETATM    5  C   UNK N   1      28.720  18.756   8.161  0.00  0.00     0.031 A 
HETATM    6  C   UNK N   1      29.627  17.713   7.956  0.00  0.00     0.041 A 
HETATM    7  C   UNK N   1      29.846  17.205   6.646  0.00  0.00     0.059 A 
ENDROOT
BRANCH   7   8
HETATM    8  C   UNK N   1      30.758  16.053   6.317  0.00  0.00     0.256 C 
HETATM    9  N   UNK N   1      32.130  16.138   6.244  0.00  0.00    -0.347 N 
HETATM   10  C   UNK N   1      32.815  17.427   6.245  0.00  0.00     0.130 C 
HETATM   11  C   UNK N   1      32.882  14.914   5.972  0.00  0.00     0.130 C 
HETATM   12  C   UNK N   1      34.215  17.412   6.892  0.00  0.00    -0.000 C 
HETATM   13  C   UNK N   1      34.760  16.008   7.130  0.00  0.00     0.011 C 
HETATM   14  C   UNK N   1      34.220  18.169   8.201  0.00  0.00     0.011 C 
HETATM   15  C   UNK N   1      34.396  15.104   5.970  0.00  0.00    -0.000 C 
HETATM   16  C   UNK N   1      35.062  13.757   6.157  0.00  0.00     0.011 C 
HETATM   17  O   UNK N   1      30.223  14.979   6.063  0.00  0.00    -0.267 OA
ENDBRANCH   7   8
BRANCH   6  18
HETATM   18  N   UNK N   1      30.208  17.117   9.087  0.00  0.00    -0.398 N 
HETATM   19  H   UNK N   1      29.747  17.022   9.951  0.00  0.00     0.156 HD
HETATM   20  H   UNK N   1      31.129  16.776   9.011  0.00  0.00     0.156 HD
ENDBRANCH   6  18
TORSDOF 2
ENDMDL
