REMARK  2 active torsions:
REMARK  status: ('A' for Active; 'I' for Inactive)
REMARK    1  A    between atoms: C_6  and  N_7 
REMARK    2  A    between atoms: C_8  and  C_9 
REMARK       I    between atoms: C_9  and  N_11 
ROOT
HETATM    1 Br   UNK N   1       0.549   6.210  -0.924  0.00  0.00    -0.051 Br
HETATM    2  C   UNK N   1       0.673   4.352  -0.521  0.00  0.00     0.012 A 
HETATM    3  C   UNK N   1      -0.483   3.601  -0.298  0.00  0.00     0.038 A 
HETATM    4  C   UNK N   1       1.924   3.748  -0.436  0.00  0.00     0.021 A 
HETATM    5  C   UNK N   1       2.021   2.400  -0.104  0.00  0.00     0.031 A 
HETATM    6  C   UNK N   1       0.873   1.635   0.120  0.00  0.00     0.041 A 
HETATM    7  C   UNK N   1      -0.414   2.227  -0.001  0.00  0.00     0.059 A 
ENDROOT
BRANCH   7   8
HETATM    8  C   UNK N   1      -1.712   1.513   0.267  0.00  0.00     0.256 C 
HETATM    9  N   UNK N   1      -1.956   0.193  -0.037  0.00  0.00    -0.347 N 
HETATM   10  C   UNK N   1      -1.043  -0.577  -0.877  0.00  0.00     0.130 C 
HETATM   11  C   UNK N   1      -3.250  -0.373   0.342  0.00  0.00     0.130 C 
HETATM   12  C   UNK N   1      -0.980  -2.082  -0.548  0.00  0.00    -0.000 C 
HETATM   13  C   UNK N   1      -2.100  -2.551   0.375  0.00  0.00     0.011 C 
HETATM   14  C   UNK N   1       0.351  -2.452   0.069  0.00  0.00     0.011 C 
HETATM   15  C   UNK N   1      -3.397  -1.856   0.014  0.00  0.00    -0.000 C 
HETATM   16  C   UNK N   1      -4.523  -2.435   0.845  0.00  0.00     0.011 C 
HETATM   17  O   UNK N   1      -2.618   2.178   0.758  0.00  0.00    -0.267 OA
ENDBRANCH   7   8
BRANCH   6  18
HETATM   18  N   UNK N   1       1.042   0.319   0.581  0.00  0.00    -0.398 N 
HETATM   19  H   UNK N   1       0.303  -0.245   0.904  0.00  0.00     0.156 HD
HETATM   20  H   UNK N   1       1.951  -0.060   0.581  0.00  0.00     0.156 HD
ENDBRANCH   6  18
TORSDOF 2
