MODEL 1
REMARK VINA RESULT:      -7.4      0.000      0.000
REMARK  4 active torsions:
REMARK  status: ('A' for Active; 'I' for Inactive)
REMARK    1  A    between atoms: C_8  and  C_7 
REMARK    2  A    between atoms: C_9  and  C_8 
REMARK       I    between atoms: C_14  and  N_13 
REMARK    3  A    between atoms: C_14  and  C_16 
REMARK    4  A    between atoms: C_17  and  N_18 
ROOT
HETATM    1  C   UNK N   1      29.783  23.638  -2.916  0.00  0.00     0.091 C 
HETATM    2  C   UNK N   1      31.189  23.890  -3.447  0.00  0.00     0.027 C 
HETATM    3  C   UNK N   1      31.101  25.031  -4.449  0.00  0.00     0.022 C 
HETATM    4  C   UNK N   1      29.631  25.341  -4.627  0.00  0.00     0.127 C 
HETATM    5  N   UNK N   1      28.938  24.569  -3.634  0.00  0.00    -0.343 N 
HETATM    6  C   UNK N   1      27.582  24.660  -3.412  0.00  0.00     0.256 C 
HETATM    7  O   UNK N   1      27.057  23.843  -2.662  0.00  0.00    -0.267 OA
ENDROOT
BRANCH   1   8
HETATM    8  C   UNK N   1      29.384  22.179  -3.202  0.00  0.00     0.065 C 
BRANCH   8   9
HETATM    9  C   UNK N   1      30.263  21.456  -4.195  0.00  0.00    -0.035 A 
HETATM   10  C   UNK N   1      29.972  21.496  -5.573  0.00  0.00     0.040 A 
HETATM   11 Cl   UNK N   1      28.575  22.366  -6.188  0.00  0.00    -0.084 Cl
HETATM   12  C   UNK N   1      30.820  20.857  -6.486  0.00  0.00     0.024 A 
HETATM   13  C   UNK N   1      31.952  20.172  -6.039  0.00  0.00     0.002 A 
HETATM   14  C   UNK N   1      32.246  20.128  -4.675  0.00  0.00     0.001 A 
HETATM   15  C   UNK N   1      31.410  20.773  -3.760  0.00  0.00     0.009 A 
ENDBRANCH   8   9
ENDBRANCH   1   8
BRANCH   6  16
HETATM   16  C   UNK N   1      26.676  25.680  -4.055  0.00  0.00     0.059 A 
HETATM   17  C   UNK N   1      25.689  25.400  -5.048  0.00  0.00     0.041 A 
HETATM   18  C   UNK N   1      24.935  26.442  -5.599  0.00  0.00     0.031 A 
HETATM   19  C   UNK N   1      25.138  27.759  -5.197  0.00  0.00     0.021 A 
HETATM   20  C   UNK N   1      26.118  28.054  -4.254  0.00  0.00     0.012 A 
HETATM   21  C   UNK N   1      26.882  27.026  -3.696  0.00  0.00     0.038 A 
HETATM   22 Br   UNK N   1      26.423  29.861  -3.737  0.00  0.00    -0.051 Br
BRANCH  17  23
HETATM   23  N   UNK N   1      25.515  24.113  -5.591  0.00  0.00    -0.398 N 
HETATM   24  H   UNK N   1      25.156  23.377  -5.044  0.00  0.00     0.156 HD
HETATM   25  H   UNK N   1      25.754  23.946  -6.531  0.00  0.00     0.156 HD
ENDBRANCH  17  23
ENDBRANCH   6  16
TORSDOF 4
ENDMDL
MODEL 2
REMARK VINA RESULT:      -6.8      1.664      1.919
REMARK  4 active torsions:
REMARK  status: ('A' for Active; 'I' for Inactive)
REMARK    1  A    between atoms: C_8  and  C_7 
REMARK    2  A    between atoms: C_9  and  C_8 
REMARK       I    between atoms: C_14  and  N_13 
REMARK    3  A    between atoms: C_14  and  C_16 
REMARK    4  A    between atoms: C_17  and  N_18 
ROOT
HETATM    1  C   UNK N   1      29.796  23.817  -2.866  0.00  0.00     0.091 C 
HETATM    2  C   UNK N   1      31.241  24.055  -3.284  0.00  0.00     0.027 C 
HETATM    3  C   UNK N   1      31.229  25.098  -4.392  0.00  0.00     0.022 C 
HETATM    4  C   UNK N   1      29.778  25.352  -4.734  0.00  0.00     0.127 C 
HETATM    5  N   UNK N   1      29.007  24.656  -3.743  0.00  0.00    -0.343 N 
HETATM    6  C   UNK N   1      27.635  24.732  -3.657  0.00  0.00     0.256 C 
HETATM    7  O   UNK N   1      27.056  23.973  -2.887  0.00  0.00    -0.267 OA
ENDROOT
BRANCH   1   8
HETATM    8  C   UNK N   1      29.451  22.328  -3.050  0.00  0.00     0.065 C 
BRANCH   8   9
HETATM    9  C   UNK N   1      30.367  21.567  -3.980  0.00  0.00    -0.035 A 
HETATM   10  C   UNK N   1      30.092  21.499  -5.361  0.00  0.00     0.040 A 
HETATM   11 Cl   UNK N   1      28.673  22.272  -6.051  0.00  0.00    -0.084 Cl
HETATM   12  C   UNK N   1      30.973  20.827  -6.217  0.00  0.00     0.024 A 
HETATM   13  C   UNK N   1      32.123  20.216  -5.711  0.00  0.00     0.002 A 
HETATM   14  C   UNK N   1      32.400  20.280  -4.344  0.00  0.00     0.001 A 
HETATM   15  C   UNK N   1      31.532  20.958  -3.486  0.00  0.00     0.009 A 
ENDBRANCH   8   9
ENDBRANCH   1   8
BRANCH   6  16
HETATM   16  C   UNK N   1      26.776  25.665  -4.474  0.00  0.00     0.059 A 
HETATM   17  C   UNK N   1      26.086  26.808  -3.968  0.00  0.00     0.041 A 
HETATM   18  C   UNK N   1      25.285  27.575  -4.820  0.00  0.00     0.031 A 
HETATM   19  C   UNK N   1      25.143  27.237  -6.163  0.00  0.00     0.021 A 
HETATM   20  C   UNK N   1      25.782  26.107  -6.664  0.00  0.00     0.012 A 
HETATM   21  C   UNK N   1      26.583  25.328  -5.827  0.00  0.00     0.038 A 
HETATM   22 Br   UNK N   1      25.552  25.621  -8.491  0.00  0.00    -0.051 Br
BRANCH  17  23
HETATM   23  N   UNK N   1      26.083  27.138  -2.599  0.00  0.00    -0.398 N 
HETATM   24  H   UNK N   1      25.258  27.072  -2.065  0.00  0.00     0.156 HD
HETATM   25  H   UNK N   1      26.915  27.440  -2.171  0.00  0.00     0.156 HD
ENDBRANCH  17  23
ENDBRANCH   6  16
TORSDOF 4
ENDMDL
MODEL 3
REMARK VINA RESULT:      -6.8     20.950     23.315
REMARK  4 active torsions:
REMARK  status: ('A' for Active; 'I' for Inactive)
REMARK    1  A    between atoms: C_8  and  C_7 
REMARK    2  A    between atoms: C_9  and  C_8 
REMARK       I    between atoms: C_14  and  N_13 
REMARK    3  A    between atoms: C_14  and  C_16 
REMARK    4  A    between atoms: C_17  and  N_18 
ROOT
HETATM    1  C   UNK N   1      36.651  11.922  14.640  0.00  0.00     0.091 C 
HETATM    2  C   UNK N   1      37.597  10.735  14.776  0.00  0.00     0.027 C 
HETATM    3  C   UNK N   1      37.976  10.291  13.372  0.00  0.00     0.022 C 
HETATM    4  C   UNK N   1      37.133  11.106  12.416  0.00  0.00     0.127 C 
HETATM    5  N   UNK N   1      36.470  12.097  13.215  0.00  0.00    -0.343 N 
HETATM    6  C   UNK N   1      35.687  13.099  12.687  0.00  0.00     0.256 C 
HETATM    7  O   UNK N   1      35.030  13.793  13.455  0.00  0.00    -0.267 OA
ENDROOT
BRANCH   1   8
HETATM    8  C   UNK N   1      35.320  11.595  15.342  0.00  0.00     0.065 C 
BRANCH   8   9
HETATM    9  C   UNK N   1      35.258  11.964  16.805  0.00  0.00    -0.035 A 
HETATM   10  C   UNK N   1      35.313  10.967  17.800  0.00  0.00     0.040 A 
HETATM   11 Cl   UNK N   1      35.435   9.265  17.384  0.00  0.00    -0.084 Cl
HETATM   12  C   UNK N   1      35.298  11.328  19.153  0.00  0.00     0.024 A 
HETATM   13  C   UNK N   1      35.223  12.672  19.525  0.00  0.00     0.002 A 
HETATM   14  C   UNK N   1      35.167  13.664  18.545  0.00  0.00     0.001 A 
HETATM   15  C   UNK N   1      35.193  13.312  17.193  0.00  0.00     0.009 A 
ENDBRANCH   8   9
ENDBRANCH   1   8
BRANCH   6  16
HETATM   16  C   UNK N   1      35.548  13.390  11.213  0.00  0.00     0.059 A 
HETATM   17  C   UNK N   1      36.045  14.553  10.550  0.00  0.00     0.041 A 
HETATM   18  C   UNK N   1      35.817  14.728   9.181  0.00  0.00     0.031 A 
HETATM   19  C   UNK N   1      35.101  13.785   8.450  0.00  0.00     0.021 A 
HETATM   20  C   UNK N   1      34.581  12.662   9.087  0.00  0.00     0.012 A 
HETATM   21  C   UNK N   1      34.797  12.473  10.454  0.00  0.00     0.038 A 
HETATM   22 Br   UNK N   1      33.565  11.394   8.094  0.00  0.00    -0.051 Br
BRANCH  17  23
HETATM   23  N   UNK N   1      36.668  15.606  11.246  0.00  0.00    -0.398 N 
HETATM   24  H   UNK N   1      37.337  16.179  10.804  0.00  0.00     0.156 HD
HETATM   25  H   UNK N   1      36.432  15.772  12.187  0.00  0.00     0.156 HD
ENDBRANCH  17  23
ENDBRANCH   6  16
TORSDOF 4
ENDMDL
MODEL 4
REMARK VINA RESULT:      -6.8     15.213     17.851
REMARK  4 active torsions:
REMARK  status: ('A' for Active; 'I' for Inactive)
REMARK    1  A    between atoms: C_8  and  C_7 
REMARK    2  A    between atoms: C_9  and  C_8 
REMARK       I    between atoms: C_14  and  N_13 
REMARK    3  A    between atoms: C_14  and  C_16 
REMARK    4  A    between atoms: C_17  and  N_18 
ROOT
HETATM    1  C   UNK N   1      32.772  16.583   7.940  0.00  0.00     0.091 C 
HETATM    2  C   UNK N   1      33.102  18.033   7.612  0.00  0.00     0.027 C 
HETATM    3  C   UNK N   1      34.428  18.362   8.281  0.00  0.00     0.022 C 
HETATM    4  C   UNK N   1      34.794  17.165   9.131  0.00  0.00     0.127 C 
HETATM    5  N   UNK N   1      33.846  16.138   8.803  0.00  0.00    -0.343 N 
HETATM    6  C   UNK N   1      33.913  14.856   9.299  0.00  0.00     0.256 C 
HETATM    7  O   UNK N   1      32.968  14.101   9.096  0.00  0.00    -0.267 OA
ENDROOT
BRANCH   1   8
HETATM    8  C   UNK N   1      31.410  16.521   8.657  0.00  0.00     0.065 C 
BRANCH   8   9
HETATM    9  C   UNK N   1      30.245  17.071   7.870  0.00  0.00    -0.035 A 
HETATM   10  C   UNK N   1      29.469  18.130   8.382  0.00  0.00     0.040 A 
HETATM   11 Cl   UNK N   1      29.809  18.837   9.953  0.00  0.00    -0.084 Cl
HETATM   12  C   UNK N   1      28.418  18.659   7.622  0.00  0.00     0.024 A 
HETATM   13  C   UNK N   1      28.128  18.138   6.359  0.00  0.00     0.002 A 
HETATM   14  C   UNK N   1      28.892  17.088   5.846  0.00  0.00     0.001 A 
HETATM   15  C   UNK N   1      29.949  16.564   6.594  0.00  0.00     0.009 A 
ENDBRANCH   8   9
ENDBRANCH   1   8
BRANCH   6  16
HETATM   16  C   UNK N   1      35.060  14.312  10.114  0.00  0.00     0.059 A 
HETATM   17  C   UNK N   1      36.320  13.891   9.590  0.00  0.00     0.041 A 
HETATM   18  C   UNK N   1      37.293  13.365  10.446  0.00  0.00     0.031 A 
HETATM   19  C   UNK N   1      37.050  13.237  11.810  0.00  0.00     0.021 A 
HETATM   20  C   UNK N   1      35.815  13.611  12.332  0.00  0.00     0.012 A 
HETATM   21  C   UNK N   1      34.831  14.135  11.492  0.00  0.00     0.038 A 
HETATM   22 Br   UNK N   1      35.468  13.394  14.192  0.00  0.00    -0.051 Br
BRANCH  17  23
HETATM   23  N   UNK N   1      36.591  13.876   8.208  0.00  0.00    -0.398 N 
HETATM   24  H   UNK N   1      36.525  13.041   7.689  0.00  0.00     0.156 HD
HETATM   25  H   UNK N   1      36.850  14.710   7.755  0.00  0.00     0.156 HD
ENDBRANCH  17  23
ENDBRANCH   6  16
TORSDOF 4
ENDMDL
MODEL 5
REMARK VINA RESULT:      -6.7     17.499     19.695
REMARK  4 active torsions:
REMARK  status: ('A' for Active; 'I' for Inactive)
REMARK    1  A    between atoms: C_8  and  C_7 
REMARK    2  A    between atoms: C_9  and  C_8 
REMARK       I    between atoms: C_14  and  N_13 
REMARK    3  A    between atoms: C_14  and  C_16 
REMARK    4  A    between atoms: C_17  and  N_18 
ROOT
HETATM    1  C   UNK N   1      36.388  13.656  11.392  0.00  0.00     0.091 C 
HETATM    2  C   UNK N   1      37.746  13.114  10.966  0.00  0.00     0.027 C 
HETATM    3  C   UNK N   1      37.969  13.529   9.519  0.00  0.00     0.022 C 
HETATM    4  C   UNK N   1      36.682  14.170   9.048  0.00  0.00     0.127 C 
HETATM    5  N   UNK N   1      35.853  14.302  10.212  0.00  0.00    -0.343 N 
HETATM    6  C   UNK N   1      34.633  14.939  10.206  0.00  0.00     0.256 C 
HETATM    7  O   UNK N   1      33.925  14.855  11.205  0.00  0.00    -0.267 OA
ENDROOT
BRANCH   1   8
HETATM    8  C   UNK N   1      35.494  12.489  11.850  0.00  0.00     0.065 C 
BRANCH   8   9
HETATM    9  C   UNK N   1      35.223  12.432  13.335  0.00  0.00    -0.035 A 
HETATM   10  C   UNK N   1      34.408  11.418  13.877  0.00  0.00     0.040 A 
HETATM   11 Cl   UNK N   1      33.663  10.199  12.855  0.00  0.00    -0.084 Cl
HETATM   12  C   UNK N   1      34.202  11.352  15.261  0.00  0.00     0.024 A 
HETATM   13  C   UNK N   1      34.794  12.290  16.109  0.00  0.00     0.002 A 
HETATM   14  C   UNK N   1      35.602  13.297  15.578  0.00  0.00     0.001 A 
HETATM   15  C   UNK N   1      35.821  13.362  14.200  0.00  0.00     0.009 A 
ENDBRANCH   8   9
ENDBRANCH   1   8
BRANCH   6  16
HETATM   16  C   UNK N   1      34.077  15.715   9.038  0.00  0.00     0.059 A 
HETATM   17  C   UNK N   1      34.365  17.082   8.741  0.00  0.00     0.041 A 
HETATM   18  C   UNK N   1      33.754  17.704   7.648  0.00  0.00     0.031 A 
HETATM   19  C   UNK N   1      32.856  17.010   6.842  0.00  0.00     0.021 A 
HETATM   20  C   UNK N   1      32.538  15.688   7.137  0.00  0.00     0.012 A 
HETATM   21  C   UNK N   1      33.137  15.052   8.226  0.00  0.00     0.038 A 
HETATM   22 Br   UNK N   1      31.277  14.753   6.059  0.00  0.00    -0.051 Br
BRANCH  17  23
HETATM   23  N   UNK N   1      35.165  17.880   9.581  0.00  0.00    -0.398 N 
HETATM   24  H   UNK N   1      36.003  17.532   9.962  0.00  0.00     0.156 HD
HETATM   25  H   UNK N   1      34.882  18.799   9.791  0.00  0.00     0.156 HD
ENDBRANCH  17  23
ENDBRANCH   6  16
TORSDOF 4
ENDMDL
MODEL 6
REMARK VINA RESULT:      -6.6     11.572     13.577
REMARK  4 active torsions:
REMARK  status: ('A' for Active; 'I' for Inactive)
REMARK    1  A    between atoms: C_8  and  C_7 
REMARK    2  A    between atoms: C_9  and  C_8 
REMARK       I    between atoms: C_14  and  N_13 
REMARK    3  A    between atoms: C_14  and  C_16 
REMARK    4  A    between atoms: C_17  and  N_18 
ROOT
HETATM    1  C   UNK N   1      26.240  17.889   4.309  0.00  0.00     0.091 C 
HETATM    2  C   UNK N   1      26.027  19.173   3.517  0.00  0.00     0.027 C 
HETATM    3  C   UNK N   1      27.017  20.202   4.042  0.00  0.00     0.022 C 
HETATM    4  C   UNK N   1      27.695  19.579   5.242  0.00  0.00     0.127 C 
HETATM    5  N   UNK N   1      27.272  18.208   5.273  0.00  0.00    -0.343 N 
HETATM    6  C   UNK N   1      27.760  17.282   6.168  0.00  0.00     0.256 C 
HETATM    7  O   UNK N   1      27.217  16.184   6.225  0.00  0.00    -0.267 OA
ENDROOT
BRANCH   1   8
HETATM    8  C   UNK N   1      24.923  17.494   5.002  0.00  0.00     0.065 C 
BRANCH   8   9
HETATM    9  C   UNK N   1      23.962  16.700   4.150  0.00  0.00    -0.035 A 
HETATM   10  C   UNK N   1      22.605  17.072   4.064  0.00  0.00     0.040 A 
HETATM   11 Cl   UNK N   1      21.975  18.450   4.952  0.00  0.00    -0.084 Cl
HETATM   12  C   UNK N   1      21.734  16.353   3.235  0.00  0.00     0.024 A 
HETATM   13  C   UNK N   1      22.200  15.263   2.497  0.00  0.00     0.002 A 
HETATM   14  C   UNK N   1      23.543  14.889   2.579  0.00  0.00     0.001 A 
HETATM   15  C   UNK N   1      24.419  15.610   3.394  0.00  0.00     0.009 A 
ENDBRANCH   8   9
ENDBRANCH   1   8
BRANCH   6  16
HETATM   16  C   UNK N   1      28.903  17.531   7.119  0.00  0.00     0.059 A 
HETATM   17  C   UNK N   1      28.786  18.109   8.420  0.00  0.00     0.041 A 
HETATM   18  C   UNK N   1      29.930  18.327   9.194  0.00  0.00     0.031 A 
HETATM   19  C   UNK N   1      31.192  17.994   8.712  0.00  0.00     0.021 A 
HETATM   20  C   UNK N   1      31.328  17.460   7.434  0.00  0.00     0.012 A 
HETATM   21  C   UNK N   1      30.197  17.239   6.646  0.00  0.00     0.038 A 
HETATM   22 Br   UNK N   1      33.060  17.045   6.759  0.00  0.00    -0.051 Br
BRANCH  17  23
HETATM   23  N   UNK N   1      27.560  18.584   8.922  0.00  0.00    -0.398 N 
HETATM   24  H   UNK N   1      27.011  19.216   8.403  0.00  0.00     0.156 HD
HETATM   25  H   UNK N   1      27.246  18.281   9.804  0.00  0.00     0.156 HD
ENDBRANCH  17  23
ENDBRANCH   6  16
TORSDOF 4
ENDMDL
MODEL 7
REMARK VINA RESULT:      -6.6     21.539     23.928
REMARK  4 active torsions:
REMARK  status: ('A' for Active; 'I' for Inactive)
REMARK    1  A    between atoms: C_8  and  C_7 
REMARK    2  A    between atoms: C_9  and  C_8 
REMARK       I    between atoms: C_14  and  N_13 
REMARK    3  A    between atoms: C_14  and  C_16 
REMARK    4  A    between atoms: C_17  and  N_18 
ROOT
HETATM    1  C   UNK N   1      35.947  10.223  14.713  0.00  0.00     0.091 C 
HETATM    2  C   UNK N   1      34.577   9.896  15.292  0.00  0.00     0.027 C 
HETATM    3  C   UNK N   1      33.556  10.754  14.560  0.00  0.00     0.022 C 
HETATM    4  C   UNK N   1      34.338  11.695  13.670  0.00  0.00     0.127 C 
HETATM    5  N   UNK N   1      35.704  11.261  13.733  0.00  0.00    -0.343 N 
HETATM    6  C   UNK N   1      36.712  11.809  12.972  0.00  0.00     0.256 C 
HETATM    7  O   UNK N   1      37.870  11.488  13.217  0.00  0.00    -0.267 OA
ENDROOT
BRANCH   1   8
HETATM    8  C   UNK N   1      36.872  10.717  15.841  0.00  0.00     0.065 C 
BRANCH   8   9
HETATM    9  C   UNK N   1      36.184  11.486  16.944  0.00  0.00    -0.035 A 
HETATM   10  C   UNK N   1      36.005  10.909  18.217  0.00  0.00     0.040 A 
HETATM   11 Cl   UNK N   1      36.550   9.276  18.567  0.00  0.00    -0.084 Cl
HETATM   12  C   UNK N   1      35.404  11.650  19.243  0.00  0.00     0.024 A 
HETATM   13  C   UNK N   1      34.975  12.959  19.011  0.00  0.00     0.002 A 
HETATM   14  C   UNK N   1      35.150  13.536  17.752  0.00  0.00     0.001 A 
HETATM   15  C   UNK N   1      35.758  12.806  16.728  0.00  0.00     0.009 A 
ENDBRANCH   8   9
ENDBRANCH   1   8
BRANCH   6  16
HETATM   16  C   UNK N   1      36.500  12.815  11.868  0.00  0.00     0.059 A 
HETATM   17  C   UNK N   1      36.420  14.230  12.042  0.00  0.00     0.041 A 
HETATM   18  C   UNK N   1      36.180  15.058  10.941  0.00  0.00     0.031 A 
HETATM   19  C   UNK N   1      36.008  14.521   9.668  0.00  0.00     0.021 A 
HETATM   20  C   UNK N   1      36.048  13.142   9.486  0.00  0.00     0.012 A 
HETATM   21  C   UNK N   1      36.285  12.300  10.575  0.00  0.00     0.038 A 
HETATM   22 Br   UNK N   1      35.769  12.406   7.752  0.00  0.00    -0.051 Br
BRANCH  17  23
HETATM   23  N   UNK N   1      36.461  14.833  13.313  0.00  0.00    -0.398 N 
HETATM   24  H   UNK N   1      37.034  14.470  14.028  0.00  0.00     0.156 HD
HETATM   25  H   UNK N   1      35.910  15.629  13.491  0.00  0.00     0.156 HD
ENDBRANCH  17  23
ENDBRANCH   6  16
TORSDOF 4
ENDMDL
MODEL 8
REMARK VINA RESULT:      -6.6     14.783     17.436
REMARK  4 active torsions:
REMARK  status: ('A' for Active; 'I' for Inactive)
REMARK    1  A    between atoms: C_8  and  C_7 
REMARK    2  A    between atoms: C_9  and  C_8 
REMARK       I    between atoms: C_14  and  N_13 
REMARK    3  A    between atoms: C_14  and  C_16 
REMARK    4  A    between atoms: C_17  and  N_18 
ROOT
HETATM    1  C   UNK N   1      32.613  15.710   6.742  0.00  0.00     0.091 C 
HETATM    2  C   UNK N   1      33.394  15.814   5.438  0.00  0.00     0.027 C 
HETATM    3  C   UNK N   1      34.855  15.541   5.758  0.00  0.00     0.022 C 
HETATM    4  C   UNK N   1      34.958  15.436   7.264  0.00  0.00     0.127 C 
HETATM    5  N   UNK N   1      33.610  15.440   7.757  0.00  0.00    -0.343 N 
HETATM    6  C   UNK N   1      33.285  15.256   9.082  0.00  0.00     0.256 C 
HETATM    7  O   UNK N   1      32.124  15.443   9.429  0.00  0.00    -0.267 OA
ENDROOT
BRANCH   1   8
HETATM    8  C   UNK N   1      31.884  17.039   7.007  0.00  0.00     0.065 C 
BRANCH   8   9
HETATM    9  C   UNK N   1      30.375  16.961   6.976  0.00  0.00    -0.035 A 
HETATM   10  C   UNK N   1      29.600  17.698   7.895  0.00  0.00     0.040 A 
HETATM   11 Cl   UNK N   1      30.349  18.713   9.117  0.00  0.00    -0.084 Cl
HETATM   12  C   UNK N   1      28.202  17.649   7.826  0.00  0.00     0.024 A 
HETATM   13  C   UNK N   1      27.569  16.870   6.856  0.00  0.00     0.002 A 
HETATM   14  C   UNK N   1      28.331  16.138   5.944  0.00  0.00     0.001 A 
HETATM   15  C   UNK N   1      29.726  16.191   5.999  0.00  0.00     0.009 A 
ENDBRANCH   8   9
ENDBRANCH   1   8
BRANCH   6  16
HETATM   16  C   UNK N   1      34.268  14.871  10.159  0.00  0.00     0.059 A 
HETATM   17  C   UNK N   1      35.052  15.784  10.927  0.00  0.00     0.041 A 
HETATM   18  C   UNK N   1      35.962  15.299  11.873  0.00  0.00     0.031 A 
HETATM   19  C   UNK N   1      36.123  13.932  12.074  0.00  0.00     0.021 A 
HETATM   20  C   UNK N   1      35.391  13.028  11.311  0.00  0.00     0.012 A 
HETATM   21  C   UNK N   1      34.480  13.494  10.360  0.00  0.00     0.038 A 
HETATM   22 Br   UNK N   1      35.643  11.156  11.556  0.00  0.00    -0.051 Br
BRANCH  17  23
HETATM   23  N   UNK N   1      35.034  17.171  10.693  0.00  0.00    -0.398 N 
HETATM   24  H   UNK N   1      34.596  17.544   9.892  0.00  0.00     0.156 HD
HETATM   25  H   UNK N   1      35.464  17.779  11.337  0.00  0.00     0.156 HD
ENDBRANCH  17  23
ENDBRANCH   6  16
TORSDOF 4
ENDMDL
MODEL 9
REMARK VINA RESULT:      -6.5     11.323     13.630
REMARK  4 active torsions:
REMARK  status: ('A' for Active; 'I' for Inactive)
REMARK    1  A    between atoms: C_8  and  C_7 
REMARK    2  A    between atoms: C_9  and  C_8 
REMARK       I    between atoms: C_14  and  N_13 
REMARK    3  A    between atoms: C_14  and  C_16 
REMARK    4  A    between atoms: C_17  and  N_18 
ROOT
HETATM    1  C   UNK N   1      25.733  16.669   5.124  0.00  0.00     0.091 C 
HETATM    2  C   UNK N   1      25.423  15.231   4.732  0.00  0.00     0.027 C 
HETATM    3  C   UNK N   1      26.557  14.361   5.253  0.00  0.00     0.022 C 
HETATM    4  C   UNK N   1      27.606  15.300   5.806  0.00  0.00     0.127 C 
HETATM    5  N   UNK N   1      27.017  16.609   5.792  0.00  0.00    -0.343 N 
HETATM    6  C   UNK N   1      27.630  17.723   6.318  0.00  0.00     0.256 C 
HETATM    7  O   UNK N   1      27.124  18.821   6.110  0.00  0.00    -0.267 OA
ENDROOT
BRANCH   1   8
HETATM    8  C   UNK N   1      25.798  17.540   3.856  0.00  0.00     0.065 C 
BRANCH   8   9
HETATM    9  C   UNK N   1      24.606  18.441   3.635  0.00  0.00    -0.035 A 
HETATM   10  C   UNK N   1      24.784  19.787   3.255  0.00  0.00     0.040 A 
HETATM   11 Cl   UNK N   1      26.388  20.473   3.044  0.00  0.00    -0.084 Cl
HETATM   12  C   UNK N   1      23.670  20.598   3.011  0.00  0.00     0.024 A 
HETATM   13  C   UNK N   1      22.378  20.084   3.147  0.00  0.00     0.002 A 
HETATM   14  C   UNK N   1      22.195  18.752   3.524  0.00  0.00     0.001 A 
HETATM   15  C   UNK N   1      23.303  17.934   3.758  0.00  0.00     0.009 A 
ENDBRANCH   8   9
ENDBRANCH   1   8
BRANCH   6  16
HETATM   16  C   UNK N   1      28.912  17.701   7.113  0.00  0.00     0.059 A 
HETATM   17  C   UNK N   1      29.033  18.031   8.496  0.00  0.00     0.041 A 
HETATM   18  C   UNK N   1      30.288  18.011   9.113  0.00  0.00     0.031 A 
HETATM   19  C   UNK N   1      31.432  17.679   8.393  0.00  0.00     0.021 A 
HETATM   20  C   UNK N   1      31.337  17.387   7.036  0.00  0.00     0.012 A 
HETATM   21  C   UNK N   1      30.092  17.405   6.404  0.00  0.00     0.038 A 
HETATM   22 Br   UNK N   1      32.908  16.975   6.043  0.00  0.00    -0.051 Br
BRANCH  17  23
HETATM   23  N   UNK N   1      27.942  18.495   9.255  0.00  0.00    -0.398 N 
HETATM   24  H   UNK N   1      28.022  19.301   9.817  0.00  0.00     0.156 HD
HETATM   25  H   UNK N   1      27.087  18.009   9.225  0.00  0.00     0.156 HD
ENDBRANCH  17  23
ENDBRANCH   6  16
TORSDOF 4
ENDMDL
