REMARK  4 active torsions:
REMARK  status: ('A' for Active; 'I' for Inactive)
REMARK    1  A    between atoms: C_8  and  C_7 
REMARK    2  A    between atoms: C_9  and  C_8 
REMARK       I    between atoms: C_14  and  N_13 
REMARK    3  A    between atoms: C_14  and  C_16 
REMARK    4  A    between atoms: C_17  and  N_18 
ROOT
HETATM    1  C   UNK N   1       0.853   0.967  -0.132  0.00  0.00     0.091 C 
HETATM    2  C   UNK N   1       1.935   1.804   0.538  0.00  0.00     0.027 C 
HETATM    3  C   UNK N   1       2.967   0.843   1.109  0.00  0.00     0.022 C 
HETATM    4  C   UNK N   1       2.414  -0.552   0.918  0.00  0.00     0.127 C 
HETATM    5  N   UNK N   1       1.241  -0.408   0.103  0.00  0.00    -0.343 N 
HETATM    6  C   UNK N   1       0.513  -1.474  -0.375  0.00  0.00     0.256 C 
HETATM    7  O   UNK N   1      -0.563  -1.249  -0.919  0.00  0.00    -0.267 OA
ENDROOT
BRANCH   1   8
HETATM    8  C   UNK N   1      -0.509   1.286   0.511  0.00  0.00     0.065 C 
BRANCH   8   9
HETATM    9  C   UNK N   1      -1.085   2.637   0.158  0.00  0.00    -0.035 A 
HETATM   10  C   UNK N   1      -2.428   2.760  -0.252  0.00  0.00     0.040 A 
HETATM   11 Cl   UNK N   1      -3.475   1.356  -0.388  0.00  0.00    -0.084 Cl
HETATM   12  C   UNK N   1      -2.960   4.024  -0.534  0.00  0.00     0.024 A 
HETATM   13  C   UNK N   1      -2.166   5.167  -0.418  0.00  0.00     0.002 A 
HETATM   14  C   UNK N   1      -0.835   5.052  -0.013  0.00  0.00     0.001 A 
HETATM   15  C   UNK N   1      -0.301   3.795   0.281  0.00  0.00     0.009 A 
ENDBRANCH   8   9
ENDBRANCH   1   8
BRANCH   6  16
HETATM   16  C   UNK N   1       0.927  -2.919  -0.249  0.00  0.00     0.059 A 
HETATM   17  C   UNK N   1       2.271  -3.400  -0.284  0.00  0.00     0.041 A 
HETATM   18  C   UNK N   1       2.525  -4.773  -0.197  0.00  0.00     0.031 A 
HETATM   19  C   UNK N   1       1.481  -5.686  -0.083  0.00  0.00     0.021 A 
HETATM   20  C   UNK N   1       0.164  -5.237  -0.081  0.00  0.00     0.012 A 
HETATM   21  C   UNK N   1      -0.108  -3.870  -0.170  0.00  0.00     0.038 A 
HETATM   22 Br   UNK N   1      -1.265  -6.491   0.031  0.00  0.00    -0.051 Br
BRANCH  17  23
HETATM   23  N   UNK N   1       3.367  -2.549  -0.521  0.00  0.00    -0.398 N 
HETATM   24  H   UNK N   1       4.266  -2.916  -0.687  0.00  0.00     0.156 HD
HETATM   25  H   UNK N   1       3.234  -1.574  -0.521  0.00  0.00     0.156 HD
ENDBRANCH  17  23
ENDBRANCH   6  16
TORSDOF 4
