MODEL 1
REMARK VINA RESULT:      -7.1      0.000      0.000
REMARK  6 active torsions:
REMARK  status: ('A' for Active; 'I' for Inactive)
REMARK    1  A    between atoms: C_2  and  O_3 
REMARK    2  A    between atoms: C_2  and  C_4 
REMARK    3  A    between atoms: C_5  and  C_4 
REMARK    4  A    between atoms: C_6  and  C_5 
REMARK       I    between atoms: N_8  and  C_6 
REMARK    5  A    between atoms: C_9  and  N_8 
REMARK    6  A    between atoms: C_15  and  C_16 
REMARK       I    between atoms: C_16  and  N_18 
ROOT
HETATM    1  C   UNK N   1      25.703  25.374  -5.088  0.00  0.00     0.050 A 
HETATM    2  C   UNK N   1      24.957  26.458  -5.584  0.00  0.00     0.032 A 
HETATM    3  C   UNK N   1      25.213  27.758  -5.151  0.00  0.00     0.021 A 
HETATM    4  C   UNK N   1      26.219  27.992  -4.219  0.00  0.00     0.012 A 
HETATM    5 Br   UNK N   1      26.517  29.757  -3.564  0.00  0.00    -0.051 Br
HETATM    6  C   UNK N   1      26.978  26.930  -3.730  0.00  0.00     0.038 A 
HETATM    7  C   UNK N   1      26.748  25.608  -4.149  0.00  0.00     0.060 A 
ENDROOT
BRANCH   1   8
HETATM    8  N   UNK N   1      25.398  24.040  -5.493  0.00  0.00    -0.326 N 
HETATM    9  C   UNK N   1      25.913  23.411  -6.580  0.00  0.00     0.222 C 
HETATM   10  O   UNK N   1      26.672  23.990  -7.340  0.00  0.00    -0.273 OA
HETATM   11  H   UNK N   1      24.759  23.535  -4.939  0.00  0.00     0.169 HD
BRANCH   9  12
HETATM   12  C   UNK N   1      25.415  22.054  -6.947  0.00  0.00     0.113 C 
BRANCH  12  13
HETATM   13  C   UNK N   1      24.799  22.034  -8.331  0.00  0.00     0.119 C 
BRANCH  13  14
HETATM   14  C   UNK N   1      25.657  21.199  -9.222  0.00  0.00     0.139 C 
HETATM   15  O   UNK N   1      26.794  20.918  -8.883  0.00  0.00    -0.650 OA
BRANCH  14  16
HETATM   16  O   UNK N   1      25.186  20.767 -10.408  0.00  0.00    -0.776 OA
HETATM   17  H   UNK N   1      24.264  20.697 -10.566  0.00  0.00     0.167 HD
ENDBRANCH  14  16
ENDBRANCH  13  14
ENDBRANCH  12  13
ENDBRANCH   9  12
ENDBRANCH   1   8
BRANCH   7  18
HETATM   18  C   UNK N   1      27.518  24.450  -3.542  0.00  0.00     0.256 C 
HETATM   19  N   UNK N   1      28.731  24.008  -4.013  0.00  0.00    -0.347 N 
HETATM   20  C   UNK N   1      29.426  22.959  -3.272  0.00  0.00     0.130 C 
HETATM   21  C   UNK N   1      29.353  24.535  -5.212  0.00  0.00     0.130 C 
HETATM   22  C   UNK N   1      30.857  22.750  -3.768  0.00  0.00    -0.000 C 
HETATM   23  C   UNK N   1      31.524  24.117  -3.935  0.00  0.00     0.011 C 
HETATM   24  C   UNK N   1      31.621  21.934  -2.746  0.00  0.00     0.011 C 
HETATM   25  C   UNK N   1      30.770  25.030  -4.918  0.00  0.00    -0.000 C 
HETATM   26  C   UNK N   1      31.531  25.108  -6.224  0.00  0.00     0.011 C 
HETATM   27  O   UNK N   1      27.048  23.897  -2.559  0.00  0.00    -0.267 OA
ENDBRANCH   7  18
TORSDOF 6
ENDMDL
MODEL 2
REMARK VINA RESULT:      -6.8     12.130     15.762
REMARK  6 active torsions:
REMARK  status: ('A' for Active; 'I' for Inactive)
REMARK    1  A    between atoms: C_2  and  O_3 
REMARK    2  A    between atoms: C_2  and  C_4 
REMARK    3  A    between atoms: C_5  and  C_4 
REMARK    4  A    between atoms: C_6  and  C_5 
REMARK       I    between atoms: N_8  and  C_6 
REMARK    5  A    between atoms: C_9  and  N_8 
REMARK    6  A    between atoms: C_15  and  C_16 
REMARK       I    between atoms: C_16  and  N_18 
ROOT
HETATM    1  C   UNK N   1      30.438  16.184   6.014  0.00  0.00     0.050 A 
HETATM    2  C   UNK N   1      30.854  15.044   5.302  0.00  0.00     0.032 A 
HETATM    3  C   UNK N   1      29.924  14.129   4.812  0.00  0.00     0.021 A 
HETATM    4  C   UNK N   1      28.566  14.342   5.025  0.00  0.00     0.012 A 
HETATM    5 Br   UNK N   1      27.295  13.052   4.428  0.00  0.00    -0.051 Br
HETATM    6  C   UNK N   1      28.136  15.475   5.715  0.00  0.00     0.038 A 
HETATM    7  C   UNK N   1      29.049  16.419   6.218  0.00  0.00     0.060 A 
ENDROOT
BRANCH   1   8
HETATM    8  N   UNK N   1      31.399  17.085   6.560  0.00  0.00    -0.326 N 
HETATM    9  C   UNK N   1      31.993  16.962   7.775  0.00  0.00     0.222 C 
HETATM   10  O   UNK N   1      31.693  16.050   8.531  0.00  0.00    -0.273 OA
HETATM   11  H   UNK N   1      31.652  17.863   6.012  0.00  0.00     0.169 HD
BRANCH   9  12
HETATM   12  C   UNK N   1      32.894  18.043   8.267  0.00  0.00     0.113 C 
BRANCH  12  13
HETATM   13  C   UNK N   1      34.355  17.676   8.109  0.00  0.00     0.119 C 
BRANCH  13  14
HETATM   14  C   UNK N   1      34.828  17.048   9.378  0.00  0.00     0.139 C 
HETATM   15  O   UNK N   1      35.501  17.695  10.163  0.00  0.00    -0.650 OA
BRANCH  14  16
HETATM   16  O   UNK N   1      34.528  15.764   9.653  0.00  0.00    -0.776 OA
HETATM   17  H   UNK N   1      33.909  15.290   9.132  0.00  0.00     0.167 HD
ENDBRANCH  14  16
ENDBRANCH  13  14
ENDBRANCH  12  13
ENDBRANCH   9  12
ENDBRANCH   1   8
BRANCH   7  18
HETATM   18  C   UNK N   1      28.576  17.599   7.045  0.00  0.00     0.256 C 
HETATM   19  N   UNK N   1      28.112  18.774   6.506  0.00  0.00    -0.347 N 
HETATM   20  C   UNK N   1      27.579  19.792   7.407  0.00  0.00     0.130 C 
HETATM   21  C   UNK N   1      28.127  19.052   5.083  0.00  0.00     0.130 C 
HETATM   22  C   UNK N   1      26.880  20.925   6.653  0.00  0.00    -0.000 C 
HETATM   23  C   UNK N   1      25.968  20.316   5.587  0.00  0.00     0.011 C 
HETATM   24  C   UNK N   1      26.051  21.732   7.630  0.00  0.00     0.011 C 
HETATM   25  C   UNK N   1      26.731  19.430   4.586  0.00  0.00    -0.000 C 
HETATM   26  C   UNK N   1      26.874  20.160   3.268  0.00  0.00     0.011 C 
HETATM   27  O   UNK N   1      28.580  17.489   8.262  0.00  0.00    -0.267 OA
ENDBRANCH   7  18
TORSDOF 6
ENDMDL
MODEL 3
REMARK VINA RESULT:      -6.8      2.795      5.736
REMARK  6 active torsions:
REMARK  status: ('A' for Active; 'I' for Inactive)
REMARK    1  A    between atoms: C_2  and  O_3 
REMARK    2  A    between atoms: C_2  and  C_4 
REMARK    3  A    between atoms: C_5  and  C_4 
REMARK    4  A    between atoms: C_6  and  C_5 
REMARK       I    between atoms: N_8  and  C_6 
REMARK    5  A    between atoms: C_9  and  N_8 
REMARK    6  A    between atoms: C_15  and  C_16 
REMARK       I    between atoms: C_16  and  N_18 
ROOT
HETATM    1  C   UNK N   1      29.726  24.922  -3.764  0.00  0.00     0.050 A 
HETATM    2  C   UNK N   1      30.829  25.757  -3.511  0.00  0.00     0.032 A 
HETATM    3  C   UNK N   1      30.681  27.143  -3.473  0.00  0.00     0.021 A 
HETATM    4  C   UNK N   1      29.429  27.711  -3.687  0.00  0.00     0.012 A 
HETATM    5 Br   UNK N   1      29.238  29.608  -3.716  0.00  0.00    -0.051 Br
HETATM    6  C   UNK N   1      28.323  26.895  -3.923  0.00  0.00     0.038 A 
HETATM    7  C   UNK N   1      28.439  25.495  -3.963  0.00  0.00     0.060 A 
ENDROOT
BRANCH   1   8
HETATM    8  N   UNK N   1      29.897  23.508  -3.857  0.00  0.00    -0.326 N 
HETATM    9  C   UNK N   1      30.187  22.681  -2.821  0.00  0.00     0.222 C 
HETATM   10  O   UNK N   1      30.374  23.122  -1.698  0.00  0.00    -0.273 OA
HETATM   11  H   UNK N   1      29.797  23.099  -4.747  0.00  0.00     0.169 HD
BRANCH   9  12
HETATM   12  C   UNK N   1      30.452  21.237  -3.085  0.00  0.00     0.113 C 
BRANCH  12  13
HETATM   13  C   UNK N   1      31.596  21.040  -4.058  0.00  0.00     0.119 C 
BRANCH  13  14
HETATM   14  C   UNK N   1      32.882  21.169  -3.312  0.00  0.00     0.139 C 
HETATM   15  O   UNK N   1      33.925  21.336  -3.922  0.00  0.00    -0.650 OA
BRANCH  14  16
HETATM   16  O   UNK N   1      32.899  21.086  -1.967  0.00  0.00    -0.776 OA
HETATM   17  H   UNK N   1      32.687  21.828  -1.434  0.00  0.00     0.167 HD
ENDBRANCH  14  16
ENDBRANCH  13  14
ENDBRANCH  12  13
ENDBRANCH   9  12
ENDBRANCH   1   8
BRANCH   7  18
HETATM   18  C   UNK N   1      27.247  24.622  -4.311  0.00  0.00     0.256 C 
HETATM   19  N   UNK N   1      26.933  24.230  -5.589  0.00  0.00    -0.347 N 
HETATM   20  C   UNK N   1      25.827  23.296  -5.781  0.00  0.00     0.130 C 
HETATM   21  C   UNK N   1      27.650  24.701  -6.758  0.00  0.00     0.130 C 
HETATM   22  C   UNK N   1      25.758  22.765  -7.213  0.00  0.00    -0.000 C 
HETATM   23  C   UNK N   1      27.165  22.360  -7.655  0.00  0.00     0.011 C 
HETATM   24  C   UNK N   1      24.847  21.556  -7.249  0.00  0.00     0.011 C 
HETATM   25  C   UNK N   1      28.168  23.526  -7.590  0.00  0.00    -0.000 C 
HETATM   26  C   UNK N   1      28.462  24.022  -8.989  0.00  0.00     0.011 C 
HETATM   27  O   UNK N   1      26.541  24.220  -3.397  0.00  0.00    -0.267 OA
ENDBRANCH   7  18
TORSDOF 6
ENDMDL
MODEL 4
REMARK VINA RESULT:      -6.7     11.006     14.427
REMARK  6 active torsions:
REMARK  status: ('A' for Active; 'I' for Inactive)
REMARK    1  A    between atoms: C_2  and  O_3 
REMARK    2  A    between atoms: C_2  and  C_4 
REMARK    3  A    between atoms: C_5  and  C_4 
REMARK    4  A    between atoms: C_6  and  C_5 
REMARK       I    between atoms: N_8  and  C_6 
REMARK    5  A    between atoms: C_9  and  N_8 
REMARK    6  A    between atoms: C_15  and  C_16 
REMARK       I    between atoms: C_16  and  N_18 
ROOT
HETATM    1  C   UNK N   1      30.207  16.017   4.505  0.00  0.00     0.050 A 
HETATM    2  C   UNK N   1      30.392  14.993   3.560  0.00  0.00     0.032 A 
HETATM    3  C   UNK N   1      29.332  14.548   2.771  0.00  0.00     0.021 A 
HETATM    4  C   UNK N   1      28.074  15.124   2.915  0.00  0.00     0.012 A 
HETATM    5 Br   UNK N   1      26.604  14.464   1.896  0.00  0.00    -0.051 Br
HETATM    6  C   UNK N   1      27.878  16.152   3.836  0.00  0.00     0.038 A 
HETATM    7  C   UNK N   1      28.927  16.625   4.643  0.00  0.00     0.060 A 
ENDROOT
BRANCH   1   8
HETATM    8  N   UNK N   1      31.283  16.427   5.347  0.00  0.00    -0.326 N 
HETATM    9  C   UNK N   1      32.221  17.356   5.031  0.00  0.00     0.222 C 
HETATM   10  O   UNK N   1      32.228  17.893   3.934  0.00  0.00    -0.273 OA
HETATM   11  H   UNK N   1      31.352  15.999   6.232  0.00  0.00     0.169 HD
BRANCH   9  12
HETATM   12  C   UNK N   1      33.357  17.602   5.964  0.00  0.00     0.113 C 
BRANCH  12  13
HETATM   13  C   UNK N   1      32.901  17.655   7.408  0.00  0.00     0.119 C 
BRANCH  13  14
HETATM   14  C   UNK N   1      34.068  18.024   8.262  0.00  0.00     0.139 C 
HETATM   15  O   UNK N   1      34.906  18.806   7.843  0.00  0.00    -0.650 OA
BRANCH  14  16
HETATM   16  O   UNK N   1      34.209  17.486   9.489  0.00  0.00    -0.776 OA
HETATM   17  H   UNK N   1      33.465  17.185   9.974  0.00  0.00     0.167 HD
ENDBRANCH  14  16
ENDBRANCH  13  14
ENDBRANCH  12  13
ENDBRANCH   9  12
ENDBRANCH   1   8
BRANCH   7  18
HETATM   18  C   UNK N   1      28.681  17.681   5.705  0.00  0.00     0.256 C 
HETATM   19  N   UNK N   1      28.062  18.882   5.461  0.00  0.00    -0.347 N 
HETATM   20  C   UNK N   1      27.781  19.765   6.590  0.00  0.00     0.130 C 
HETATM   21  C   UNK N   1      27.673  19.315   4.133  0.00  0.00     0.130 C 
HETATM   22  C   UNK N   1      26.878  20.935   6.201  0.00  0.00    -0.000 C 
HETATM   23  C   UNK N   1      25.716  20.401   5.361  0.00  0.00     0.011 C 
HETATM   24  C   UNK N   1      26.339  21.584   7.458  0.00  0.00     0.011 C 
HETATM   25  C   UNK N   1      26.186  19.673   4.089  0.00  0.00    -0.000 C 
HETATM   26  C   UNK N   1      25.941  20.551   2.881  0.00  0.00     0.011 C 
HETATM   27  O   UNK N   1      29.027  17.436   6.852  0.00  0.00    -0.267 OA
ENDBRANCH   7  18
TORSDOF 6
ENDMDL
MODEL 5
REMARK VINA RESULT:      -6.6     13.104     14.718
REMARK  6 active torsions:
REMARK  status: ('A' for Active; 'I' for Inactive)
REMARK    1  A    between atoms: C_2  and  O_3 
REMARK    2  A    between atoms: C_2  and  C_4 
REMARK    3  A    between atoms: C_5  and  C_4 
REMARK    4  A    between atoms: C_6  and  C_5 
REMARK       I    between atoms: N_8  and  C_6 
REMARK    5  A    between atoms: C_9  and  N_8 
REMARK    6  A    between atoms: C_15  and  C_16 
REMARK       I    between atoms: C_16  and  N_18 
ROOT
HETATM    1  C   UNK N   1      21.606  17.022   6.388  0.00  0.00     0.050 A 
HETATM    2  C   UNK N   1      20.726  17.335   7.439  0.00  0.00     0.032 A 
HETATM    3  C   UNK N   1      20.459  16.410   8.447  0.00  0.00     0.021 A 
HETATM    4  C   UNK N   1      21.070  15.160   8.419  0.00  0.00     0.012 A 
HETATM    5 Br   UNK N   1      20.647  13.864   9.750  0.00  0.00    -0.051 Br
HETATM    6  C   UNK N   1      21.958  14.840   7.392  0.00  0.00     0.038 A 
HETATM    7  C   UNK N   1      22.251  15.753   6.363  0.00  0.00     0.060 A 
ENDROOT
BRANCH   1   8
HETATM    8  N   UNK N   1      21.829  17.953   5.330  0.00  0.00    -0.326 N 
HETATM    9  C   UNK N   1      20.997  18.164   4.279  0.00  0.00     0.222 C 
HETATM   10  O   UNK N   1      19.977  17.506   4.143  0.00  0.00    -0.273 OA
HETATM   11  H   UNK N   1      22.657  18.486   5.365  0.00  0.00     0.169 HD
BRANCH   9  12
HETATM   12  C   UNK N   1      21.414  19.087   3.185  0.00  0.00     0.113 C 
BRANCH  12  13
HETATM   13  C   UNK N   1      20.244  19.497   2.314  0.00  0.00     0.119 C 
BRANCH  13  14
HETATM   14  C   UNK N   1      20.744  20.414   1.247  0.00  0.00     0.139 C 
HETATM   15  O   UNK N   1      21.209  21.501   1.548  0.00  0.00    -0.650 OA
BRANCH  14  16
HETATM   16  O   UNK N   1      20.668  20.054  -0.048  0.00  0.00    -0.776 OA
HETATM   17  H   UNK N   1      19.843  19.865  -0.451  0.00  0.00     0.167 HD
ENDBRANCH  14  16
ENDBRANCH  13  14
ENDBRANCH  12  13
ENDBRANCH   9  12
ENDBRANCH   1   8
BRANCH   7  18
HETATM   18  C   UNK N   1      23.146  15.361   5.203  0.00  0.00     0.256 C 
HETATM   19  N   UNK N   1      22.704  14.696   4.085  0.00  0.00    -0.347 N 
HETATM   20  C   UNK N   1      23.641  14.478   2.987  0.00  0.00     0.130 C 
HETATM   21  C   UNK N   1      21.348  14.201   3.945  0.00  0.00     0.130 C 
HETATM   22  C   UNK N   1      22.948  13.954   1.728  0.00  0.00    -0.000 C 
HETATM   23  C   UNK N   1      21.686  14.784   1.482  0.00  0.00     0.011 C 
HETATM   24  C   UNK N   1      23.888  14.098   0.550  0.00  0.00     0.011 C 
HETATM   25  C   UNK N   1      20.703  14.736   2.665  0.00  0.00    -0.000 C 
HETATM   26  C   UNK N   1      19.529  13.847   2.314  0.00  0.00     0.011 C 
HETATM   27  O   UNK N   1      24.325  15.681   5.251  0.00  0.00    -0.267 OA
ENDBRANCH   7  18
TORSDOF 6
ENDMDL
MODEL 6
REMARK VINA RESULT:      -6.6     20.844     24.687
REMARK  6 active torsions:
REMARK  status: ('A' for Active; 'I' for Inactive)
REMARK    1  A    between atoms: C_2  and  O_3 
REMARK    2  A    between atoms: C_2  and  C_4 
REMARK    3  A    between atoms: C_5  and  C_4 
REMARK    4  A    between atoms: C_6  and  C_5 
REMARK       I    between atoms: N_8  and  C_6 
REMARK    5  A    between atoms: C_9  and  N_8 
REMARK    6  A    between atoms: C_15  and  C_16 
REMARK       I    between atoms: C_16  and  N_18 
ROOT
HETATM    1  C   UNK N   1      36.289  12.737  15.511  0.00  0.00     0.050 A 
HETATM    2  C   UNK N   1      35.506  13.300  16.535  0.00  0.00     0.032 A 
HETATM    3  C   UNK N   1      35.145  12.550  17.653  0.00  0.00     0.021 A 
HETATM    4  C   UNK N   1      35.563  11.228  17.764  0.00  0.00     0.012 A 
HETATM    5 Br   UNK N   1      35.004  10.175  19.251  0.00  0.00    -0.051 Br
HETATM    6  C   UNK N   1      36.353  10.659  16.765  0.00  0.00     0.038 A 
HETATM    7  C   UNK N   1      36.737  11.390  15.627  0.00  0.00     0.060 A 
ENDROOT
BRANCH   1   8
HETATM    8  N   UNK N   1      36.606  13.493  14.344  0.00  0.00    -0.326 N 
HETATM    9  C   UNK N   1      35.738  13.804  13.348  0.00  0.00     0.222 C 
HETATM   10  O   UNK N   1      34.587  13.398  13.368  0.00  0.00    -0.273 OA
HETATM   11  H   UNK N   1      37.533  13.815  14.253  0.00  0.00     0.169 HD
BRANCH   9  12
HETATM   12  C   UNK N   1      36.238  14.504  12.130  0.00  0.00     0.113 C 
BRANCH  12  13
HETATM   13  C   UNK N   1      35.107  14.910  11.207  0.00  0.00     0.119 C 
BRANCH  13  14
HETATM   14  C   UNK N   1      35.391  16.276  10.678  0.00  0.00     0.139 C 
HETATM   15  O   UNK N   1      36.529  16.715  10.706  0.00  0.00    -0.650 OA
BRANCH  14  16
HETATM   16  O   UNK N   1      34.394  17.034  10.183  0.00  0.00    -0.776 OA
HETATM   17  H   UNK N   1      33.895  17.601  10.740  0.00  0.00     0.167 HD
ENDBRANCH  14  16
ENDBRANCH  13  14
ENDBRANCH  12  13
ENDBRANCH   9  12
ENDBRANCH   1   8
BRANCH   7  18
HETATM   18  C   UNK N   1      37.519  10.734  14.505  0.00  0.00     0.256 C 
HETATM   19  N   UNK N   1      36.936  10.093  13.439  0.00  0.00    -0.347 N 
HETATM   20  C   UNK N   1      37.794   9.602  12.365  0.00  0.00     0.130 C 
HETATM   21  C   UNK N   1      35.506   9.880  13.331  0.00  0.00     0.130 C 
HETATM   22  C   UNK N   1      36.994   9.139  11.147  0.00  0.00    -0.000 C 
HETATM   23  C   UNK N   1      35.927  10.190  10.833  0.00  0.00     0.011 C 
HETATM   24  C   UNK N   1      37.929   8.995   9.966  0.00  0.00     0.011 C 
HETATM   25  C   UNK N   1      34.969  10.437  12.012  0.00  0.00    -0.000 C 
HETATM   26  C   UNK N   1      33.633   9.786  11.725  0.00  0.00     0.011 C 
HETATM   27  O   UNK N   1      38.739  10.806  14.533  0.00  0.00    -0.267 OA
ENDBRANCH   7  18
TORSDOF 6
ENDMDL
MODEL 7
REMARK VINA RESULT:      -6.6     14.372     16.872
REMARK  6 active torsions:
REMARK  status: ('A' for Active; 'I' for Inactive)
REMARK    1  A    between atoms: C_2  and  O_3 
REMARK    2  A    between atoms: C_2  and  C_4 
REMARK    3  A    between atoms: C_5  and  C_4 
REMARK    4  A    between atoms: C_6  and  C_5 
REMARK       I    between atoms: N_8  and  C_6 
REMARK    5  A    between atoms: C_9  and  N_8 
REMARK    6  A    between atoms: C_15  and  C_16 
REMARK       I    between atoms: C_16  and  N_18 
ROOT
HETATM    1  C   UNK N   1      31.578  16.758   8.233  0.00  0.00     0.050 A 
HETATM    2  C   UNK N   1      30.507  17.150   9.056  0.00  0.00     0.032 A 
HETATM    3  C   UNK N   1      29.345  17.691   8.507  0.00  0.00     0.021 A 
HETATM    4  C   UNK N   1      29.238  17.844   7.128  0.00  0.00     0.012 A 
HETATM    5 Br   UNK N   1      27.685  18.657   6.379  0.00  0.00    -0.051 Br
HETATM    6  C   UNK N   1      30.285  17.444   6.298  0.00  0.00     0.038 A 
HETATM    7  C   UNK N   1      31.467  16.892   6.820  0.00  0.00     0.060 A 
ENDROOT
BRANCH   1   8
HETATM    8  N   UNK N   1      32.785  16.259   8.806  0.00  0.00    -0.326 N 
HETATM    9  C   UNK N   1      33.050  14.953   9.070  0.00  0.00     0.222 C 
HETATM   10  O   UNK N   1      32.213  14.088   8.864  0.00  0.00    -0.273 OA
HETATM   11  H   UNK N   1      33.484  16.915   9.031  0.00  0.00     0.169 HD
BRANCH   9  12
HETATM   12  C   UNK N   1      34.310  14.588   9.778  0.00  0.00     0.113 C 
BRANCH  12  13
HETATM   13  C   UNK N   1      34.555  15.466  10.988  0.00  0.00     0.119 C 
BRANCH  13  14
HETATM   14  C   UNK N   1      35.678  16.399  10.679  0.00  0.00     0.139 C 
HETATM   15  O   UNK N   1      35.447  17.480  10.163  0.00  0.00    -0.650 OA
BRANCH  14  16
HETATM   16  O   UNK N   1      36.949  16.046  10.954  0.00  0.00    -0.776 OA
HETATM   17  H   UNK N   1      37.671  16.541  10.619  0.00  0.00     0.167 HD
ENDBRANCH  14  16
ENDBRANCH  13  14
ENDBRANCH  12  13
ENDBRANCH   9  12
ENDBRANCH   1   8
BRANCH   7  18
HETATM   18  C   UNK N   1      32.634  16.546   5.915  0.00  0.00     0.256 C 
HETATM   19  N   UNK N   1      32.733  15.372   5.209  0.00  0.00    -0.347 N 
HETATM   20  C   UNK N   1      33.850  15.207   4.283  0.00  0.00     0.130 C 
HETATM   21  C   UNK N   1      31.779  14.288   5.340  0.00  0.00     0.130 C 
HETATM   22  C   UNK N   1      33.691  13.970   3.397  0.00  0.00    -0.000 C 
HETATM   23  C   UNK N   1      32.259  13.933   2.858  0.00  0.00     0.011 C 
HETATM   24  C   UNK N   1      34.666  14.060   2.242  0.00  0.00     0.011 C 
HETATM   25  C   UNK N   1      31.203  13.900   3.977  0.00  0.00    -0.000 C 
HETATM   26  C   UNK N   1      30.619  12.508   4.083  0.00  0.00     0.011 C 
HETATM   27  O   UNK N   1      33.525  17.373   5.781  0.00  0.00    -0.267 OA
ENDBRANCH   7  18
TORSDOF 6
ENDMDL
MODEL 8
REMARK VINA RESULT:      -6.5     15.387     18.235
REMARK  6 active torsions:
REMARK  status: ('A' for Active; 'I' for Inactive)
REMARK    1  A    between atoms: C_2  and  O_3 
REMARK    2  A    between atoms: C_2  and  C_4 
REMARK    3  A    between atoms: C_5  and  C_4 
REMARK    4  A    between atoms: C_6  and  C_5 
REMARK       I    between atoms: N_8  and  C_6 
REMARK    5  A    between atoms: C_9  and  N_8 
REMARK    6  A    between atoms: C_15  and  C_16 
REMARK       I    between atoms: C_16  and  N_18 
ROOT
HETATM    1  C   UNK N   1      33.492  16.791   7.053  0.00  0.00     0.050 A 
HETATM    2  C   UNK N   1      33.259  16.609   5.678  0.00  0.00     0.032 A 
HETATM    3  C   UNK N   1      34.030  15.716   4.935  0.00  0.00     0.021 A 
HETATM    4  C   UNK N   1      35.042  14.991   5.558  0.00  0.00     0.012 A 
HETATM    5 Br   UNK N   1      36.150  13.829   4.530  0.00  0.00    -0.051 Br
HETATM    6  C   UNK N   1      35.274  15.148   6.924  0.00  0.00     0.038 A 
HETATM    7  C   UNK N   1      34.512  16.038   7.701  0.00  0.00     0.060 A 
ENDROOT
BRANCH   1   8
HETATM    8  N   UNK N   1      32.737  17.748   7.793  0.00  0.00    -0.326 N 
HETATM    9  C   UNK N   1      31.511  17.535   8.336  0.00  0.00     0.222 C 
HETATM   10  O   UNK N   1      30.930  16.472   8.177  0.00  0.00    -0.273 OA
HETATM   11  H   UNK N   1      33.137  18.639   7.921  0.00  0.00     0.169 HD
BRANCH   9  12
HETATM   12  C   UNK N   1      30.787  18.665   8.986  0.00  0.00     0.113 C 
BRANCH  12  13
HETATM   13  C   UNK N   1      29.644  18.179   9.854  0.00  0.00     0.119 C 
BRANCH  13  14
HETATM   14  C   UNK N   1      28.384  18.234   9.056  0.00  0.00     0.139 C 
HETATM   15  O   UNK N   1      28.244  19.090   8.198  0.00  0.00    -0.650 OA
BRANCH  14  16
HETATM   16  O   UNK N   1      27.393  17.352   9.290  0.00  0.00    -0.776 OA
HETATM   17  H   UNK N   1      27.036  17.243  10.150  0.00  0.00     0.167 HD
ENDBRANCH  14  16
ENDBRANCH  13  14
ENDBRANCH  12  13
ENDBRANCH   9  12
ENDBRANCH   1   8
BRANCH   7  18
HETATM   18  C   UNK N   1      34.833  16.268   9.166  0.00  0.00     0.256 C 
HETATM   19  N   UNK N   1      34.840  15.273  10.113  0.00  0.00    -0.347 N 
HETATM   20  C   UNK N   1      35.277  15.602  11.467  0.00  0.00     0.130 C 
HETATM   21  C   UNK N   1      34.434  13.910   9.831  0.00  0.00     0.130 C 
HETATM   22  C   UNK N   1      35.468  14.357  12.334  0.00  0.00    -0.000 C 
HETATM   23  C   UNK N   1      36.244  13.312  11.529  0.00  0.00     0.011 C 
HETATM   24  C   UNK N   1      36.255  14.731  13.571  0.00  0.00     0.011 C 
HETATM   25  C   UNK N   1      35.534  12.921  10.220  0.00  0.00    -0.000 C 
HETATM   26  C   UNK N   1      34.913  11.549  10.370  0.00  0.00     0.011 C 
HETATM   27  O   UNK N   1      35.132  17.399   9.520  0.00  0.00    -0.267 OA
ENDBRANCH   7  18
TORSDOF 6
ENDMDL
MODEL 9
REMARK VINA RESULT:      -6.4     11.022     13.780
REMARK  6 active torsions:
REMARK  status: ('A' for Active; 'I' for Inactive)
REMARK    1  A    between atoms: C_2  and  O_3 
REMARK    2  A    between atoms: C_2  and  C_4 
REMARK    3  A    between atoms: C_5  and  C_4 
REMARK    4  A    between atoms: C_6  and  C_5 
REMARK       I    between atoms: N_8  and  C_6 
REMARK    5  A    between atoms: C_9  and  N_8 
REMARK    6  A    between atoms: C_15  and  C_16 
REMARK       I    between atoms: C_16  and  N_18 
ROOT
HETATM    1  C   UNK N   1      28.249  18.310   6.763  0.00  0.00     0.050 A 
HETATM    2  C   UNK N   1      28.776  18.727   7.998  0.00  0.00     0.032 A 
HETATM    3  C   UNK N   1      29.905  18.112   8.538  0.00  0.00     0.021 A 
HETATM    4  C   UNK N   1      30.522  17.073   7.849  0.00  0.00     0.012 A 
HETATM    5 Br   UNK N   1      32.016  16.175   8.621  0.00  0.00    -0.051 Br
HETATM    6  C   UNK N   1      30.022  16.658   6.615  0.00  0.00     0.038 A 
HETATM    7  C   UNK N   1      28.888  17.261   6.043  0.00  0.00     0.060 A 
ENDROOT
BRANCH   1   8
HETATM    8  N   UNK N   1      27.061  18.906   6.245  0.00  0.00    -0.326 N 
HETATM    9  C   UNK N   1      27.018  19.899   5.320  0.00  0.00     0.222 C 
HETATM   10  O   UNK N   1      28.045  20.398   4.885  0.00  0.00    -0.273 OA
HETATM   11  H   UNK N   1      26.201  18.571   6.588  0.00  0.00     0.169 HD
BRANCH   9  12
HETATM   12  C   UNK N   1      25.707  20.507   4.955  0.00  0.00     0.113 C 
BRANCH  12  13
HETATM   13  C   UNK N   1      24.958  19.669   3.939  0.00  0.00     0.119 C 
BRANCH  13  14
HETATM   14  C   UNK N   1      24.455  20.567   2.858  0.00  0.00     0.139 C 
HETATM   15  O   UNK N   1      25.144  20.779   1.874  0.00  0.00    -0.650 OA
BRANCH  14  16
HETATM   16  O   UNK N   1      23.250  21.157   2.971  0.00  0.00    -0.776 OA
HETATM   17  H   UNK N   1      22.532  20.900   2.426  0.00  0.00     0.167 HD
ENDBRANCH  14  16
ENDBRANCH  13  14
ENDBRANCH  12  13
ENDBRANCH   9  12
ENDBRANCH   1   8
BRANCH   7  18
HETATM   18  C   UNK N   1      28.299  16.741   4.745  0.00  0.00     0.256 C 
HETATM   19  N   UNK N   1      27.207  15.910   4.679  0.00  0.00    -0.347 N 
HETATM   20  C   UNK N   1      26.667  15.572   3.365  0.00  0.00     0.130 C 
HETATM   21  C   UNK N   1      26.567  15.351   5.854  0.00  0.00     0.130 C 
HETATM   22  C   UNK N   1      25.321  14.851   3.460  0.00  0.00    -0.000 C 
HETATM   23  C   UNK N   1      24.438  15.591   4.466  0.00  0.00     0.011 C 
HETATM   24  C   UNK N   1      24.658  14.860   2.099  0.00  0.00     0.011 C 
HETATM   25  C   UNK N   1      25.072  15.676   5.866  0.00  0.00    -0.000 C 
HETATM   26  C   UNK N   1      24.379  14.704   6.797  0.00  0.00     0.011 C 
HETATM   27  O   UNK N   1      28.806  17.107   3.694  0.00  0.00    -0.267 OA
ENDBRANCH   7  18
TORSDOF 6
ENDMDL
