MODEL 1
REMARK VINA RESULT:      -7.4      0.000      0.000
REMARK  5 active torsions:
REMARK  status: ('A' for Active; 'I' for Inactive)
REMARK    1  A    between atoms: C_2  and  C_9 
REMARK       I    between atoms: N_3  and  C_2 
REMARK    2  A    between atoms: C_9  and  C_10 
REMARK    3  A    between atoms: C_10  and  C_11 
REMARK       I    between atoms: N_13  and  C_11 
REMARK    4  A    between atoms: N_13  and  C_14 
REMARK    5  A    between atoms: C_21  and  C_20 
REMARK       I    between atoms: C_21  and  N_23 
ROOT
HETATM    1  C   UNK N   1      25.806  25.416  -5.210  0.00  0.00     0.050 A 
HETATM    2  C   UNK N   1      25.205  26.530  -5.819  0.00  0.00     0.032 A 
HETATM    3  C   UNK N   1      25.439  27.812  -5.328  0.00  0.00     0.021 A 
HETATM    4  C   UNK N   1      26.269  27.993  -4.224  0.00  0.00     0.012 A 
HETATM    5 Br   UNK N   1      26.512  29.736  -3.496  0.00  0.00    -0.051 Br
HETATM    6  C   UNK N   1      26.882  26.891  -3.621  0.00  0.00     0.038 A 
HETATM    7  C   UNK N   1      26.672  25.586  -4.099  0.00  0.00     0.060 A 
ENDROOT
BRANCH   1   8
HETATM    8  N   UNK N   1      25.498  24.097  -5.630  0.00  0.00    -0.326 N 
HETATM    9  C   UNK N   1      26.198  23.316  -6.477  0.00  0.00     0.222 C 
HETATM   10  O   UNK N   1      27.258  23.684  -6.957  0.00  0.00    -0.273 OA
HETATM   11  H   UNK N   1      24.675  23.705  -5.260  0.00  0.00     0.169 HD
BRANCH   9  12
HETATM   12  C   UNK N   1      25.576  22.051  -6.937  0.00  0.00     0.112 C 
BRANCH  12  13
HETATM   13  C   UNK N   1      24.855  22.236  -8.258  0.00  0.00     0.112 C 
BRANCH  13  14
HETATM   14  C   UNK N   1      25.881  22.298  -9.347  0.00  0.00     0.220 C 
HETATM   15  O   UNK N   1      26.577  21.316  -9.561  0.00  0.00    -0.273 OA
HETATM   16  N   UNK N   1      26.035  23.430 -10.095  0.00  0.00    -0.348 N 
HETATM   17  C   UNK N   1      25.253  24.623  -9.821  0.00  0.00     0.152 C 
HETATM   18  C   UNK N   1      27.056  23.512 -11.117  0.00  0.00     0.152 C 
HETATM   19  C   UNK N   1      26.191  25.830  -9.696  0.00  0.00     0.187 C 
HETATM   20  O   UNK N   1      27.544  25.427  -9.715  0.00  0.00    -0.388 OA
HETATM   21  C   UNK N   1      27.781  24.861 -10.985  0.00  0.00     0.187 C 
ENDBRANCH  13  14
ENDBRANCH  12  13
ENDBRANCH   9  12
ENDBRANCH   1   8
BRANCH   7  22
HETATM   22  C   UNK N   1      27.265  24.369  -3.402  0.00  0.00     0.256 C 
HETATM   23  N   UNK N   1      28.539  23.912  -3.598  0.00  0.00    -0.347 N 
HETATM   24  C   UNK N   1      29.020  22.825  -2.751  0.00  0.00     0.130 C 
HETATM   25  C   UNK N   1      29.451  24.516  -4.548  0.00  0.00     0.130 C 
HETATM   26  C   UNK N   1      30.488  22.478  -2.986  0.00  0.00    -0.000 C 
HETATM   27  C   UNK N   1      31.363  23.740  -3.081  0.00  0.00     0.011 C 
HETATM   28  C   UNK N   1      30.613  21.651  -4.252  0.00  0.00     0.011 C 
HETATM   29  C   UNK N   1      30.715  24.930  -3.813  0.00  0.00    -0.000 C 
HETATM   30  C   UNK N   1      31.698  25.534  -4.790  0.00  0.00     0.011 C 
HETATM   31  O   UNK N   1      26.573  23.775  -2.584  0.00  0.00    -0.267 OA
ENDBRANCH   7  22
TORSDOF 5
ENDMDL
MODEL 2
REMARK VINA RESULT:      -7.4     12.872     16.003
REMARK  5 active torsions:
REMARK  status: ('A' for Active; 'I' for Inactive)
REMARK    1  A    between atoms: C_2  and  C_9 
REMARK       I    between atoms: N_3  and  C_2 
REMARK    2  A    between atoms: C_9  and  C_10 
REMARK    3  A    between atoms: C_10  and  C_11 
REMARK       I    between atoms: N_13  and  C_11 
REMARK    4  A    between atoms: N_13  and  C_14 
REMARK    5  A    between atoms: C_21  and  C_20 
REMARK       I    between atoms: C_21  and  N_23 
ROOT
HETATM    1  C   UNK N   1      28.040  18.698   6.413  0.00  0.00     0.050 A 
HETATM    2  C   UNK N   1      27.652  20.048   6.367  0.00  0.00     0.032 A 
HETATM    3  C   UNK N   1      26.771  20.495   5.385  0.00  0.00     0.021 A 
HETATM    4  C   UNK N   1      26.275  19.602   4.439  0.00  0.00     0.012 A 
HETATM    5 Br   UNK N   1      25.146  20.233   3.040  0.00  0.00    -0.051 Br
HETATM    6  C   UNK N   1      26.644  18.254   4.485  0.00  0.00     0.038 A 
HETATM    7  C   UNK N   1      27.524  17.772   5.469  0.00  0.00     0.060 A 
ENDROOT
BRANCH   1   8
HETATM    8  N   UNK N   1      29.014  18.246   7.339  0.00  0.00    -0.326 N 
HETATM    9  C   UNK N   1      28.852  18.010   8.656  0.00  0.00     0.222 C 
HETATM   10  O   UNK N   1      27.765  18.127   9.198  0.00  0.00    -0.273 OA
HETATM   11  H   UNK N   1      29.915  18.088   6.978  0.00  0.00     0.169 HD
BRANCH   9  12
HETATM   12  C   UNK N   1      30.062  17.746   9.472  0.00  0.00     0.112 C 
BRANCH  12  13
HETATM   13  C   UNK N   1      31.330  17.980   8.675  0.00  0.00     0.112 C 
BRANCH  13  14
HETATM   14  C   UNK N   1      31.896  16.647   8.295  0.00  0.00     0.220 C 
HETATM   15  O   UNK N   1      31.140  15.778   7.888  0.00  0.00    -0.273 OA
HETATM   16  N   UNK N   1      33.237  16.406   8.392  0.00  0.00    -0.348 N 
HETATM   17  C   UNK N   1      34.143  17.410   8.921  0.00  0.00     0.152 C 
HETATM   18  C   UNK N   1      33.783  15.106   8.070  0.00  0.00     0.152 C 
HETATM   19  C   UNK N   1      35.008  16.786  10.025  0.00  0.00     0.187 C 
HETATM   20  O   UNK N   1      34.575  15.477  10.329  0.00  0.00    -0.388 OA
HETATM   21  C   UNK N   1      34.779  14.701   9.169  0.00  0.00     0.187 C 
ENDBRANCH  13  14
ENDBRANCH  12  13
ENDBRANCH   9  12
ENDBRANCH   1   8
BRANCH   7  22
HETATM   22  C   UNK N   1      28.002  16.327   5.482  0.00  0.00     0.256 C 
HETATM   23  N   UNK N   1      29.122  15.878   4.836  0.00  0.00    -0.347 N 
HETATM   24  C   UNK N   1      29.539  14.497   5.059  0.00  0.00     0.130 C 
HETATM   25  C   UNK N   1      29.950  16.736   4.015  0.00  0.00     0.130 C 
HETATM   26  C   UNK N   1      30.860  14.147   4.378  0.00  0.00    -0.000 C 
HETATM   27  C   UNK N   1      31.917  15.247   4.583  0.00  0.00     0.011 C 
HETATM   28  C   UNK N   1      30.617  13.916   2.898  0.00  0.00     0.011 C 
HETATM   29  C   UNK N   1      31.374  16.687   4.542  0.00  0.00    -0.000 C 
HETATM   30  C   UNK N   1      32.266  17.552   3.679  0.00  0.00     0.011 C 
HETATM   31  O   UNK N   1      27.366  15.511   6.139  0.00  0.00    -0.267 OA
ENDBRANCH   7  22
TORSDOF 5
ENDMDL
MODEL 3
REMARK VINA RESULT:      -7.4     20.164     24.000
REMARK  5 active torsions:
REMARK  status: ('A' for Active; 'I' for Inactive)
REMARK    1  A    between atoms: C_2  and  C_9 
REMARK       I    between atoms: N_3  and  C_2 
REMARK    2  A    between atoms: C_9  and  C_10 
REMARK    3  A    between atoms: C_10  and  C_11 
REMARK       I    between atoms: N_13  and  C_11 
REMARK    4  A    between atoms: N_13  and  C_14 
REMARK    5  A    between atoms: C_21  and  C_20 
REMARK       I    between atoms: C_21  and  N_23 
ROOT
HETATM    1  C   UNK N   1      36.313  12.869  15.341  0.00  0.00     0.050 A 
HETATM    2  C   UNK N   1      35.521  13.429  16.357  0.00  0.00     0.032 A 
HETATM    3  C   UNK N   1      35.151  12.668  17.463  0.00  0.00     0.021 A 
HETATM    4  C   UNK N   1      35.562  11.342  17.562  0.00  0.00     0.012 A 
HETATM    5 Br   UNK N   1      34.977  10.275  19.027  0.00  0.00    -0.051 Br
HETATM    6  C   UNK N   1      36.362  10.779  16.563  0.00  0.00     0.038 A 
HETATM    7  C   UNK N   1      36.759  11.525  15.440  0.00  0.00     0.060 A 
ENDROOT
BRANCH   1   8
HETATM    8  N   UNK N   1      36.613  13.595  14.161  0.00  0.00    -0.326 N 
HETATM    9  C   UNK N   1      35.789  13.872  13.131  0.00  0.00     0.222 C 
HETATM   10  O   UNK N   1      34.614  13.539  13.145  0.00  0.00    -0.273 OA
HETATM   11  H   UNK N   1      37.533  13.936  14.083  0.00  0.00     0.169 HD
BRANCH   9  12
HETATM   12  C   UNK N   1      36.376  14.464  11.905  0.00  0.00     0.112 C 
BRANCH  12  13
HETATM   13  C   UNK N   1      35.364  14.521  10.778  0.00  0.00     0.112 C 
BRANCH  13  14
HETATM   14  C   UNK N   1      35.416  15.889  10.172  0.00  0.00     0.220 C 
HETATM   15  O   UNK N   1      36.126  16.738  10.689  0.00  0.00    -0.273 OA
HETATM   16  N   UNK N   1      34.688  16.184   9.055  0.00  0.00    -0.348 N 
HETATM   17  C   UNK N   1      33.799  15.203   8.458  0.00  0.00     0.152 C 
HETATM   18  C   UNK N   1      34.697  17.517   8.493  0.00  0.00     0.152 C 
HETATM   19  C   UNK N   1      32.411  15.826   8.259  0.00  0.00     0.187 C 
HETATM   20  O   UNK N   1      32.337  17.103   8.855  0.00  0.00    -0.388 OA
HETATM   21  C   UNK N   1      33.251  17.926   8.165  0.00  0.00     0.187 C 
ENDBRANCH  13  14
ENDBRANCH  12  13
ENDBRANCH   9  12
ENDBRANCH   1   8
BRANCH   7  22
HETATM   22  C   UNK N   1      37.558  10.903  14.303  0.00  0.00     0.256 C 
HETATM   23  N   UNK N   1      37.010  10.175  13.282  0.00  0.00    -0.347 N 
HETATM   24  C   UNK N   1      37.879   9.767  12.183  0.00  0.00     0.130 C 
HETATM   25  C   UNK N   1      35.596   9.870  13.208  0.00  0.00     0.130 C 
HETATM   26  C   UNK N   1      37.134   9.061  11.053  0.00  0.00    -0.000 C 
HETATM   27  C   UNK N   1      35.829   9.790  10.688  0.00  0.00     0.011 C 
HETATM   28  C   UNK N   1      36.844   7.628  11.459  0.00  0.00     0.011 C 
HETATM   29  C   UNK N   1      35.058  10.381  11.882  0.00  0.00    -0.000 C 
HETATM   30  C   UNK N   1      33.587  10.045  11.766  0.00  0.00     0.011 C 
HETATM   31  O   UNK N   1      38.768  11.090  14.275  0.00  0.00    -0.267 OA
ENDBRANCH   7  22
TORSDOF 5
ENDMDL
MODEL 4
REMARK VINA RESULT:      -7.3      1.406      2.080
REMARK  5 active torsions:
REMARK  status: ('A' for Active; 'I' for Inactive)
REMARK    1  A    between atoms: C_2  and  C_9 
REMARK       I    between atoms: N_3  and  C_2 
REMARK    2  A    between atoms: C_9  and  C_10 
REMARK    3  A    between atoms: C_10  and  C_11 
REMARK       I    between atoms: N_13  and  C_11 
REMARK    4  A    between atoms: N_13  and  C_14 
REMARK    5  A    between atoms: C_21  and  C_20 
REMARK       I    between atoms: C_21  and  N_23 
ROOT
HETATM    1  C   UNK N   1      25.826  25.493  -5.264  0.00  0.00     0.050 A 
HETATM    2  C   UNK N   1      25.237  26.621  -5.859  0.00  0.00     0.032 A 
HETATM    3  C   UNK N   1      25.469  27.893  -5.342  0.00  0.00     0.021 A 
HETATM    4  C   UNK N   1      26.285  28.050  -4.225  0.00  0.00     0.012 A 
HETATM    5 Br   UNK N   1      26.526  29.778  -3.462  0.00  0.00    -0.051 Br
HETATM    6  C   UNK N   1      26.887  26.935  -3.634  0.00  0.00     0.038 A 
HETATM    7  C   UNK N   1      26.678  25.640  -4.139  0.00  0.00     0.060 A 
ENDROOT
BRANCH   1   8
HETATM    8  N   UNK N   1      25.519  24.183  -5.712  0.00  0.00    -0.326 N 
HETATM    9  C   UNK N   1      26.106  23.494  -6.709  0.00  0.00     0.222 C 
HETATM   10  O   UNK N   1      27.052  23.950  -7.331  0.00  0.00    -0.273 OA
HETATM   11  H   UNK N   1      24.789  23.723  -5.238  0.00  0.00     0.169 HD
BRANCH   9  12
HETATM   12  C   UNK N   1      25.480  22.221  -7.142  0.00  0.00     0.112 C 
BRANCH  12  13
HETATM   13  C   UNK N   1      26.491  21.302  -7.800  0.00  0.00     0.112 C 
BRANCH  13  14
HETATM   14  C   UNK N   1      26.338  21.426  -9.285  0.00  0.00     0.220 C 
HETATM   15  O   UNK N   1      25.218  21.369  -9.771  0.00  0.00    -0.273 OA
HETATM   16  N   UNK N   1      27.430  21.608 -10.084  0.00  0.00    -0.348 N 
HETATM   17  C   UNK N   1      28.772  21.626  -9.529  0.00  0.00     0.152 C 
HETATM   18  C   UNK N   1      27.294  21.680 -11.523  0.00  0.00     0.152 C 
HETATM   19  C   UNK N   1      29.661  20.648 -10.309  0.00  0.00     0.187 C 
HETATM   20  O   UNK N   1      28.900  19.892 -11.226  0.00  0.00    -0.388 OA
HETATM   21  C   UNK N   1      28.377  20.801 -12.168  0.00  0.00     0.187 C 
ENDBRANCH  13  14
ENDBRANCH  12  13
ENDBRANCH   9  12
ENDBRANCH   1   8
BRANCH   7  22
HETATM   22  C   UNK N   1      27.258  24.408  -3.456  0.00  0.00     0.256 C 
HETATM   23  N   UNK N   1      28.519  23.926  -3.676  0.00  0.00    -0.347 N 
HETATM   24  C   UNK N   1      28.991  22.825  -2.841  0.00  0.00     0.130 C 
HETATM   25  C   UNK N   1      29.427  24.515  -4.638  0.00  0.00     0.130 C 
HETATM   26  C   UNK N   1      30.448  22.450  -3.102  0.00  0.00    -0.000 C 
HETATM   27  C   UNK N   1      31.347  23.694  -3.207  0.00  0.00     0.011 C 
HETATM   28  C   UNK N   1      30.536  21.626  -4.374  0.00  0.00     0.011 C 
HETATM   29  C   UNK N   1      30.711  24.900  -3.922  0.00  0.00    -0.000 C 
HETATM   30  C   UNK N   1      31.690  25.489  -4.914  0.00  0.00     0.011 C 
HETATM   31  O   UNK N   1      26.568  23.824  -2.629  0.00  0.00    -0.267 OA
ENDBRANCH   7  22
TORSDOF 5
ENDMDL
MODEL 5
REMARK VINA RESULT:      -7.2     12.110     15.490
REMARK  5 active torsions:
REMARK  status: ('A' for Active; 'I' for Inactive)
REMARK    1  A    between atoms: C_2  and  C_9 
REMARK       I    between atoms: N_3  and  C_2 
REMARK    2  A    between atoms: C_9  and  C_10 
REMARK    3  A    between atoms: C_10  and  C_11 
REMARK       I    between atoms: N_13  and  C_11 
REMARK    4  A    between atoms: N_13  and  C_14 
REMARK    5  A    between atoms: C_21  and  C_20 
REMARK       I    between atoms: C_21  and  N_23 
ROOT
HETATM    1  C   UNK N   1      24.231  16.449   5.780  0.00  0.00     0.050 A 
HETATM    2  C   UNK N   1      24.929  15.278   6.122  0.00  0.00     0.032 A 
HETATM    3  C   UNK N   1      24.246  14.165   6.605  0.00  0.00     0.021 A 
HETATM    4  C   UNK N   1      22.862  14.212   6.755  0.00  0.00     0.012 A 
HETATM    5 Br   UNK N   1      21.939  12.724   7.504  0.00  0.00    -0.051 Br
HETATM    6  C   UNK N   1      22.157  15.367   6.404  0.00  0.00     0.038 A 
HETATM    7  C   UNK N   1      22.819  16.503   5.906  0.00  0.00     0.060 A 
ENDROOT
BRANCH   1   8
HETATM    8  N   UNK N   1      24.920  17.624   5.386  0.00  0.00    -0.326 N 
HETATM    9  C   UNK N   1      25.488  17.887   4.193  0.00  0.00     0.222 C 
HETATM   10  O   UNK N   1      25.416  17.098   3.264  0.00  0.00    -0.273 OA
HETATM   11  H   UNK N   1      24.992  18.333   6.066  0.00  0.00     0.169 HD
BRANCH   9  12
HETATM   12  C   UNK N   1      26.338  19.096   4.074  0.00  0.00     0.112 C 
BRANCH  12  13
HETATM   13  C   UNK N   1      27.766  18.814   4.499  0.00  0.00     0.112 C 
BRANCH  13  14
HETATM   14  C   UNK N   1      27.916  19.216   5.933  0.00  0.00     0.220 C 
HETATM   15  O   UNK N   1      27.671  20.370   6.252  0.00  0.00    -0.273 OA
HETATM   16  N   UNK N   1      28.313  18.309   6.873  0.00  0.00    -0.348 N 
HETATM   17  C   UNK N   1      28.659  16.948   6.504  0.00  0.00     0.152 C 
HETATM   18  C   UNK N   1      28.506  18.704   8.252  0.00  0.00     0.152 C 
HETATM   19  C   UNK N   1      30.032  16.593   7.088  0.00  0.00     0.187 C 
HETATM   20  O   UNK N   1      30.644  17.724   7.671  0.00  0.00    -0.388 OA
HETATM   21  C   UNK N   1      29.831  18.110   8.756  0.00  0.00     0.187 C 
ENDBRANCH  13  14
ENDBRANCH  12  13
ENDBRANCH   9  12
ENDBRANCH   1   8
BRANCH   7  22
HETATM   22  C   UNK N   1      22.076  17.796   5.599  0.00  0.00     0.256 C 
HETATM   23  N   UNK N   1      21.578  18.126   4.369  0.00  0.00    -0.347 N 
HETATM   24  C   UNK N   1      20.759  19.329   4.257  0.00  0.00     0.130 C 
HETATM   25  C   UNK N   1      21.758  17.290   3.200  0.00  0.00     0.130 C 
HETATM   26  C   UNK N   1      20.168  19.532   2.864  0.00  0.00    -0.000 C 
HETATM   27  C   UNK N   1      19.585  18.226   2.297  0.00  0.00     0.011 C 
HETATM   28  C   UNK N   1      21.238  20.080   1.938  0.00  0.00     0.011 C 
HETATM   29  C   UNK N   1      20.391  16.956   2.626  0.00  0.00    -0.000 C 
HETATM   30  C   UNK N   1      20.554  16.109   1.384  0.00  0.00     0.011 C 
HETATM   31  O   UNK N   1      21.878  18.583   6.517  0.00  0.00    -0.267 OA
ENDBRANCH   7  22
TORSDOF 5
ENDMDL
MODEL 6
REMARK VINA RESULT:      -7.2     12.640     16.440
REMARK  5 active torsions:
REMARK  status: ('A' for Active; 'I' for Inactive)
REMARK    1  A    between atoms: C_2  and  C_9 
REMARK       I    between atoms: N_3  and  C_2 
REMARK    2  A    between atoms: C_9  and  C_10 
REMARK    3  A    between atoms: C_10  and  C_11 
REMARK       I    between atoms: N_13  and  C_11 
REMARK    4  A    between atoms: N_13  and  C_14 
REMARK    5  A    between atoms: C_21  and  C_20 
REMARK       I    between atoms: C_21  and  N_23 
ROOT
HETATM    1  C   UNK N   1      30.141  16.153   6.049  0.00  0.00     0.050 A 
HETATM    2  C   UNK N   1      30.560  15.008   5.351  0.00  0.00     0.032 A 
HETATM    3  C   UNK N   1      29.626  14.092   4.876  0.00  0.00     0.021 A 
HETATM    4  C   UNK N   1      28.268  14.306   5.097  0.00  0.00     0.012 A 
HETATM    5 Br   UNK N   1      26.998  13.005   4.530  0.00  0.00    -0.051 Br
HETATM    6  C   UNK N   1      27.841  15.449   5.779  0.00  0.00     0.038 A 
HETATM    7  C   UNK N   1      28.760  16.396   6.263  0.00  0.00     0.060 A 
ENDROOT
BRANCH   1   8
HETATM    8  N   UNK N   1      31.081  17.043   6.630  0.00  0.00    -0.326 N 
HETATM    9  C   UNK N   1      31.668  16.949   7.838  0.00  0.00     0.222 C 
HETATM   10  O   UNK N   1      31.464  15.997   8.576  0.00  0.00    -0.273 OA
HETATM   11  H   UNK N   1      31.334  17.823   6.085  0.00  0.00     0.169 HD
BRANCH   9  12
HETATM   12  C   UNK N   1      32.459  18.105   8.324  0.00  0.00     0.112 C 
BRANCH  12  13
HETATM   13  C   UNK N   1      33.939  17.782   8.379  0.00  0.00     0.112 C 
BRANCH  13  14
HETATM   14  C   UNK N   1      34.330  17.158   7.076  0.00  0.00     0.220 C 
HETATM   15  O   UNK N   1      34.221  17.813   6.050  0.00  0.00    -0.273 OA
HETATM   16  N   UNK N   1      34.809  15.880   7.032  0.00  0.00    -0.348 N 
HETATM   17  C   UNK N   1      34.897  15.069   8.234  0.00  0.00     0.152 C 
HETATM   18  C   UNK N   1      35.144  15.255   5.771  0.00  0.00     0.152 C 
HETATM   19  C   UNK N   1      34.218  13.715   7.987  0.00  0.00     0.187 C 
HETATM   20  O   UNK N   1      33.562  13.696   6.738  0.00  0.00    -0.388 OA
HETATM   21  C   UNK N   1      34.561  13.833   5.752  0.00  0.00     0.187 C 
ENDBRANCH  13  14
ENDBRANCH  12  13
ENDBRANCH   9  12
ENDBRANCH   1   8
BRANCH   7  22
HETATM   22  C   UNK N   1      28.316  17.602   7.080  0.00  0.00     0.256 C 
HETATM   23  N   UNK N   1      27.843  18.768   6.541  0.00  0.00    -0.347 N 
HETATM   24  C   UNK N   1      27.316  19.782   7.448  0.00  0.00     0.130 C 
HETATM   25  C   UNK N   1      27.768  18.998   5.113  0.00  0.00     0.130 C 
HETATM   26  C   UNK N   1      26.715  20.986   6.726  0.00  0.00    -0.000 C 
HETATM   27  C   UNK N   1      25.823  20.558   5.548  0.00  0.00     0.011 C 
HETATM   28  C   UNK N   1      27.834  21.891   6.241  0.00  0.00     0.011 C 
HETATM   29  C   UNK N   1      26.334  19.344   4.751  0.00  0.00    -0.000 C 
HETATM   30  C   UNK N   1      26.236  19.621   3.267  0.00  0.00     0.011 C 
HETATM   31  O   UNK N   1      28.349  17.520   8.301  0.00  0.00    -0.267 OA
ENDBRANCH   7  22
TORSDOF 5
ENDMDL
MODEL 7
REMARK VINA RESULT:      -7.0      2.107      3.465
REMARK  5 active torsions:
REMARK  status: ('A' for Active; 'I' for Inactive)
REMARK    1  A    between atoms: C_2  and  C_9 
REMARK       I    between atoms: N_3  and  C_2 
REMARK    2  A    between atoms: C_9  and  C_10 
REMARK    3  A    between atoms: C_10  and  C_11 
REMARK       I    between atoms: N_13  and  C_11 
REMARK    4  A    between atoms: N_13  and  C_14 
REMARK    5  A    between atoms: C_21  and  C_20 
REMARK       I    between atoms: C_21  and  N_23 
ROOT
HETATM    1  C   UNK N   1      27.651  27.551  -4.019  0.00  0.00     0.050 A 
HETATM    2  C   UNK N   1      27.115  28.440  -3.073  0.00  0.00     0.032 A 
HETATM    3  C   UNK N   1      27.951  29.274  -2.335  0.00  0.00     0.021 A 
HETATM    4  C   UNK N   1      29.329  29.224  -2.531  0.00  0.00     0.012 A 
HETATM    5 Br   UNK N   1      30.479  30.296  -1.455  0.00  0.00    -0.051 Br
HETATM    6  C   UNK N   1      29.871  28.353  -3.480  0.00  0.00     0.038 A 
HETATM    7  C   UNK N   1      29.051  27.506  -4.246  0.00  0.00     0.060 A 
ENDROOT
BRANCH   1   8
HETATM    8  N   UNK N   1      26.826  26.624  -4.704  0.00  0.00    -0.326 N 
HETATM    9  C   UNK N   1      26.299  25.479  -4.227  0.00  0.00     0.222 C 
HETATM   10  O   UNK N   1      26.460  25.137  -3.066  0.00  0.00    -0.273 OA
HETATM   11  H   UNK N   1      26.613  26.841  -5.640  0.00  0.00     0.169 HD
BRANCH   9  12
HETATM   12  C   UNK N   1      25.641  24.559  -5.186  0.00  0.00     0.112 C 
BRANCH  12  13
HETATM   13  C   UNK N   1      26.634  23.591  -5.796  0.00  0.00     0.112 C 
BRANCH  13  14
HETATM   14  C   UNK N   1      26.882  24.005  -7.213  0.00  0.00     0.220 C 
HETATM   15  O   UNK N   1      26.963  25.196  -7.475  0.00  0.00    -0.273 OA
HETATM   16  N   UNK N   1      27.023  23.070  -8.198  0.00  0.00    -0.348 N 
HETATM   17  C   UNK N   1      26.878  21.653  -7.914  0.00  0.00     0.152 C 
HETATM   18  C   UNK N   1      27.216  23.466  -9.576  0.00  0.00     0.152 C 
HETATM   19  C   UNK N   1      25.885  21.033  -8.905  0.00  0.00     0.187 C 
HETATM   20  O   UNK N   1      25.271  22.026  -9.698  0.00  0.00    -0.388 OA
HETATM   21  C   UNK N   1      26.292  22.620 -10.468  0.00  0.00     0.187 C 
ENDBRANCH  13  14
ENDBRANCH  12  13
ENDBRANCH   9  12
ENDBRANCH   1   8
BRANCH   7  22
HETATM   22  C   UNK N   1      29.632  26.492  -5.222  0.00  0.00     0.256 C 
HETATM   23  N   UNK N   1      30.112  25.262  -4.863  0.00  0.00    -0.347 N 
HETATM   24  C   UNK N   1      30.500  24.337  -5.924  0.00  0.00     0.130 C 
HETATM   25  C   UNK N   1      30.169  24.814  -3.487  0.00  0.00     0.130 C 
HETATM   26  C   UNK N   1      30.911  22.961  -5.407  0.00  0.00    -0.000 C 
HETATM   27  C   UNK N   1      29.936  22.440  -4.336  0.00  0.00     0.011 C 
HETATM   28  C   UNK N   1      32.320  23.034  -4.847  0.00  0.00     0.011 C 
HETATM   29  C   UNK N   1      29.398  23.510  -3.368  0.00  0.00    -0.000 C 
HETATM   30  C   UNK N   1      29.470  23.003  -1.945  0.00  0.00     0.011 C 
HETATM   31  O   UNK N   1      29.643  26.775  -6.414  0.00  0.00    -0.267 OA
ENDBRANCH   7  22
TORSDOF 5
ENDMDL
MODEL 8
REMARK VINA RESULT:      -7.0      2.012      3.212
REMARK  5 active torsions:
REMARK  status: ('A' for Active; 'I' for Inactive)
REMARK    1  A    between atoms: C_2  and  C_9 
REMARK       I    between atoms: N_3  and  C_2 
REMARK    2  A    between atoms: C_9  and  C_10 
REMARK    3  A    between atoms: C_10  and  C_11 
REMARK       I    between atoms: N_13  and  C_11 
REMARK    4  A    between atoms: N_13  and  C_14 
REMARK    5  A    between atoms: C_21  and  C_20 
REMARK       I    between atoms: C_21  and  N_23 
ROOT
HETATM    1  C   UNK N   1      27.294  28.447  -5.035  0.00  0.00     0.050 A 
HETATM    2  C   UNK N   1      27.341  29.848  -5.127  0.00  0.00     0.032 A 
HETATM    3  C   UNK N   1      27.611  30.620  -4.001  0.00  0.00     0.021 A 
HETATM    4  C   UNK N   1      27.832  30.002  -2.772  0.00  0.00     0.012 A 
HETATM    5 Br   UNK N   1      28.109  31.062  -1.214  0.00  0.00    -0.051 Br
HETATM    6  C   UNK N   1      27.801  28.608  -2.673  0.00  0.00     0.038 A 
HETATM    7  C   UNK N   1      27.539  27.802  -3.794  0.00  0.00     0.060 A 
ENDROOT
BRANCH   1   8
HETATM    8  N   UNK N   1      26.918  27.651  -6.146  0.00  0.00    -0.326 N 
HETATM    9  C   UNK N   1      25.702  27.140  -6.422  0.00  0.00     0.222 C 
HETATM   10  O   UNK N   1      24.736  27.373  -5.713  0.00  0.00    -0.273 OA
HETATM   11  H   UNK N   1      27.631  27.445  -6.793  0.00  0.00     0.169 HD
BRANCH   9  12
HETATM   12  C   UNK N   1      25.589  26.161  -7.530  0.00  0.00     0.112 C 
BRANCH  12  13
HETATM   13  C   UNK N   1      26.571  25.018  -7.361  0.00  0.00     0.112 C 
BRANCH  13  14
HETATM   14  C   UNK N   1      25.800  23.792  -6.979  0.00  0.00     0.220 C 
HETATM   15  O   UNK N   1      25.398  23.680  -5.831  0.00  0.00    -0.273 OA
HETATM   16  N   UNK N   1      25.543  22.817  -7.899  0.00  0.00    -0.348 N 
HETATM   17  C   UNK N   1      26.058  22.909  -9.255  0.00  0.00     0.152 C 
HETATM   18  C   UNK N   1      24.841  21.609  -7.525  0.00  0.00     0.152 C 
HETATM   19  C   UNK N   1      26.783  21.606  -9.615  0.00  0.00     0.187 C 
HETATM   20  O   UNK N   1      26.893  20.758  -8.492  0.00  0.00    -0.388 OA
HETATM   21  C   UNK N   1      25.580  20.400  -8.123  0.00  0.00     0.187 C 
ENDBRANCH  13  14
ENDBRANCH  12  13
ENDBRANCH   9  12
ENDBRANCH   1   8
BRANCH   7  22
HETATM   22  C   UNK N   1      27.419  26.288  -3.686  0.00  0.00     0.256 C 
HETATM   23  N   UNK N   1      28.392  25.407  -4.071  0.00  0.00    -0.347 N 
HETATM   24  C   UNK N   1      28.199  23.992  -3.770  0.00  0.00     0.130 C 
HETATM   25  C   UNK N   1      29.635  25.830  -4.683  0.00  0.00     0.130 C 
HETATM   26  C   UNK N   1      29.397  23.124  -4.144  0.00  0.00    -0.000 C 
HETATM   27  C   UNK N   1      30.725  23.765  -3.704  0.00  0.00     0.011 C 
HETATM   28  C   UNK N   1      29.398  22.886  -5.644  0.00  0.00     0.011 C 
HETATM   29  C   UNK N   1      30.791  25.296  -3.854  0.00  0.00    -0.000 C 
HETATM   30  C   UNK N   1      32.102  25.698  -4.492  0.00  0.00     0.011 C 
HETATM   31  O   UNK N   1      26.400  25.821  -3.191  0.00  0.00    -0.267 OA
ENDBRANCH   7  22
TORSDOF 5
ENDMDL
MODEL 9
REMARK VINA RESULT:      -7.0      3.172      6.265
REMARK  5 active torsions:
REMARK  status: ('A' for Active; 'I' for Inactive)
REMARK    1  A    between atoms: C_2  and  C_9 
REMARK       I    between atoms: N_3  and  C_2 
REMARK    2  A    between atoms: C_9  and  C_10 
REMARK    3  A    between atoms: C_10  and  C_11 
REMARK       I    between atoms: N_13  and  C_11 
REMARK    4  A    between atoms: N_13  and  C_14 
REMARK    5  A    between atoms: C_21  and  C_20 
REMARK       I    between atoms: C_21  and  N_23 
ROOT
HETATM    1  C   UNK N   1      27.712  23.883  -5.635  0.00  0.00     0.050 A 
HETATM    2  C   UNK N   1      27.886  23.039  -6.745  0.00  0.00     0.032 A 
HETATM    3  C   UNK N   1      27.243  23.315  -7.948  0.00  0.00     0.021 A 
HETATM    4  C   UNK N   1      26.416  24.431  -8.054  0.00  0.00     0.012 A 
HETATM    5 Br   UNK N   1      25.462  24.755  -9.670  0.00  0.00    -0.051 Br
HETATM    6  C   UNK N   1      26.248  25.284  -6.959  0.00  0.00     0.038 A 
HETATM    7  C   UNK N   1      26.891  25.036  -5.735  0.00  0.00     0.060 A 
ENDROOT
BRANCH   1   8
HETATM    8  N   UNK N   1      28.276  23.561  -4.374  0.00  0.00    -0.326 N 
HETATM    9  C   UNK N   1      29.506  23.868  -3.918  0.00  0.00     0.222 C 
HETATM   10  O   UNK N   1      30.284  24.536  -4.580  0.00  0.00    -0.273 OA
HETATM   11  H   UNK N   1      27.700  23.053  -3.759  0.00  0.00     0.169 HD
BRANCH   9  12
HETATM   12  C   UNK N   1      29.956  23.246  -2.650  0.00  0.00     0.112 C 
BRANCH  12  13
HETATM   13  C   UNK N   1      30.140  21.749  -2.800  0.00  0.00     0.112 C 
BRANCH  13  14
HETATM   14  C   UNK N   1      31.585  21.481  -3.084  0.00  0.00     0.220 C 
HETATM   15  O   UNK N   1      32.406  21.669  -2.198  0.00  0.00    -0.273 OA
HETATM   16  N   UNK N   1      31.982  21.026  -4.309  0.00  0.00    -0.348 N 
HETATM   17  C   UNK N   1      31.027  20.847  -5.388  0.00  0.00     0.152 C 
HETATM   18  C   UNK N   1      33.382  20.811  -4.603  0.00  0.00     0.152 C 
HETATM   19  C   UNK N   1      31.537  21.563  -6.645  0.00  0.00     0.187 C 
HETATM   20  O   UNK N   1      32.691  22.326  -6.363  0.00  0.00    -0.388 OA
HETATM   21  C   UNK N   1      33.697  21.414  -5.982  0.00  0.00     0.187 C 
ENDBRANCH  13  14
ENDBRANCH  12  13
ENDBRANCH   9  12
ENDBRANCH   1   8
BRANCH   7  22
HETATM   22  C   UNK N   1      26.652  25.907  -4.509  0.00  0.00     0.256 C 
HETATM   23  N   UNK N   1      27.206  27.144  -4.322  0.00  0.00    -0.347 N 
HETATM   24  C   UNK N   1      26.769  27.928  -3.170  0.00  0.00     0.130 C 
HETATM   25  C   UNK N   1      28.137  27.736  -5.260  0.00  0.00     0.130 C 
HETATM   26  C   UNK N   1      27.370  29.330  -3.129  0.00  0.00    -0.000 C 
HETATM   27  C   UNK N   1      27.321  30.012  -4.508  0.00  0.00     0.011 C 
HETATM   28  C   UNK N   1      28.802  29.250  -2.630  0.00  0.00     0.011 C 
HETATM   29  C   UNK N   1      27.589  29.082  -5.705  0.00  0.00    -0.000 C 
HETATM   30  C   UNK N   1      28.561  29.736  -6.662  0.00  0.00     0.011 C 
HETATM   31  O   UNK N   1      25.886  25.497  -3.646  0.00  0.00    -0.267 OA
ENDBRANCH   7  22
TORSDOF 5
ENDMDL
