REMARK  5 active torsions:
REMARK  status: ('A' for Active; 'I' for Inactive)
REMARK    1  A    between atoms: C_3  and  C_6 
REMARK    2  A    between atoms: N_5  and  C_9 
REMARK       I    between atoms: C_10  and  N_11 
REMARK    3  A    between atoms: C_10  and  C_14 
REMARK    4  A    between atoms: C_15  and  N_16 
REMARK    5  A    between atoms: C_20  and  C_21 
ROOT
HETATM    1  C   UNK N   1      -4.147  -2.680  -0.206  0.00  0.00     0.104 A 
HETATM    2  C   UNK N   1      -3.330  -1.550  -0.101  0.00  0.00     0.022 A 
HETATM    3  C   UNK N   1       0.350  -2.177   0.024  0.00  0.00    -0.009 A 
HETATM    4  C   UNK N   1       0.230  -3.591  -0.002  0.00  0.00     0.102 A 
HETATM    5  N   UNK N   1      -1.008  -4.178  -0.077  0.00  0.00    -0.351 N 
ATOM      6  HN  UNK N   1      -1.097  -5.193  -0.110  1.00  0.00     0.166 HD
HETATM    7  C   UNK N   1      -0.819  -1.401  -0.004  0.00  0.00     0.030 A 
HETATM    8  C   UNK N   1      -2.040  -2.032  -0.055  0.00  0.00     0.023 A 
HETATM    9  C   UNK N   1      -2.114  -3.387  -0.106  0.00  0.00     0.116 A 
HETATM   10  N   UNK N   1      -3.386  -3.807  -0.198  0.00  0.00    -0.351 N 
HETATM   11  H   UNK N   1      -3.702  -4.737  -0.248  0.00  0.00     0.166 HD
ENDROOT
BRANCH   3  12
HETATM   12  C   UNK N   1       1.653  -1.481   0.097  0.00  0.00    -0.024 A 
HETATM   13  C   UNK N   1       2.855  -2.165   0.260  0.00  0.00     0.014 A 
HETATM   14  C   UNK N   1       4.046  -1.447   0.383  0.00  0.00     0.031 A 
HETATM   15  C   UNK N   1       4.064  -0.044   0.318  0.00  0.00     0.041 A 
HETATM   16  C   UNK N   1       2.846   0.676   0.103  0.00  0.00     0.059 A 
HETATM   17  C   UNK N   1       1.673  -0.086   0.021  0.00  0.00     0.031 A 
BRANCH  15  18
HETATM   18  N   UNK N   1       5.294   0.591   0.555  0.00  0.00    -0.398 N 
HETATM   19  H   UNK N   1       6.111   0.068   0.721  0.00  0.00     0.156 HD
HETATM   20  H   UNK N   1       5.340   1.575   0.555  0.00  0.00     0.156 HD
ENDBRANCH  15  18
BRANCH  16  21
HETATM   21  C   UNK N   1       2.617   2.179   0.000  0.00  0.00     0.255 C 
HETATM   22  O   UNK N   1       1.461   2.557   0.160  0.00  0.00    -0.267 OA
HETATM   23  N   UNK N   1       3.558   3.135  -0.299  0.00  0.00    -0.357 N 
HETATM   24  C   UNK N   1       3.160   4.522  -0.358  0.00  0.00     0.152 C 
HETATM   25  C   UNK N   1       4.907   2.845  -0.686  0.00  0.00     0.152 C 
ENDBRANCH  16  21
ENDBRANCH   3  12
BRANCH   2  26
HETATM   26  C   UNK N   1      -3.830  -0.145  -0.069  0.00  0.00     0.064 A 
HETATM   27  N   UNK N   1      -3.166   0.973   0.311  0.00  0.00    -0.292 N 
HETATM   28  N   UNK N   1      -3.978   2.012   0.204  0.00  0.00    -0.309 N 
HETATM   29  C   UNK N   1      -5.173   1.583  -0.242  0.00  0.00     0.109 A 
ATOM     30  HN  UNK N   1      -3.738   2.979   0.424  1.00  0.00     0.186 HD
HETATM   31  C   UNK N   1      -5.120   0.208  -0.417  0.00  0.00     0.050 A 
BRANCH  27  32
HETATM   32  C   UNK N   1      -1.805   1.076   0.832  0.00  0.00     0.145 C 
HETATM   33  C   UNK N   1      -1.454   2.487   1.278  0.00  0.00     0.028 C 
ENDBRANCH  27  32
ENDBRANCH   2  26
TORSDOF 5
