MODEL 1
REMARK VINA RESULT:      -7.7      0.000      0.000
REMARK  5 active torsions:
REMARK  status: ('A' for Active; 'I' for Inactive)
REMARK    1  A    between atoms: C_3  and  C_6 
REMARK    2  A    between atoms: N_5  and  C_9 
REMARK       I    between atoms: C_10  and  N_11 
REMARK    3  A    between atoms: C_10  and  C_14 
REMARK    4  A    between atoms: C_15  and  N_16 
REMARK    5  A    between atoms: C_20  and  C_21 
ROOT
HETATM    1  C   UNK N   1      24.602  20.288   2.718  0.00  0.00     0.104 A 
HETATM    2  C   UNK N   1      24.890  19.385   3.745  0.00  0.00     0.022 A 
HETATM    3  C   UNK N   1      21.952  17.890   5.502  0.00  0.00    -0.009 A 
HETATM    4  C   UNK N   1      20.987  18.630   4.770  0.00  0.00     0.102 A 
HETATM    5  N   UNK N   1      21.385  19.503   3.790  0.00  0.00    -0.351 N 
ATOM      6  HN  UNK N   1      20.694  20.026   3.253  1.00  0.00     0.166 HD
HETATM    7  C   UNK N   1      23.312  18.088   5.217  0.00  0.00     0.030 A 
HETATM    8  C   UNK N   1      23.666  18.991   4.242  0.00  0.00     0.023 A 
HETATM    9  C   UNK N   1      22.714  19.662   3.544  0.00  0.00     0.116 A 
HETATM   10  N   UNK N   1      23.257  20.458   2.610  0.00  0.00    -0.351 N 
HETATM   11  H   UNK N   1      22.781  21.044   1.980  0.00  0.00     0.166 HD
ENDROOT
BRANCH   3  12
HETATM   12  C   UNK N   1      21.591  16.928   6.566  0.00  0.00    -0.024 A 
HETATM   13  C   UNK N   1      22.322  15.765   6.799  0.00  0.00     0.014 A 
HETATM   14  C   UNK N   1      21.895  14.867   7.778  0.00  0.00     0.031 A 
HETATM   15  C   UNK N   1      20.755  15.122   8.558  0.00  0.00     0.041 A 
HETATM   16  C   UNK N   1      20.017  16.334   8.367  0.00  0.00     0.059 A 
HETATM   17  C   UNK N   1      20.464  17.187   7.350  0.00  0.00     0.031 A 
BRANCH  15  18
HETATM   18  N   UNK N   1      20.347  14.112   9.445  0.00  0.00    -0.398 N 
HETATM   19  H   UNK N   1      19.428  13.761   9.425  0.00  0.00     0.156 HD
HETATM   20  H   UNK N   1      20.991  13.750  10.096  0.00  0.00     0.156 HD
ENDBRANCH  15  18
BRANCH  16  21
HETATM   21  C   UNK N   1      18.763  16.824   9.081  0.00  0.00     0.255 C 
HETATM   22  O   UNK N   1      17.781  16.094   9.001  0.00  0.00    -0.267 OA
HETATM   23  N   UNK N   1      18.613  18.013   9.755  0.00  0.00    -0.357 N 
HETATM   24  C   UNK N   1      17.343  18.317  10.373  0.00  0.00     0.152 C 
HETATM   25  C   UNK N   1      19.601  19.050   9.790  0.00  0.00     0.152 C 
ENDBRANCH  16  21
ENDBRANCH   3  12
BRANCH   2  26
HETATM   26  C   UNK N   1      26.266  18.972   4.148  0.00  0.00     0.064 A 
HETATM   27  N   UNK N   1      27.183  19.681   4.848  0.00  0.00    -0.292 N 
HETATM   28  N   UNK N   1      28.281  18.954   4.976  0.00  0.00    -0.309 N 
HETATM   29  C   UNK N   1      28.091  17.772   4.362  0.00  0.00     0.109 A 
ATOM     30  HN  UNK N   1      29.132  19.243   5.460  1.00  0.00     0.186 HD
HETATM   31  C   UNK N   1      26.819  17.751   3.811  0.00  0.00     0.050 A 
BRANCH  27  32
HETATM   32  C   UNK N   1      27.072  21.051   5.343  0.00  0.00     0.145 C 
HETATM   33  C   UNK N   1      26.517  21.118   6.758  0.00  0.00     0.028 C 
ENDBRANCH  27  32
ENDBRANCH   2  26
TORSDOF 5
ENDMDL
MODEL 2
REMARK VINA RESULT:      -7.5      7.219     10.958
REMARK  5 active torsions:
REMARK  status: ('A' for Active; 'I' for Inactive)
REMARK    1  A    between atoms: C_3  and  C_6 
REMARK    2  A    between atoms: N_5  and  C_9 
REMARK       I    between atoms: C_10  and  N_11 
REMARK    3  A    between atoms: C_10  and  C_14 
REMARK    4  A    between atoms: C_15  and  N_16 
REMARK    5  A    between atoms: C_20  and  C_21 
ROOT
HETATM    1  C   UNK N   1      36.202  14.096   6.926  0.00  0.00     0.104 A 
HETATM    2  C   UNK N   1      35.233  14.340   7.905  0.00  0.00     0.022 A 
HETATM    3  C   UNK N   1      32.486  16.689   6.962  0.00  0.00    -0.009 A 
HETATM    4  C   UNK N   1      33.013  16.977   5.676  0.00  0.00     0.102 A 
HETATM    5  N   UNK N   1      34.170  16.374   5.252  0.00  0.00    -0.351 N 
ATOM      6  HN  UNK N   1      34.544  16.567   4.324  1.00  0.00     0.166 HD
HETATM    7  C   UNK N   1      33.184  15.799   7.792  0.00  0.00     0.030 A 
HETATM    8  C   UNK N   1      34.353  15.235   7.336  0.00  0.00     0.023 A 
HETATM    9  C   UNK N   1      34.812  15.514   6.089  0.00  0.00     0.116 A 
HETATM   10  N   UNK N   1      35.936  14.833   5.815  0.00  0.00    -0.351 N 
HETATM   11  H   UNK N   1      36.460  14.863   4.983  0.00  0.00     0.166 HD
ENDROOT
BRANCH   3  12
HETATM   12  C   UNK N   1      31.241  17.299   7.476  0.00  0.00    -0.024 A 
HETATM   13  C   UNK N   1      31.184  17.955   8.704  0.00  0.00     0.014 A 
HETATM   14  C   UNK N   1      29.965  18.457   9.162  0.00  0.00     0.031 A 
HETATM   15  C   UNK N   1      28.792  18.340   8.397  0.00  0.00     0.041 A 
HETATM   16  C   UNK N   1      28.838  17.712   7.112  0.00  0.00     0.059 A 
HETATM   17  C   UNK N   1      30.077  17.194   6.711  0.00  0.00     0.031 A 
BRANCH  15  18
HETATM   18  N   UNK N   1      27.598  18.784   8.987  0.00  0.00    -0.398 N 
HETATM   19  H   UNK N   1      26.859  19.131   8.438  0.00  0.00     0.156 HD
HETATM   20  H   UNK N   1      27.497  18.747   9.967  0.00  0.00     0.156 HD
ENDBRANCH  15  18
BRANCH  16  21
HETATM   21  C   UNK N   1      27.713  17.470   6.114  0.00  0.00     0.255 C 
HETATM   22  O   UNK N   1      27.235  16.340   6.109  0.00  0.00    -0.267 OA
HETATM   23  N   UNK N   1      27.220  18.367   5.197  0.00  0.00    -0.357 N 
HETATM   24  C   UNK N   1      26.145  17.962   4.321  0.00  0.00     0.152 C 
HETATM   25  C   UNK N   1      27.784  19.662   4.953  0.00  0.00     0.152 C 
ENDBRANCH  16  21
ENDBRANCH   3  12
BRANCH   2  26
HETATM   26  C   UNK N   1      35.218  13.708   9.256  0.00  0.00     0.064 A 
HETATM   27  N   UNK N   1      35.663  14.223  10.428  0.00  0.00    -0.292 N 
HETATM   28  N   UNK N   1      35.478  13.330  11.386  0.00  0.00    -0.309 N 
HETATM   29  C   UNK N   1      34.916  12.231  10.851  0.00  0.00     0.109 A 
ATOM     30  HN  UNK N   1      35.722  13.455  12.369  1.00  0.00     0.186 HD
HETATM   31  C   UNK N   1      34.745  12.431   9.489  0.00  0.00     0.050 A 
BRANCH  27  32
HETATM   32  C   UNK N   1      36.315  15.511  10.653  0.00  0.00     0.145 C 
HETATM   33  C   UNK N   1      35.322  16.655  10.784  0.00  0.00     0.028 C 
ENDBRANCH  27  32
ENDBRANCH   2  26
TORSDOF 5
ENDMDL
MODEL 3
REMARK VINA RESULT:      -7.3      4.161      7.851
REMARK  5 active torsions:
REMARK  status: ('A' for Active; 'I' for Inactive)
REMARK    1  A    between atoms: C_3  and  C_6 
REMARK    2  A    between atoms: N_5  and  C_9 
REMARK       I    between atoms: C_10  and  N_11 
REMARK    3  A    between atoms: C_10  and  C_14 
REMARK    4  A    between atoms: C_15  and  N_16 
REMARK    5  A    between atoms: C_20  and  C_21 
ROOT
HETATM    1  C   UNK N   1      31.795  16.251   8.628  0.00  0.00     0.104 A 
HETATM    2  C   UNK N   1      31.295  16.201   7.323  0.00  0.00     0.022 A 
HETATM    3  C   UNK N   1      28.438  18.483   6.559  0.00  0.00    -0.009 A 
HETATM    4  C   UNK N   1      28.336  18.991   7.880  0.00  0.00     0.102 A 
HETATM    5  N   UNK N   1      29.202  18.562   8.854  0.00  0.00    -0.351 N 
ATOM      6  HN  UNK N   1      29.140  18.935   9.801  1.00  0.00     0.166 HD
HETATM    7  C   UNK N   1      29.422  17.522   6.281  0.00  0.00     0.030 A 
HETATM    8  C   UNK N   1      30.254  17.103   7.294  0.00  0.00     0.023 A 
HETATM    9  C   UNK N   1      30.143  17.632   8.539  0.00  0.00     0.116 A 
HETATM   10  N   UNK N   1      31.070  17.129   9.371  0.00  0.00    -0.351 N 
HETATM   11  H   UNK N   1      31.197  17.350  10.321  0.00  0.00     0.166 HD
ENDROOT
BRANCH   3  12
HETATM   12  C   UNK N   1      27.542  18.908   5.462  0.00  0.00    -0.024 A 
HETATM   13  C   UNK N   1      27.669  20.144   4.833  0.00  0.00     0.014 A 
HETATM   14  C   UNK N   1      26.754  20.512   3.844  0.00  0.00     0.031 A 
HETATM   15  C   UNK N   1      25.719  19.648   3.448  0.00  0.00     0.041 A 
HETATM   16  C   UNK N   1      25.600  18.355   4.048  0.00  0.00     0.059 A 
HETATM   17  C   UNK N   1      26.520  18.045   5.059  0.00  0.00     0.031 A 
BRANCH  15  18
HETATM   18  N   UNK N   1      24.790  20.148   2.522  0.00  0.00    -0.398 N 
HETATM   19  H   UNK N   1      24.315  19.546   1.904  0.00  0.00     0.156 HD
HETATM   20  H   UNK N   1      24.609  21.116   2.489  0.00  0.00     0.156 HD
ENDBRANCH  15  18
BRANCH  16  21
HETATM   21  C   UNK N   1      24.574  17.259   3.788  0.00  0.00     0.255 C 
HETATM   22  O   UNK N   1      24.944  16.337   3.068  0.00  0.00    -0.267 OA
HETATM   23  N   UNK N   1      23.274  17.228   4.235  0.00  0.00    -0.357 N 
HETATM   24  C   UNK N   1      22.436  16.105   3.887  0.00  0.00     0.152 C 
HETATM   25  C   UNK N   1      22.636  18.305   4.932  0.00  0.00     0.152 C 
ENDBRANCH  16  21
ENDBRANCH   3  12
BRANCH   2  26
HETATM   26  C   UNK N   1      31.844  15.335   6.240  0.00  0.00     0.064 A 
HETATM   27  N   UNK N   1      32.764  15.652   5.298  0.00  0.00    -0.292 N 
HETATM   28  N   UNK N   1      32.960  14.601   4.518  0.00  0.00    -0.309 N 
HETATM   29  C   UNK N   1      32.172  13.595   4.942  0.00  0.00     0.109 A 
ATOM     30  HN  UNK N   1      33.602  14.560   3.726  1.00  0.00     0.186 HD
HETATM   31  C   UNK N   1      31.436  14.030   6.033  0.00  0.00     0.050 A 
BRANCH  27  32
HETATM   32  C   UNK N   1      33.415  16.940   5.076  0.00  0.00     0.145 C 
HETATM   33  C   UNK N   1      32.631  17.838   4.131  0.00  0.00     0.028 C 
ENDBRANCH  27  32
ENDBRANCH   2  26
TORSDOF 5
ENDMDL
MODEL 4
REMARK VINA RESULT:      -7.3     14.334     16.688
REMARK  5 active torsions:
REMARK  status: ('A' for Active; 'I' for Inactive)
REMARK    1  A    between atoms: C_3  and  C_6 
REMARK    2  A    between atoms: N_5  and  C_9 
REMARK       I    between atoms: C_10  and  N_11 
REMARK    3  A    between atoms: C_10  and  C_14 
REMARK    4  A    between atoms: C_15  and  N_16 
REMARK    5  A    between atoms: C_20  and  C_21 
ROOT
HETATM    1  C   UNK N   1      34.898  11.975  10.143  0.00  0.00     0.104 A 
HETATM    2  C   UNK N   1      34.930  12.896  11.195  0.00  0.00     0.022 A 
HETATM    3  C   UNK N   1      34.992  11.465  14.645  0.00  0.00    -0.009 A 
HETATM    4  C   UNK N   1      34.903  10.116  14.214  0.00  0.00     0.102 A 
HETATM    5  N   UNK N   1      34.855   9.819  12.875  0.00  0.00    -0.351 N 
ATOM      6  HN  UNK N   1      34.805   8.850  12.563  1.00  0.00     0.166 HD
HETATM    7  C   UNK N   1      35.004  12.481  13.677  0.00  0.00     0.030 A 
HETATM    8  C   UNK N   1      34.930  12.140  12.347  0.00  0.00     0.023 A 
HETATM    9  C   UNK N   1      34.873  10.836  11.972  0.00  0.00     0.116 A 
HETATM   10  N   UNK N   1      34.852  10.708  10.636  0.00  0.00    -0.351 N 
HETATM   11  H   UNK N   1      34.812   9.872  10.120  0.00  0.00     0.166 HD
ENDROOT
BRANCH   3  12
HETATM   12  C   UNK N   1      35.055  11.853  16.070  0.00  0.00    -0.024 A 
HETATM   13  C   UNK N   1      34.833  13.160  16.498  0.00  0.00     0.014 A 
HETATM   14  C   UNK N   1      34.967  13.475  17.851  0.00  0.00     0.031 A 
HETATM   15  C   UNK N   1      35.294  12.494  18.802  0.00  0.00     0.041 A 
HETATM   16  C   UNK N   1      35.478  11.135  18.390  0.00  0.00     0.059 A 
HETATM   17  C   UNK N   1      35.368  10.875  17.018  0.00  0.00     0.031 A 
BRANCH  15  18
HETATM   18  N   UNK N   1      35.506  12.927  20.120  0.00  0.00    -0.398 N 
HETATM   19  H   UNK N   1      34.754  13.038  20.745  0.00  0.00     0.156 HD
HETATM   20  H   UNK N   1      36.422  13.123  20.425  0.00  0.00     0.156 HD
ENDBRANCH  15  18
BRANCH  16  21
HETATM   21  C   UNK N   1      35.835   9.912  19.226  0.00  0.00     0.255 C 
HETATM   22  O   UNK N   1      37.033   9.701  19.383  0.00  0.00    -0.267 OA
HETATM   23  N   UNK N   1      34.958   9.007  19.774  0.00  0.00    -0.357 N 
HETATM   24  C   UNK N   1      35.476   7.898  20.540  0.00  0.00     0.152 C 
HETATM   25  C   UNK N   1      33.544   9.009  19.537  0.00  0.00     0.152 C 
ENDBRANCH  16  21
ENDBRANCH   3  12
BRANCH   2  26
HETATM   26  C   UNK N   1      34.973  14.377  11.021  0.00  0.00     0.064 A 
HETATM   27  N   UNK N   1      34.062  15.177  10.418  0.00  0.00    -0.292 N 
HETATM   28  N   UNK N   1      34.490  16.428  10.466  0.00  0.00    -0.309 N 
HETATM   29  C   UNK N   1      35.679  16.455  11.095  0.00  0.00     0.109 A 
ATOM     30  HN  UNK N   1      33.999  17.239  10.088  1.00  0.00     0.186 HD
HETATM   31  C   UNK N   1      36.026  15.160  11.454  0.00  0.00     0.050 A 
BRANCH  27  32
HETATM   32  C   UNK N   1      32.827  14.783   9.743  0.00  0.00     0.145 C 
HETATM   33  C   UNK N   1      32.407  15.773   8.667  0.00  0.00     0.028 C 
ENDBRANCH  27  32
ENDBRANCH   2  26
TORSDOF 5
ENDMDL
MODEL 5
REMARK VINA RESULT:      -7.3     13.172     15.198
REMARK  5 active torsions:
REMARK  status: ('A' for Active; 'I' for Inactive)
REMARK    1  A    between atoms: C_3  and  C_6 
REMARK    2  A    between atoms: N_5  and  C_9 
REMARK       I    between atoms: C_10  and  N_11 
REMARK    3  A    between atoms: C_10  and  C_14 
REMARK    4  A    between atoms: C_15  and  N_16 
REMARK    5  A    between atoms: C_20  and  C_21 
ROOT
HETATM    1  C   UNK N   1      31.907  19.961  -4.773  0.00  0.00     0.104 A 
HETATM    2  C   UNK N   1      30.957  20.488  -5.652  0.00  0.00     0.022 A 
HETATM    3  C   UNK N   1      28.810  23.236  -4.313  0.00  0.00    -0.009 A 
HETATM    4  C   UNK N   1      29.369  23.197  -3.009  0.00  0.00     0.102 A 
HETATM    5  N   UNK N   1      30.377  22.315  -2.715  0.00  0.00    -0.351 N 
ATOM      6  HN  UNK N   1      30.791  22.294  -1.784  1.00  0.00     0.166 HD
HETATM    7  C   UNK N   1      29.293  22.340  -5.280  0.00  0.00     0.030 A 
HETATM    8  C   UNK N   1      30.289  21.457  -4.935  0.00  0.00     0.023 A 
HETATM    9  C   UNK N   1      30.818  21.468  -3.684  0.00  0.00     0.116 A 
HETATM   10  N   UNK N   1      31.805  20.566  -3.559  0.00  0.00    -0.351 N 
HETATM   11  H   UNK N   1      32.342  20.381  -2.756  0.00  0.00     0.166 HD
ENDROOT
BRANCH   3  12
HETATM   12  C   UNK N   1      27.726  24.166  -4.698  0.00  0.00    -0.024 A 
HETATM   13  C   UNK N   1      26.837  23.887  -5.732  0.00  0.00     0.014 A 
HETATM   14  C   UNK N   1      25.873  24.833  -6.087  0.00  0.00     0.031 A 
HETATM   15  C   UNK N   1      25.762  26.055  -5.403  0.00  0.00     0.041 A 
HETATM   16  C   UNK N   1      26.635  26.341  -4.306  0.00  0.00     0.059 A 
HETATM   17  C   UNK N   1      27.607  25.377  -4.011  0.00  0.00     0.031 A 
BRANCH  15  18
HETATM   18  N   UNK N   1      24.831  26.982  -5.900  0.00  0.00    -0.398 N 
HETATM   19  H   UNK N   1      24.110  27.333  -5.329  0.00  0.00     0.156 HD
HETATM   20  H   UNK N   1      24.901  27.287  -6.834  0.00  0.00     0.156 HD
ENDBRANCH  15  18
BRANCH  16  21
HETATM   21  C   UNK N   1      26.706  27.583  -3.426  0.00  0.00     0.255 C 
HETATM   22  O   UNK N   1      25.907  27.626  -2.495  0.00  0.00    -0.267 OA
HETATM   23  N   UNK N   1      27.532  28.667  -3.599  0.00  0.00    -0.357 N 
HETATM   24  C   UNK N   1      27.461  29.764  -2.662  0.00  0.00     0.152 C 
HETATM   25  C   UNK N   1      28.392  28.853  -4.730  0.00  0.00     0.152 C 
ENDBRANCH  16  21
ENDBRANCH   3  12
BRANCH   2  26
HETATM   26  C   UNK N   1      30.779  20.049  -7.067  0.00  0.00     0.064 A 
HETATM   27  N   UNK N   1      31.537  20.364  -8.145  0.00  0.00    -0.292 N 
HETATM   28  N   UNK N   1      31.025  19.779  -9.215  0.00  0.00    -0.309 N 
HETATM   29  C   UNK N   1      29.934  19.083  -8.848  0.00  0.00     0.109 A 
ATOM     30  HN  UNK N   1      31.397  19.845 -10.163  1.00  0.00     0.186 HD
HETATM   31  C   UNK N   1      29.738  19.241  -7.484  0.00  0.00     0.050 A 
BRANCH  27  32
HETATM   32  C   UNK N   1      32.694  21.254  -8.200  0.00  0.00     0.145 C 
HETATM   33  C   UNK N   1      32.301  22.719  -8.304  0.00  0.00     0.028 C 
ENDBRANCH  27  32
ENDBRANCH   2  26
TORSDOF 5
ENDMDL
MODEL 6
REMARK VINA RESULT:      -7.2     13.261     15.657
REMARK  5 active torsions:
REMARK  status: ('A' for Active; 'I' for Inactive)
REMARK    1  A    between atoms: C_3  and  C_6 
REMARK    2  A    between atoms: N_5  and  C_9 
REMARK       I    between atoms: C_10  and  N_11 
REMARK    3  A    between atoms: C_10  and  C_14 
REMARK    4  A    between atoms: C_15  and  N_16 
REMARK    5  A    between atoms: C_20  and  C_21 
ROOT
HETATM    1  C   UNK N   1      31.882  19.939  -4.721  0.00  0.00     0.104 A 
HETATM    2  C   UNK N   1      30.950  20.507  -5.596  0.00  0.00     0.022 A 
HETATM    3  C   UNK N   1      28.903  23.318  -4.233  0.00  0.00    -0.009 A 
HETATM    4  C   UNK N   1      29.460  23.249  -2.929  0.00  0.00     0.102 A 
HETATM    5  N   UNK N   1      30.438  22.329  -2.644  0.00  0.00    -0.351 N 
ATOM      6  HN  UNK N   1      30.850  22.286  -1.712  1.00  0.00     0.166 HD
HETATM    7  C   UNK N   1      29.354  22.414  -5.207  0.00  0.00     0.030 A 
HETATM    8  C   UNK N   1      30.318  21.493  -4.870  0.00  0.00     0.023 A 
HETATM    9  C   UNK N   1      30.847  21.475  -3.620  0.00  0.00     0.116 A 
HETATM   10  N   UNK N   1      31.802  20.538  -3.503  0.00  0.00    -0.351 N 
HETATM   11  H   UNK N   1      32.332  20.327  -2.702  0.00  0.00     0.166 HD
ENDROOT
BRANCH   3  12
HETATM   12  C   UNK N   1      27.852  24.289  -4.609  0.00  0.00    -0.024 A 
HETATM   13  C   UNK N   1      27.429  25.299  -3.748  0.00  0.00     0.014 A 
HETATM   14  C   UNK N   1      26.391  26.147  -4.138  0.00  0.00     0.031 A 
HETATM   15  C   UNK N   1      25.779  26.023  -5.396  0.00  0.00     0.041 A 
HETATM   16  C   UNK N   1      26.231  25.022  -6.314  0.00  0.00     0.059 A 
HETATM   17  C   UNK N   1      27.250  24.173  -5.864  0.00  0.00     0.031 A 
BRANCH  15  18
HETATM   18  N   UNK N   1      24.677  26.854  -5.655  0.00  0.00    -0.398 N 
HETATM   19  H   UNK N   1      24.135  27.222  -4.921  0.00  0.00     0.156 HD
HETATM   20  H   UNK N   1      24.442  27.072  -6.587  0.00  0.00     0.156 HD
ENDBRANCH  15  18
BRANCH  16  21
HETATM   21  C   UNK N   1      25.727  24.697  -7.715  0.00  0.00     0.255 C 
HETATM   22  O   UNK N   1      24.998  23.715  -7.808  0.00  0.00    -0.267 OA
HETATM   23  N   UNK N   1      26.045  25.359  -8.876  0.00  0.00    -0.357 N 
HETATM   24  C   UNK N   1      25.474  24.909 -10.124  0.00  0.00     0.152 C 
HETATM   25  C   UNK N   1      27.016  26.409  -8.966  0.00  0.00     0.152 C 
ENDBRANCH  16  21
ENDBRANCH   3  12
BRANCH   2  26
HETATM   26  C   UNK N   1      30.756  20.086  -7.014  0.00  0.00     0.064 A 
HETATM   27  N   UNK N   1      31.522  20.386  -8.090  0.00  0.00    -0.292 N 
HETATM   28  N   UNK N   1      30.990  19.826  -9.165  0.00  0.00    -0.309 N 
HETATM   29  C   UNK N   1      29.877  19.162  -8.801  0.00  0.00     0.109 A 
ATOM     30  HN  UNK N   1      31.362  19.888 -10.113  1.00  0.00     0.186 HD
HETATM   31  C   UNK N   1      29.689  19.315  -7.435  0.00  0.00     0.050 A 
BRANCH  27  32
HETATM   32  C   UNK N   1      32.707  21.238  -8.140  0.00  0.00     0.145 C 
HETATM   33  C   UNK N   1      32.362  22.718  -8.187  0.00  0.00     0.028 C 
ENDBRANCH  27  32
ENDBRANCH   2  26
TORSDOF 5
ENDMDL
MODEL 7
REMARK VINA RESULT:      -7.2      5.911      9.713
REMARK  5 active torsions:
REMARK  status: ('A' for Active; 'I' for Inactive)
REMARK    1  A    between atoms: C_3  and  C_6 
REMARK    2  A    between atoms: N_5  and  C_9 
REMARK       I    between atoms: C_10  and  N_11 
REMARK    3  A    between atoms: C_10  and  C_14 
REMARK    4  A    between atoms: C_15  and  N_16 
REMARK    5  A    between atoms: C_20  and  C_21 
ROOT
HETATM    1  C   UNK N   1      35.581  14.953   6.030  0.00  0.00     0.104 A 
HETATM    2  C   UNK N   1      34.516  15.410   6.813  0.00  0.00     0.022 A 
HETATM    3  C   UNK N   1      31.149  15.388   5.198  0.00  0.00    -0.009 A 
HETATM    4  C   UNK N   1      31.623  14.929   3.942  0.00  0.00     0.102 A 
HETATM    5  N   UNK N   1      32.957  14.661   3.763  0.00  0.00    -0.351 N 
ATOM      6  HN  UNK N   1      33.299  14.318   2.866  1.00  0.00     0.166 HD
HETATM    7  C   UNK N   1      32.072  15.583   6.237  0.00  0.00     0.030 A 
HETATM    8  C   UNK N   1      33.403  15.324   6.006  0.00  0.00     0.023 A 
HETATM    9  C   UNK N   1      33.816  14.860   4.798  0.00  0.00     0.116 A 
HETATM   10  N   UNK N   1      35.138  14.626   4.787  0.00  0.00    -0.351 N 
HETATM   11  H   UNK N   1      35.675  14.290   4.035  0.00  0.00     0.166 HD
ENDROOT
BRANCH   3  12
HETATM   12  C   UNK N   1      29.724  15.689   5.460  0.00  0.00    -0.024 A 
HETATM   13  C   UNK N   1      28.722  14.734   5.311  0.00  0.00     0.014 A 
HETATM   14  C   UNK N   1      27.389  15.096   5.514  0.00  0.00     0.031 A 
HETATM   15  C   UNK N   1      27.035  16.401   5.894  0.00  0.00     0.041 A 
HETATM   16  C   UNK N   1      28.054  17.385   6.099  0.00  0.00     0.059 A 
HETATM   17  C   UNK N   1      29.373  16.984   5.849  0.00  0.00     0.031 A 
BRANCH  15  18
HETATM   18  N   UNK N   1      25.664  16.694   5.974  0.00  0.00    -0.398 N 
HETATM   19  H   UNK N   1      25.001  15.981   6.117  0.00  0.00     0.156 HD
HETATM   20  H   UNK N   1      25.362  17.627   5.887  0.00  0.00     0.156 HD
ENDBRANCH  15  18
BRANCH  16  21
HETATM   21  C   UNK N   1      27.917  18.847   6.506  0.00  0.00     0.255 C 
HETATM   22  O   UNK N   1      28.021  19.082   7.705  0.00  0.00    -0.267 OA
HETATM   23  N   UNK N   1      27.644  19.909   5.676  0.00  0.00    -0.357 N 
HETATM   24  C   UNK N   1      27.546  21.235   6.238  0.00  0.00     0.152 C 
HETATM   25  C   UNK N   1      27.321  19.782   4.286  0.00  0.00     0.152 C 
ENDBRANCH  16  21
ENDBRANCH   3  12
BRANCH   2  26
HETATM   26  C   UNK N   1      34.641  15.863   8.229  0.00  0.00     0.064 A 
HETATM   27  N   UNK N   1      34.285  17.057   8.762  0.00  0.00    -0.292 N 
HETATM   28  N   UNK N   1      34.579  17.056  10.052  0.00  0.00    -0.309 N 
HETATM   29  C   UNK N   1      35.130  15.870  10.369  0.00  0.00     0.109 A 
ATOM     30  HN  UNK N   1      34.417  17.828  10.699  1.00  0.00     0.186 HD
HETATM   31  C   UNK N   1      35.196  15.085   9.227  0.00  0.00     0.050 A 
BRANCH  27  32
HETATM   32  C   UNK N   1      33.732  18.220   8.072  0.00  0.00     0.145 C 
HETATM   33  C   UNK N   1      32.233  18.368   8.283  0.00  0.00     0.028 C 
ENDBRANCH  27  32
ENDBRANCH   2  26
TORSDOF 5
ENDMDL
MODEL 8
REMARK VINA RESULT:      -7.1      3.836      7.608
REMARK  5 active torsions:
REMARK  status: ('A' for Active; 'I' for Inactive)
REMARK    1  A    between atoms: C_3  and  C_6 
REMARK    2  A    between atoms: N_5  and  C_9 
REMARK       I    between atoms: C_10  and  N_11 
REMARK    3  A    between atoms: C_10  and  C_14 
REMARK    4  A    between atoms: C_15  and  N_16 
REMARK    5  A    between atoms: C_20  and  C_21 
ROOT
HETATM    1  C   UNK N   1      19.177  18.453   2.794  0.00  0.00     0.104 A 
HETATM    2  C   UNK N   1      20.258  17.711   3.278  0.00  0.00     0.022 A 
HETATM    3  C   UNK N   1      23.560  19.456   3.348  0.00  0.00    -0.009 A 
HETATM    4  C   UNK N   1      23.075  20.652   2.757  0.00  0.00     0.102 A 
HETATM    5  N   UNK N   1      21.749  20.769   2.425  0.00  0.00    -0.351 N 
ATOM      6  HN  UNK N   1      21.394  21.632   2.014  1.00  0.00     0.166 HD
HETATM    7  C   UNK N   1      22.664  18.397   3.559  0.00  0.00     0.030 A 
HETATM    8  C   UNK N   1      21.348  18.550   3.189  0.00  0.00     0.023 A 
HETATM    9  C   UNK N   1      20.915  19.719   2.652  0.00  0.00     0.116 A 
HETATM   10  N   UNK N   1      19.596  19.686   2.402  0.00  0.00    -0.351 N 
HETATM   11  H   UNK N   1      19.047  20.404   2.014  0.00  0.00     0.166 HD
ENDROOT
BRANCH   3  12
HETATM   12  C   UNK N   1      24.975  19.266   3.736  0.00  0.00    -0.024 A 
HETATM   13  C   UNK N   1      25.812  20.335   4.045  0.00  0.00     0.014 A 
HETATM   14  C   UNK N   1      27.155  20.095   4.345  0.00  0.00     0.031 A 
HETATM   15  C   UNK N   1      27.677  18.792   4.369  0.00  0.00     0.041 A 
HETATM   16  C   UNK N   1      26.822  17.676   4.100  0.00  0.00     0.059 A 
HETATM   17  C   UNK N   1      25.493  17.969   3.770  0.00  0.00     0.031 A 
BRANCH  15  18
HETATM   18  N   UNK N   1      29.059  18.661   4.579  0.00  0.00    -0.398 N 
HETATM   19  H   UNK N   1      29.488  19.038   5.381  0.00  0.00     0.156 HD
HETATM   20  H   UNK N   1      29.608  18.184   3.915  0.00  0.00     0.156 HD
ENDBRANCH  15  18
BRANCH  16  21
HETATM   21  C   UNK N   1      27.156  16.189   4.066  0.00  0.00     0.255 C 
HETATM   22  O   UNK N   1      27.411  15.723   2.960  0.00  0.00    -0.267 OA
HETATM   23  N   UNK N   1      27.151  15.321   5.131  0.00  0.00    -0.357 N 
HETATM   24  C   UNK N   1      27.493  13.935   4.913  0.00  0.00     0.152 C 
HETATM   25  C   UNK N   1      26.705  15.664   6.449  0.00  0.00     0.152 C 
ENDBRANCH  16  21
ENDBRANCH   3  12
BRANCH   2  26
HETATM   26  C   UNK N   1      20.165  16.311   3.784  0.00  0.00     0.064 A 
HETATM   27  N   UNK N   1      20.780  15.203   3.305  0.00  0.00    -0.292 N 
HETATM   28  N   UNK N   1      20.415  14.161   4.032  0.00  0.00    -0.309 N 
HETATM   29  C   UNK N   1      19.560  14.576   4.985  0.00  0.00     0.109 A 
ATOM     30  HN  UNK N   1      20.728  13.200   3.893  1.00  0.00     0.186 HD
HETATM   31  C   UNK N   1      19.367  15.943   4.851  0.00  0.00     0.050 A 
BRANCH  27  32
HETATM   32  C   UNK N   1      21.655  15.095   2.140  0.00  0.00     0.145 C 
HETATM   33  C   UNK N   1      20.974  14.426   0.956  0.00  0.00     0.028 C 
ENDBRANCH  27  32
ENDBRANCH   2  26
TORSDOF 5
ENDMDL
MODEL 9
REMARK VINA RESULT:      -7.1      1.787      3.301
REMARK  5 active torsions:
REMARK  status: ('A' for Active; 'I' for Inactive)
REMARK    1  A    between atoms: C_3  and  C_6 
REMARK    2  A    between atoms: N_5  and  C_9 
REMARK       I    between atoms: C_10  and  N_11 
REMARK    3  A    between atoms: C_10  and  C_14 
REMARK    4  A    between atoms: C_15  and  N_16 
REMARK    5  A    between atoms: C_20  and  C_21 
ROOT
HETATM    1  C   UNK N   1      24.965  20.334   2.730  0.00  0.00     0.104 A 
HETATM    2  C   UNK N   1      25.167  19.407   3.756  0.00  0.00     0.022 A 
HETATM    3  C   UNK N   1      22.093  17.953   5.302  0.00  0.00    -0.009 A 
HETATM    4  C   UNK N   1      21.193  18.729   4.526  0.00  0.00     0.102 A 
HETATM    5  N   UNK N   1      21.670  19.608   3.587  0.00  0.00    -0.351 N 
ATOM      6  HN  UNK N   1      21.026  20.157   3.019  1.00  0.00     0.166 HD
HETATM    7  C   UNK N   1      23.472  18.124   5.105  0.00  0.00     0.030 A 
HETATM    8  C   UNK N   1      23.907  19.035   4.170  0.00  0.00     0.023 A 
HETATM    9  C   UNK N   1      23.015  19.739   3.427  0.00  0.00     0.116 A 
HETATM   10  N   UNK N   1      23.633  20.538   2.543  0.00  0.00    -0.351 N 
HETATM   11  H   UNK N   1      23.211  21.145   1.895  0.00  0.00     0.166 HD
ENDROOT
BRANCH   3  12
HETATM   12  C   UNK N   1      21.645  16.982   6.324  0.00  0.00    -0.024 A 
HETATM   13  C   UNK N   1      20.796  17.339   7.368  0.00  0.00     0.014 A 
HETATM   14  C   UNK N   1      20.458  16.391   8.336  0.00  0.00     0.031 A 
HETATM   15  C   UNK N   1      20.935  15.072   8.266  0.00  0.00     0.041 A 
HETATM   16  C   UNK N   1      21.770  14.673   7.175  0.00  0.00     0.059 A 
HETATM   17  C   UNK N   1      22.110  15.667   6.249  0.00  0.00     0.031 A 
BRANCH  15  18
HETATM   18  N   UNK N   1      20.623  14.222   9.340  0.00  0.00    -0.398 N 
HETATM   19  H   UNK N   1      21.199  14.180  10.137  0.00  0.00     0.156 HD
HETATM   20  H   UNK N   1      19.816  13.659   9.295  0.00  0.00     0.156 HD
ENDBRANCH  15  18
BRANCH  16  21
HETATM   21  C   UNK N   1      22.403  13.316   6.889  0.00  0.00     0.255 C 
HETATM   22  O   UNK N   1      21.822  12.617   6.065  0.00  0.00    -0.267 OA
HETATM   23  N   UNK N   1      23.519  12.786   7.492  0.00  0.00    -0.357 N 
HETATM   24  C   UNK N   1      23.979  11.476   7.096  0.00  0.00     0.152 C 
HETATM   25  C   UNK N   1      24.205  13.394   8.593  0.00  0.00     0.152 C 
ENDBRANCH  16  21
ENDBRANCH   3  12
BRANCH   2  26
HETATM   26  C   UNK N   1      26.506  18.954   4.235  0.00  0.00     0.064 A 
HETATM   27  N   UNK N   1      27.400  19.635   4.991  0.00  0.00    -0.292 N 
HETATM   28  N   UNK N   1      28.469  18.877   5.178  0.00  0.00    -0.309 N 
HETATM   29  C   UNK N   1      28.283  17.704   4.547  0.00  0.00     0.109 A 
ATOM     30  HN  UNK N   1      29.297  19.140   5.712  1.00  0.00     0.186 HD
HETATM   31  C   UNK N   1      27.044  17.720   3.923  0.00  0.00     0.050 A 
BRANCH  27  32
HETATM   32  C   UNK N   1      27.298  21.004   5.489  0.00  0.00     0.145 C 
HETATM   33  C   UNK N   1      26.544  21.094   6.807  0.00  0.00     0.028 C 
ENDBRANCH  27  32
ENDBRANCH   2  26
TORSDOF 5
ENDMDL
