MODEL 1
REMARK VINA RESULT:      -8.1      0.000      0.000
REMARK  3 active torsions:
REMARK  status: ('A' for Active; 'I' for Inactive)
REMARK    1  A    between atoms: C_5  and  C_7 
REMARK    2  A    between atoms: S_20  and  C_15 
REMARK    3  A    between atoms: S_20  and  C_21 
ROOT
HETATM    1  C   UNK N   1      29.299  18.334   9.437  0.00  0.00     0.054 A 
HETATM    2  C   UNK N   1      30.401  17.490   9.215  0.00  0.00     0.036 A 
HETATM    3  C   UNK N   1      30.664  17.018   7.911  0.00  0.00     0.061 A 
HETATM    4  N   UNK N   1      29.840  17.393   6.891  0.00  0.00    -0.290 N 
ATOM      5  HN  UNK N   1      30.021  17.058   5.945  1.00  0.00     0.188 HD
HETATM    6  N   UNK N   1      28.806  18.189   7.121  0.00  0.00    -0.214 N 
HETATM    7  C   UNK N   1      28.518  18.660   8.335  0.00  0.00     0.144 A 
HETATM    8  C   UNK N   1      27.853  18.702   6.306  0.00  0.00     0.187 A 
HETATM    9  N   UNK N   1      27.011  19.469   7.042  0.00  0.00    -0.276 N 
ATOM     10  HN  UNK N   1      26.201  19.978   6.688  1.00  0.00     0.189 HD
HETATM   11  N   UNK N   1      27.428  19.441   8.306  0.00  0.00    -0.282 N 
ATOM     12  HN  UNK N   1      27.001  19.921   9.099  1.00  0.00     0.188 HD
ENDROOT
BRANCH   8  13
HETATM   13  S   UNK N   1      27.575  18.512   4.495  0.00  0.00    -0.051 SA
BRANCH  13  14
HETATM   14  C   UNK N   1      25.960  19.139   3.949  0.00  0.00     0.009 A 
HETATM   15  C   UNK N   1      25.830  20.213   3.086  0.00  0.00     0.021 A 
HETATM   16  C   UNK N   1      24.588  20.683   2.676  0.00  0.00     0.031 A 
HETATM   17  C   UNK N   1      23.435  20.073   3.131  0.00  0.00     0.042 A 
HETATM   18  C   UNK N   1      23.529  18.976   4.011  0.00  0.00    -0.008 A 
HETATM   19  N   UNK N   1      22.221  20.533   2.730  0.00  0.00    -0.365 N 
HETATM   20  C   UNK N   1      24.791  18.511   4.418  0.00  0.00     0.032 A 
HETATM   21  C   UNK N   1      22.356  18.371   4.462  0.00  0.00     0.015 A 
HETATM   22  C   UNK N   1      21.118  18.862   4.035  0.00  0.00     0.018 A 
HETATM   23  C   UNK N   1      21.070  19.953   3.162  0.00  0.00     0.088 A 
ATOM     24  HN  UNK N   1      22.172  21.328   2.093  1.00  0.00     0.165 HD
ENDBRANCH  13  14
ENDBRANCH   8  13
BRANCH   3  25
HETATM   25  C   UNK N   1      31.805  16.132   7.626  0.00  0.00     0.026 A 
HETATM   26  C   UNK N   1      31.980  15.278   6.550  0.00  0.00     0.122 A 
HETATM   27  N   UNK N   1      33.173  14.665   6.701  0.00  0.00    -0.310 N 
HETATM   28  N   UNK N   1      33.730  15.106   7.816  0.00  0.00    -0.307 N 
ATOM     29  HN  UNK N   1      33.577  13.978   6.064  1.00  0.00     0.186 HD
HETATM   30  C   UNK N   1      35.023  14.675   8.315  0.00  0.00     0.177 C 
HETATM   31  C   UNK N   1      32.931  16.001   8.410  0.00  0.00     0.124 A 
ENDBRANCH   3  25
TORSDOF 3
ENDMDL
MODEL 2
REMARK VINA RESULT:      -8.0      2.133      9.483
REMARK  3 active torsions:
REMARK  status: ('A' for Active; 'I' for Inactive)
REMARK    1  A    between atoms: C_5  and  C_7 
REMARK    2  A    between atoms: S_20  and  C_15 
REMARK    3  A    between atoms: S_20  and  C_21 
ROOT
HETATM    1  C   UNK N   1      25.575  20.677   2.850  0.00  0.00     0.054 A 
HETATM    2  C   UNK N   1      24.238  20.261   2.970  0.00  0.00     0.036 A 
HETATM    3  C   UNK N   1      23.926  19.146   3.777  0.00  0.00     0.061 A 
HETATM    4  N   UNK N   1      24.934  18.494   4.426  0.00  0.00    -0.290 N 
ATOM      5  HN  UNK N   1      24.719  17.687   5.011  1.00  0.00     0.188 HD
HETATM    6  N   UNK N   1      26.188  18.901   4.299  0.00  0.00    -0.214 N 
HETATM    7  C   UNK N   1      26.531  19.948   3.548  0.00  0.00     0.144 A 
HETATM    8  C   UNK N   1      27.351  18.443   4.822  0.00  0.00     0.187 A 
HETATM    9  N   UNK N   1      28.369  19.220   4.377  0.00  0.00    -0.276 N 
ATOM     10  HN  UNK N   1      29.356  19.106   4.611  1.00  0.00     0.189 HD
HETATM   11  N   UNK N   1      27.856  20.158   3.584  0.00  0.00    -0.282 N 
ATOM     12  HN  UNK N   1      28.369  20.893   3.097  1.00  0.00     0.188 HD
ENDROOT
BRANCH   8  13
HETATM   13  S   UNK N   1      27.700  17.032   5.953  0.00  0.00    -0.051 SA
BRANCH  13  14
HETATM   14  C   UNK N   1      29.259  17.215   6.867  0.00  0.00     0.009 A 
HETATM   15  C   UNK N   1      29.302  17.460   8.228  0.00  0.00     0.021 A 
HETATM   16  C   UNK N   1      30.501  17.598   8.916  0.00  0.00     0.031 A 
HETATM   17  C   UNK N   1      31.701  17.491   8.237  0.00  0.00     0.042 A 
HETATM   18  C   UNK N   1      31.696  17.242   6.849  0.00  0.00    -0.008 A 
HETATM   19  N   UNK N   1      32.874  17.626   8.909  0.00  0.00    -0.365 N 
HETATM   20  C   UNK N   1      30.475  17.104   6.167  0.00  0.00     0.032 A 
HETATM   21  C   UNK N   1      32.915  17.136   6.180  0.00  0.00     0.015 A 
HETATM   22  C   UNK N   1      34.110  17.279   6.892  0.00  0.00     0.018 A 
HETATM   23  C   UNK N   1      34.069  17.525   8.268  0.00  0.00     0.088 A 
ATOM     24  HN  UNK N   1      32.859  17.806   9.913  1.00  0.00     0.165 HD
ENDBRANCH  13  14
ENDBRANCH   8  13
BRANCH   3  25
HETATM   25  C   UNK N   1      22.542  18.670   3.937  0.00  0.00     0.026 A 
HETATM   26  C   UNK N   1      21.379  19.231   3.436  0.00  0.00     0.122 A 
HETATM   27  N   UNK N   1      20.345  18.458   3.832  0.00  0.00    -0.310 N 
HETATM   28  N   UNK N   1      20.826  17.455   4.547  0.00  0.00    -0.307 N 
ATOM     29  HN  UNK N   1      19.361  18.619   3.615  1.00  0.00     0.186 HD
HETATM   30  C   UNK N   1      20.014  16.411   5.146  0.00  0.00     0.177 C 
HETATM   31  C   UNK N   1      22.158  17.546   4.636  0.00  0.00     0.124 A 
ENDBRANCH   3  25
TORSDOF 3
ENDMDL
MODEL 3
REMARK VINA RESULT:      -7.9      4.465      8.417
REMARK  3 active torsions:
REMARK  status: ('A' for Active; 'I' for Inactive)
REMARK    1  A    between atoms: C_5  and  C_7 
REMARK    2  A    between atoms: S_20  and  C_15 
REMARK    3  A    between atoms: S_20  and  C_21 
ROOT
HETATM    1  C   UNK N   1      21.804  20.388   2.524  0.00  0.00     0.054 A 
HETATM    2  C   UNK N   1      23.040  20.180   3.160  0.00  0.00     0.036 A 
HETATM    3  C   UNK N   1      23.285  18.959   3.822  0.00  0.00     0.061 A 
HETATM    4  N   UNK N   1      22.312  18.002   3.831  0.00  0.00    -0.290 N 
ATOM      5  HN  UNK N   1      22.479  17.116   4.307  1.00  0.00     0.188 HD
HETATM    6  N   UNK N   1      21.154  18.217   3.227  0.00  0.00    -0.214 N 
HETATM    7  C   UNK N   1      20.877  19.354   2.588  0.00  0.00     0.144 A 
HETATM    8  C   UNK N   1      20.043  17.452   3.088  0.00  0.00     0.187 A 
HETATM    9  N   UNK N   1      19.122  18.141   2.371  0.00  0.00    -0.276 N 
ATOM     10  HN  UNK N   1      18.191  17.809   2.115  1.00  0.00     0.189 HD
HETATM   11  N   UNK N   1      19.643  19.326   2.061  0.00  0.00    -0.282 N 
ATOM     12  HN  UNK N   1      19.193  20.069   1.526  1.00  0.00     0.188 HD
ENDROOT
BRANCH   8  13
HETATM   13  S   UNK N   1      19.657  15.755   3.690  0.00  0.00    -0.051 SA
BRANCH  13  14
HETATM   14  C   UNK N   1      20.086  15.500   5.437  0.00  0.00     0.009 A 
HETATM   15  C   UNK N   1      19.994  16.507   6.382  0.00  0.00     0.021 A 
HETATM   16  C   UNK N   1      20.326  16.299   7.715  0.00  0.00     0.031 A 
HETATM   17  C   UNK N   1      20.763  15.056   8.131  0.00  0.00     0.042 A 
HETATM   18  C   UNK N   1      20.869  14.006   7.196  0.00  0.00    -0.008 A 
HETATM   19  N   UNK N   1      21.087  14.853   9.435  0.00  0.00    -0.365 N 
HETATM   20  C   UNK N   1      20.530  14.231   5.851  0.00  0.00     0.032 A 
HETATM   21  C   UNK N   1      21.312  12.758   7.632  0.00  0.00     0.015 A 
HETATM   22  C   UNK N   1      21.640  12.572   8.978  0.00  0.00     0.018 A 
HETATM   23  C   UNK N   1      21.521  13.640   9.873  0.00  0.00     0.088 A 
ATOM     24  HN  UNK N   1      21.005  15.623  10.098  1.00  0.00     0.165 HD
ENDBRANCH  13  14
ENDBRANCH   8  13
BRANCH   3  25
HETATM   25  C   UNK N   1      24.563  18.692   4.503  0.00  0.00     0.026 A 
HETATM   26  C   UNK N   1      25.067  17.477   4.938  0.00  0.00     0.122 A 
HETATM   27  N   UNK N   1      26.269  17.710   5.506  0.00  0.00    -0.310 N 
HETATM   28  N   UNK N   1      26.518  19.007   5.437  0.00  0.00    -0.307 N 
ATOM     29  HN  UNK N   1      26.881  17.005   5.918  1.00  0.00     0.186 HD
HETATM   30  C   UNK N   1      27.722  19.639   5.945  0.00  0.00     0.177 C 
HETATM   31  C   UNK N   1      25.506  19.641   4.834  0.00  0.00     0.124 A 
ENDBRANCH   3  25
TORSDOF 3
ENDMDL
MODEL 4
REMARK VINA RESULT:      -7.9      2.126      2.877
REMARK  3 active torsions:
REMARK  status: ('A' for Active; 'I' for Inactive)
REMARK    1  A    between atoms: C_5  and  C_7 
REMARK    2  A    between atoms: S_20  and  C_15 
REMARK    3  A    between atoms: S_20  and  C_21 
ROOT
HETATM    1  C   UNK N   1      29.813  17.545   7.614  0.00  0.00     0.054 A 
HETATM    2  C   UNK N   1      30.699  16.958   6.694  0.00  0.00     0.036 A 
HETATM    3  C   UNK N   1      30.505  17.166   5.312  0.00  0.00     0.061 A 
HETATM    4  N   UNK N   1      29.457  17.934   4.897  0.00  0.00    -0.290 N 
ATOM      5  HN  UNK N   1      29.308  18.091   3.900  1.00  0.00     0.188 HD
HETATM    6  N   UNK N   1      28.633  18.478   5.779  0.00  0.00    -0.214 N 
HETATM    7  C   UNK N   1      28.776  18.311   7.094  0.00  0.00     0.144 A 
HETATM    8  C   UNK N   1      27.539  19.266   5.639  0.00  0.00     0.187 A 
HETATM    9  N   UNK N   1      27.045  19.557   6.867  0.00  0.00    -0.276 N 
ATOM     10  HN  UNK N   1      26.225  20.132   7.063  1.00  0.00     0.189 HD
HETATM   11  N   UNK N   1      27.818  18.960   7.773  0.00  0.00    -0.282 N 
ATOM     12  HN  UNK N   1      27.704  18.991   8.787  1.00  0.00     0.188 HD
ENDROOT
BRANCH   8  13
HETATM   13  S   UNK N   1      26.710  19.933   4.135  0.00  0.00    -0.051 SA
BRANCH  13  14
HETATM   14  C   UNK N   1      24.971  19.425   3.992  0.00  0.00     0.009 A 
HETATM   15  C   UNK N   1      24.485  18.262   4.563  0.00  0.00     0.021 A 
HETATM   16  C   UNK N   1      23.152  17.885   4.445  0.00  0.00     0.031 A 
HETATM   17  C   UNK N   1      22.269  18.682   3.741  0.00  0.00     0.042 A 
HETATM   18  C   UNK N   1      22.730  19.874   3.146  0.00  0.00    -0.008 A 
HETATM   19  N   UNK N   1      20.967  18.312   3.627  0.00  0.00    -0.365 N 
HETATM   20  C   UNK N   1      24.080  20.243   3.273  0.00  0.00     0.032 A 
HETATM   21  C   UNK N   1      21.826  20.667   2.439  0.00  0.00     0.015 A 
HETATM   22  C   UNK N   1      20.491  20.267   2.335  0.00  0.00     0.018 A 
HETATM   23  C   UNK N   1      20.076  19.077   2.940  0.00  0.00     0.088 A 
ATOM     24  HN  UNK N   1      20.651  17.447   4.064  1.00  0.00     0.165 HD
ENDBRANCH  13  14
ENDBRANCH   8  13
BRANCH   3  25
HETATM   25  C   UNK N   1      31.405  16.574   4.308  0.00  0.00     0.026 A 
HETATM   26  C   UNK N   1      32.277  17.221   3.449  0.00  0.00     0.122 A 
HETATM   27  N   UNK N   1      32.898  16.281   2.706  0.00  0.00    -0.310 N 
HETATM   28  N   UNK N   1      32.445  15.094   3.073  0.00  0.00    -0.307 N 
ATOM     29  HN  UNK N   1      33.599  16.455   1.985  1.00  0.00     0.186 HD
HETATM   30  C   UNK N   1      32.879  13.835   2.497  0.00  0.00     0.177 C 
HETATM   31  C   UNK N   1      31.534  15.227   4.045  0.00  0.00     0.124 A 
ENDBRANCH   3  25
TORSDOF 3
ENDMDL
MODEL 5
REMARK VINA RESULT:      -7.7      7.670     11.934
REMARK  3 active torsions:
REMARK  status: ('A' for Active; 'I' for Inactive)
REMARK    1  A    between atoms: C_5  and  C_7 
REMARK    2  A    between atoms: S_20  and  C_15 
REMARK    3  A    between atoms: S_20  and  C_21 
ROOT
HETATM    1  C   UNK N   1      34.042  18.151   7.872  0.00  0.00     0.054 A 
HETATM    2  C   UNK N   1      33.820  17.724   6.551  0.00  0.00     0.036 A 
HETATM    3  C   UNK N   1      34.064  16.378   6.205  0.00  0.00     0.061 A 
HETATM    4  N   UNK N   1      34.512  15.517   7.164  0.00  0.00    -0.290 N 
ATOM      5  HN  UNK N   1      34.691  14.542   6.924  1.00  0.00     0.188 HD
HETATM    6  N   UNK N   1      34.715  15.939   8.403  0.00  0.00    -0.214 N 
HETATM    7  C   UNK N   1      34.499  17.201   8.777  0.00  0.00     0.144 A 
HETATM    8  C   UNK N   1      35.147  15.306   9.521  0.00  0.00     0.187 A 
HETATM    9  N   UNK N   1      35.182  16.196  10.543  0.00  0.00    -0.276 N 
ATOM     10  HN  UNK N   1      35.469  15.995  11.502  1.00  0.00     0.189 HD
HETATM   11  N   UNK N   1      34.778  17.376  10.077  0.00  0.00    -0.282 N 
ATOM     12  HN  UNK N   1      34.697  18.244  10.606  1.00  0.00     0.188 HD
ENDROOT
BRANCH   8  13
HETATM   13  S   UNK N   1      35.646  13.557   9.808  0.00  0.00    -0.051 SA
BRANCH  13  14
HETATM   14  C   UNK N   1      35.711  13.110  11.567  0.00  0.00     0.009 A 
HETATM   15  C   UNK N   1      36.588  13.708  12.456  0.00  0.00     0.021 A 
HETATM   16  C   UNK N   1      36.628  13.357  13.801  0.00  0.00     0.031 A 
HETATM   17  C   UNK N   1      35.774  12.384  14.285  0.00  0.00     0.042 A 
HETATM   18  C   UNK N   1      34.867  11.754  13.408  0.00  0.00    -0.008 A 
HETATM   19  N   UNK N   1      35.813  12.042  15.599  0.00  0.00    -0.365 N 
HETATM   20  C   UNK N   1      34.838  12.119  12.051  0.00  0.00     0.032 A 
HETATM   21  C   UNK N   1      34.012  10.775  13.913  0.00  0.00     0.015 A 
HETATM   22  C   UNK N   1      34.071  10.439  15.269  0.00  0.00     0.018 A 
HETATM   23  C   UNK N   1      34.985  11.088  16.104  0.00  0.00     0.088 A 
ATOM     24  HN  UNK N   1      36.475  12.508  16.219  1.00  0.00     0.165 HD
ENDBRANCH  13  14
ENDBRANCH   8  13
BRANCH   3  25
HETATM   25  C   UNK N   1      33.847  15.881   4.836  0.00  0.00     0.026 A 
HETATM   26  C   UNK N   1      33.129  16.474   3.811  0.00  0.00     0.122 A 
HETATM   27  N   UNK N   1      33.200  15.662   2.735  0.00  0.00    -0.310 N 
HETATM   28  N   UNK N   1      33.926  14.606   3.058  0.00  0.00    -0.307 N 
ATOM     29  HN  UNK N   1      32.767  15.835   1.827  1.00  0.00     0.186 HD
HETATM   30  C   UNK N   1      34.225  13.508   2.156  0.00  0.00     0.177 C 
HETATM   31  C   UNK N   1      34.340  14.698   4.328  0.00  0.00     0.124 A 
ENDBRANCH   3  25
TORSDOF 3
ENDMDL
MODEL 6
REMARK VINA RESULT:      -7.6      5.917      9.925
REMARK  3 active torsions:
REMARK  status: ('A' for Active; 'I' for Inactive)
REMARK    1  A    between atoms: C_5  and  C_7 
REMARK    2  A    between atoms: S_20  and  C_15 
REMARK    3  A    between atoms: S_20  and  C_21 
ROOT
HETATM    1  C   UNK N   1      37.298  12.176  11.580  0.00  0.00     0.054 A 
HETATM    2  C   UNK N   1      37.190  12.416  12.961  0.00  0.00     0.036 A 
HETATM    3  C   UNK N   1      36.609  13.619  13.414  0.00  0.00     0.061 A 
HETATM    4  N   UNK N   1      36.164  14.527  12.499  0.00  0.00    -0.290 N 
ATOM      5  HN  UNK N   1      35.742  15.400  12.817  1.00  0.00     0.188 HD
HETATM    6  N   UNK N   1      36.275  14.284  11.202  0.00  0.00    -0.214 N 
HETATM    7  C   UNK N   1      36.816  13.162  10.726  0.00  0.00     0.144 A 
HETATM    8  C   UNK N   1      35.922  15.000  10.107  0.00  0.00     0.187 A 
HETATM    9  N   UNK N   1      36.256  14.298   8.996  0.00  0.00    -0.276 N 
ATOM     10  HN  UNK N   1      36.106  14.596   8.032  1.00  0.00     0.189 HD
HETATM   11  N   UNK N   1      36.813  13.153   9.384  0.00  0.00    -0.282 N 
ATOM     12  HN  UNK N   1      37.169  12.412   8.779  1.00  0.00     0.188 HD
ENDROOT
BRANCH   8  13
HETATM   13  S   UNK N   1      35.121  16.650   9.944  0.00  0.00    -0.051 SA
BRANCH  13  14
HETATM   14  C   UNK N   1      33.812  16.690   8.686  0.00  0.00     0.009 A 
HETATM   15  C   UNK N   1      32.508  16.309   8.954  0.00  0.00     0.021 A 
HETATM   16  C   UNK N   1      31.515  16.343   7.983  0.00  0.00     0.031 A 
HETATM   17  C   UNK N   1      31.818  16.768   6.702  0.00  0.00     0.042 A 
HETATM   18  C   UNK N   1      33.135  17.164   6.393  0.00  0.00    -0.008 A 
HETATM   19  N   UNK N   1      30.847  16.802   5.753  0.00  0.00    -0.365 N 
HETATM   20  C   UNK N   1      34.129  17.124   7.386  0.00  0.00     0.032 A 
HETATM   21  C   UNK N   1      33.424  17.590   5.097  0.00  0.00     0.015 A 
HETATM   22  C   UNK N   1      32.408  17.617   4.136  0.00  0.00     0.018 A 
HETATM   23  C   UNK N   1      31.115  17.216   4.485  0.00  0.00     0.088 A 
ATOM     24  HN  UNK N   1      29.899  16.512   5.994  1.00  0.00     0.165 HD
ENDBRANCH  13  14
ENDBRANCH   8  13
BRANCH   3  25
HETATM   25  C   UNK N   1      36.472  13.918  14.850  0.00  0.00     0.026 A 
HETATM   26  C   UNK N   1      37.096  14.913  15.583  0.00  0.00     0.122 A 
HETATM   27  N   UNK N   1      36.672  14.811  16.860  0.00  0.00    -0.310 N 
HETATM   28  N   UNK N   1      35.821  13.802  16.937  0.00  0.00    -0.307 N 
ATOM     29  HN  UNK N   1      36.959  15.411  17.635  1.00  0.00     0.186 HD
HETATM   30  C   UNK N   1      35.152  13.383  18.155  0.00  0.00     0.177 C 
HETATM   31  C   UNK N   1      35.671  13.231  15.736  0.00  0.00     0.124 A 
ENDBRANCH   3  25
TORSDOF 3
ENDMDL
MODEL 7
REMARK VINA RESULT:      -7.4      3.772      6.968
REMARK  3 active torsions:
REMARK  status: ('A' for Active; 'I' for Inactive)
REMARK    1  A    between atoms: C_5  and  C_7 
REMARK    2  A    between atoms: S_20  and  C_15 
REMARK    3  A    between atoms: S_20  and  C_21 
ROOT
HETATM    1  C   UNK N   1      34.133  11.715   9.456  0.00  0.00     0.054 A 
HETATM    2  C   UNK N   1      34.789  12.029  10.659  0.00  0.00     0.036 A 
HETATM    3  C   UNK N   1      34.733  13.347  11.159  0.00  0.00     0.061 A 
HETATM    4  N   UNK N   1      34.040  14.293  10.461  0.00  0.00    -0.290 N 
ATOM      5  HN  UNK N   1      33.993  15.248  10.813  1.00  0.00     0.188 HD
HETATM    6  N   UNK N   1      33.428  13.977   9.329  0.00  0.00    -0.214 N 
HETATM    7  C   UNK N   1      33.453  12.746   8.818  0.00  0.00     0.144 A 
HETATM    8  C   UNK N   1      32.688  14.708   8.460  0.00  0.00     0.187 A 
HETATM    9  N   UNK N   1      32.283  13.905   7.445  0.00  0.00    -0.276 N 
ATOM     10  HN  UNK N   1      31.712  14.189   6.648  1.00  0.00     0.189 HD
HETATM   11  N   UNK N   1      32.761  12.683   7.670  0.00  0.00    -0.282 N 
ATOM     12  HN  UNK N   1      32.627  11.859   7.084  1.00  0.00     0.188 HD
ENDROOT
BRANCH   8  13
HETATM   13  S   UNK N   1      32.205  16.485   8.474  0.00  0.00    -0.051 SA
BRANCH  13  14
HETATM   14  C   UNK N   1      31.178  16.959   7.052  0.00  0.00     0.009 A 
HETATM   15  C   UNK N   1      31.690  17.084   5.772  0.00  0.00     0.021 A 
HETATM   16  C   UNK N   1      30.894  17.448   4.693  0.00  0.00     0.031 A 
HETATM   17  C   UNK N   1      29.547  17.697   4.881  0.00  0.00     0.042 A 
HETATM   18  C   UNK N   1      28.992  17.579   6.172  0.00  0.00    -0.008 A 
HETATM   19  N   UNK N   1      28.769  18.052   3.826  0.00  0.00    -0.365 N 
HETATM   20  C   UNK N   1      29.809  17.210   7.255  0.00  0.00     0.032 A 
HETATM   21  C   UNK N   1      27.632  17.833   6.346  0.00  0.00     0.015 A 
HETATM   22  C   UNK N   1      26.851  18.198   5.245  0.00  0.00     0.018 A 
HETATM   23  C   UNK N   1      27.442  18.303   3.982  0.00  0.00     0.088 A 
ATOM     24  HN  UNK N   1      29.188  18.132   2.900  1.00  0.00     0.165 HD
ENDBRANCH  13  14
ENDBRANCH   8  13
BRANCH   3  25
HETATM   25  C   UNK N   1      35.403  13.727  12.414  0.00  0.00     0.026 A 
HETATM   26  C   UNK N   1      36.288  14.770  12.633  0.00  0.00     0.122 A 
HETATM   27  N   UNK N   1      36.648  14.738  13.933  0.00  0.00    -0.310 N 
HETATM   28  N   UNK N   1      36.024  13.726  14.513  0.00  0.00    -0.307 N 
ATOM     29  HN  UNK N   1      37.292  15.384  14.391  1.00  0.00     0.186 HD
HETATM   30  C   UNK N   1      36.161  13.372  15.914  0.00  0.00     0.177 C 
HETATM   31  C   UNK N   1      35.257  13.085  13.625  0.00  0.00     0.124 A 
ENDBRANCH   3  25
TORSDOF 3
ENDMDL
MODEL 8
REMARK VINA RESULT:      -7.3      4.707      8.287
REMARK  3 active torsions:
REMARK  status: ('A' for Active; 'I' for Inactive)
REMARK    1  A    between atoms: C_5  and  C_7 
REMARK    2  A    between atoms: S_20  and  C_15 
REMARK    3  A    between atoms: S_20  and  C_21 
ROOT
HETATM    1  C   UNK N   1      20.196  15.121   0.780  0.00  0.00     0.054 A 
HETATM    2  C   UNK N   1      21.301  14.353   1.186  0.00  0.00     0.036 A 
HETATM    3  C   UNK N   1      22.205  14.882   2.133  0.00  0.00     0.061 A 
HETATM    4  N   UNK N   1      21.985  16.130   2.635  0.00  0.00    -0.290 N 
ATOM      5  HN  UNK N   1      22.632  16.521   3.320  1.00  0.00     0.188 HD
HETATM    6  N   UNK N   1      20.937  16.838   2.241  0.00  0.00    -0.214 N 
HETATM    7  C   UNK N   1      20.057  16.382   1.349  0.00  0.00     0.144 A 
HETATM    8  C   UNK N   1      20.496  18.076   2.574  0.00  0.00     0.187 A 
HETATM    9  N   UNK N   1      19.362  18.340   1.880  0.00  0.00    -0.276 N 
ATOM     10  HN  UNK N   1      18.813  19.199   1.933  1.00  0.00     0.189 HD
HETATM   11  N   UNK N   1      19.090  17.283   1.117  0.00  0.00    -0.282 N 
ATOM     12  HN  UNK N   1      18.300  17.178   0.480  1.00  0.00     0.188 HD
ENDROOT
BRANCH   8  13
HETATM   13  S   UNK N   1      21.172  19.331   3.740  0.00  0.00    -0.051 SA
BRANCH  13  14
HETATM   14  C   UNK N   1      22.980  19.484   3.657  0.00  0.00     0.009 A 
HETATM   15  C   UNK N   1      23.612  20.455   2.900  0.00  0.00     0.021 A 
HETATM   16  C   UNK N   1      24.996  20.562   2.845  0.00  0.00     0.031 A 
HETATM   17  C   UNK N   1      25.785  19.681   3.561  0.00  0.00     0.042 A 
HETATM   18  C   UNK N   1      25.176  18.679   4.343  0.00  0.00    -0.008 A 
HETATM   19  N   UNK N   1      27.139  19.786   3.507  0.00  0.00    -0.365 N 
HETATM   20  C   UNK N   1      23.774  18.582   4.390  0.00  0.00     0.032 A 
HETATM   21  C   UNK N   1      25.986  17.798   5.059  0.00  0.00     0.015 A 
HETATM   22  C   UNK N   1      27.376  17.925   4.989  0.00  0.00     0.018 A 
HETATM   23  C   UNK N   1      27.940  18.933   4.201  0.00  0.00     0.088 A 
ATOM     24  HN  UNK N   1      27.562  20.517   2.936  1.00  0.00     0.165 HD
ENDBRANCH  13  14
ENDBRANCH   8  13
BRANCH   3  25
HETATM   25  C   UNK N   1      23.378  14.118   2.590  0.00  0.00     0.026 A 
HETATM   26  C   UNK N   1      23.422  13.080   3.506  0.00  0.00     0.122 A 
HETATM   27  N   UNK N   1      24.708  12.683   3.616  0.00  0.00    -0.310 N 
HETATM   28  N   UNK N   1      25.444  13.430   2.811  0.00  0.00    -0.307 N 
ATOM     29  HN  UNK N   1      25.052  11.934   4.217  1.00  0.00     0.186 HD
HETATM   30  C   UNK N   1      26.882  13.299   2.656  0.00  0.00     0.177 C 
HETATM   31  C   UNK N   1      24.675  14.316   2.168  0.00  0.00     0.124 A 
ENDBRANCH   3  25
TORSDOF 3
ENDMDL
MODEL 9
REMARK VINA RESULT:      -7.2      5.363      8.160
REMARK  3 active torsions:
REMARK  status: ('A' for Active; 'I' for Inactive)
REMARK    1  A    between atoms: C_5  and  C_7 
REMARK    2  A    between atoms: S_20  and  C_15 
REMARK    3  A    between atoms: S_20  and  C_21 
ROOT
HETATM    1  C   UNK N   1      19.690  16.357   7.788  0.00  0.00     0.054 A 
HETATM    2  C   UNK N   1      20.030  15.455   8.812  0.00  0.00     0.036 A 
HETATM    3  C   UNK N   1      21.136  14.595   8.642  0.00  0.00     0.061 A 
HETATM    4  N   UNK N   1      21.853  14.658   7.484  0.00  0.00    -0.290 N 
ATOM      5  HN  UNK N   1      22.654  14.040   7.351  1.00  0.00     0.188 HD
HETATM    6  N   UNK N   1      21.517  15.514   6.531  0.00  0.00    -0.214 N 
HETATM    7  C   UNK N   1      20.481  16.346   6.645  0.00  0.00     0.144 A 
HETATM    8  C   UNK N   1      22.049  15.774   5.311  0.00  0.00     0.187 A 
HETATM    9  N   UNK N   1      21.325  16.754   4.717  0.00  0.00    -0.276 N 
ATOM     10  HN  UNK N   1      21.499  17.151   3.792  1.00  0.00     0.189 HD
HETATM   11  N   UNK N   1      20.349  17.109   5.550  0.00  0.00    -0.282 N 
ATOM     12  HN  UNK N   1      19.638  17.823   5.387  1.00  0.00     0.188 HD
ENDROOT
BRANCH   8  13
HETATM   13  S   UNK N   1      23.493  15.039   4.436  0.00  0.00    -0.051 SA
BRANCH  13  14
HETATM   14  C   UNK N   1      24.896  16.182   4.283  0.00  0.00     0.009 A 
HETATM   15  C   UNK N   1      26.072  15.837   3.640  0.00  0.00     0.021 A 
HETATM   16  C   UNK N   1      27.139  16.721   3.531  0.00  0.00     0.031 A 
HETATM   17  C   UNK N   1      27.042  17.989   4.073  0.00  0.00     0.042 A 
HETATM   18  C   UNK N   1      25.859  18.375   4.735  0.00  0.00    -0.008 A 
HETATM   19  N   UNK N   1      28.085  18.853   3.965  0.00  0.00    -0.365 N 
HETATM   20  C   UNK N   1      24.788  17.470   4.839  0.00  0.00     0.032 A 
HETATM   21  C   UNK N   1      25.777  19.657   5.277  0.00  0.00     0.015 A 
HETATM   22  C   UNK N   1      26.863  20.529   5.154  0.00  0.00     0.018 A 
HETATM   23  C   UNK N   1      28.019  20.106   4.489  0.00  0.00     0.088 A 
ATOM     24  HN  UNK N   1      28.933  18.557   3.483  1.00  0.00     0.165 HD
ENDBRANCH  13  14
ENDBRANCH   8  13
BRANCH   3  25
HETATM   25  C   UNK N   1      21.533  13.633   9.684  0.00  0.00     0.026 A 
HETATM   26  C   UNK N   1      20.718  12.876  10.509  0.00  0.00     0.122 A 
HETATM   27  N   UNK N   1      21.515  12.136  11.308  0.00  0.00    -0.310 N 
HETATM   28  N   UNK N   1      22.773  12.408  11.008  0.00  0.00    -0.307 N 
ATOM     29  HN  UNK N   1      21.200  11.479  12.023  1.00  0.00     0.186 HD
HETATM   30  C   UNK N   1      23.922  11.804  11.659  0.00  0.00     0.177 C 
HETATM   31  C   UNK N   1      22.830  13.314  10.025  0.00  0.00     0.124 A 
ENDBRANCH   3  25
TORSDOF 3
ENDMDL
