MODEL 1
REMARK VINA RESULT:      -6.1      0.000      0.000
REMARK  19 active torsions:
REMARK  status: ('A' for Active; 'I' for Inactive)
REMARK    1  A    between atoms: P_2  and  O_1 
REMARK    2  A    between atoms: P_2  and  O_5 
REMARK    3  A    between atoms: P_2  and  O_4 
REMARK    4  A    between atoms: O_5  and  C_6 
REMARK    5  A    between atoms: C_6  and  C_7 
REMARK    6  A    between atoms: C_10  and  C_7 
REMARK    7  A    between atoms: C_10  and  C_12 
REMARK    8  A    between atoms: C_10  and  O_11 
REMARK       I    between atoms: C_12  and  N_14 
REMARK    9  A    between atoms: N_14  and  C_15 
REMARK   10  A    between atoms: C_15  and  C_16 
REMARK   11  A    between atoms: C_16  and  C_17 
REMARK       I    between atoms: N_19  and  C_17 
REMARK   12  A    between atoms: N_19  and  C_20 
REMARK   13  A    between atoms: C_21  and  C_20 
REMARK   14  A    between atoms: S_22  and  C_21 
REMARK   15  A    between atoms: C_23  and  S_22 
REMARK   16  A    between atoms: C_25  and  C_23 
REMARK   17  A    between atoms: C_26  and  C_25 
REMARK   18  A    between atoms: C_26  and  C_27 
REMARK   19  A    between atoms: C_28  and  C_27 
ROOT
HETATM    1  C   UNK N   1      34.053  17.051   7.592  0.00  0.00     0.247 C 
HETATM    2  O   UNK N   1      34.578  17.964   6.968  0.00  0.00    -0.271 OA
HETATM    3  N   UNK N   1      34.847  16.088   8.118  0.00  0.00    -0.358 N 
HETATM    4  H   UNK N   1      35.813  16.126   7.929  0.00  0.00     0.162 HD
ENDROOT
BRANCH   3   5
HETATM    5  C   UNK N   1      34.353  15.005   8.940  0.00  0.00     0.132 C 
BRANCH   5   6
HETATM    6  C   UNK N   1      34.425  15.402  10.404  0.00  0.00     0.122 C 
BRANCH   6   7
HETATM    7  C   UNK N   1      35.757  16.019  10.720  0.00  0.00     0.219 C 
HETATM    8  O   UNK N   1      35.908  17.215  10.541  0.00  0.00    -0.274 OA
HETATM    9  N   UNK N   1      36.788  15.286  11.208  0.00  0.00    -0.360 N 
HETATM   10  H   UNK N   1      37.620  15.754  11.447  0.00  0.00     0.162 HD
BRANCH   9  11
HETATM   11  C   UNK N   1      36.727  13.855  11.393  0.00  0.00     0.133 C 
BRANCH  11  12
HETATM   12  C   UNK N   1      36.295  13.500  12.815  0.00  0.00     0.102 C 
BRANCH  12  13
HETATM   13  S   UNK N   1      36.150  11.692  13.052  0.00  0.00    -0.091 SA
BRANCH  13  14
HETATM   14  C   UNK N   1      35.044  11.759  14.470  0.00  0.00     0.186 C 
HETATM   15  O   UNK N   1      34.377  10.788  14.793  0.00  0.00    -0.286 OA
BRANCH  14  16
HETATM   16  C   UNK N   1      34.972  13.008  15.280  0.00  0.00     0.091 C 
BRANCH  16  17
HETATM   17  C   UNK N   1      35.875  12.854  16.487  0.00  0.00     0.008 C 
BRANCH  17  18
HETATM   18  C   UNK N   1      35.059  12.731  17.753  0.00  0.00     0.000 C 
BRANCH  18  19
HETATM   19  C   UNK N   1      35.442  11.436  18.437  0.00  0.00    -0.005 C 
HETATM   20  C   UNK N   1      35.608  11.671  19.922  0.00  0.00     0.005 C 
ENDBRANCH  18  19
ENDBRANCH  17  18
ENDBRANCH  16  17
ENDBRANCH  14  16
ENDBRANCH  13  14
ENDBRANCH  12  13
ENDBRANCH  11  12
ENDBRANCH   9  11
ENDBRANCH   6   7
ENDBRANCH   5   6
ENDBRANCH   3   5
BRANCH   1  21
HETATM   21  C   UNK N   1      32.550  17.064   7.822  0.00  0.00     0.219 C 
BRANCH  21  22
HETATM   22  C   UNK N   1      31.703  16.647   6.592  0.00  0.00     0.009 C 
HETATM   23  C   UNK N   1      31.654  15.125   6.526  0.00  0.00     0.020 C 
HETATM   24  C   UNK N   1      32.347  17.153   5.308  0.00  0.00     0.020 C 
BRANCH  22  25
HETATM   25  C   UNK N   1      30.266  17.173   6.694  0.00  0.00     0.192 C 
BRANCH  25  26
HETATM   26  O   UNK N   1      29.803  17.096   8.015  0.00  0.00    -0.296 OA
BRANCH  26  27
HETATM   27  P   UNK N   1      28.536  18.277   8.138  0.00  0.00     0.390 P 
HETATM   28  O   UNK N   1      27.741  16.979   7.830  0.00  0.00    -0.632 OA
BRANCH  27  29
HETATM   29  O   UNK N   1      27.413  18.191   9.460  0.00  0.00    -0.307 OA
HETATM   30  H   UNK N   1      26.529  18.585   9.402  0.00  0.00     0.222 HD
ENDBRANCH  27  29
BRANCH  27  31
HETATM   31  O   UNK N   1      29.373  18.123   9.653  0.00  0.00    -0.307 OA
HETATM   32  H   UNK N   1      30.106  18.701   9.918  0.00  0.00     0.222 HD
ENDBRANCH  27  31
ENDBRANCH  26  27
ENDBRANCH  25  26
ENDBRANCH  22  25
ENDBRANCH  21  22
BRANCH  21  33
HETATM   33  O   UNK N   1      32.178  18.342   8.248  0.00  0.00    -0.385 OA
HETATM   34  H   UNK N   1      31.992  18.685   9.136  0.00  0.00     0.210 HD
ENDBRANCH  21  33
ENDBRANCH   1  21
TORSDOF 19
ENDMDL
MODEL 2
REMARK VINA RESULT:      -6.0      4.596     10.325
REMARK  19 active torsions:
REMARK  status: ('A' for Active; 'I' for Inactive)
REMARK    1  A    between atoms: P_2  and  O_1 
REMARK    2  A    between atoms: P_2  and  O_5 
REMARK    3  A    between atoms: P_2  and  O_4 
REMARK    4  A    between atoms: O_5  and  C_6 
REMARK    5  A    between atoms: C_6  and  C_7 
REMARK    6  A    between atoms: C_10  and  C_7 
REMARK    7  A    between atoms: C_10  and  C_12 
REMARK    8  A    between atoms: C_10  and  O_11 
REMARK       I    between atoms: C_12  and  N_14 
REMARK    9  A    between atoms: N_14  and  C_15 
REMARK   10  A    between atoms: C_15  and  C_16 
REMARK   11  A    between atoms: C_16  and  C_17 
REMARK       I    between atoms: N_19  and  C_17 
REMARK   12  A    between atoms: N_19  and  C_20 
REMARK   13  A    between atoms: C_21  and  C_20 
REMARK   14  A    between atoms: S_22  and  C_21 
REMARK   15  A    between atoms: C_23  and  S_22 
REMARK   16  A    between atoms: C_25  and  C_23 
REMARK   17  A    between atoms: C_26  and  C_25 
REMARK   18  A    between atoms: C_26  and  C_27 
REMARK   19  A    between atoms: C_28  and  C_27 
ROOT
HETATM    1  C   UNK N   1      35.273  16.086  10.681  0.00  0.00     0.247 C 
HETATM    2  O   UNK N   1      35.196  15.922  11.891  0.00  0.00    -0.271 OA
HETATM    3  N   UNK N   1      34.672  17.171  10.136  0.00  0.00    -0.358 N 
HETATM    4  H   UNK N   1      34.145  17.756  10.727  0.00  0.00     0.162 HD
ENDROOT
BRANCH   3   5
HETATM    5  C   UNK N   1      34.760  17.515   8.734  0.00  0.00     0.132 C 
BRANCH   5   6
HETATM    6  C   UNK N   1      33.400  17.965   8.231  0.00  0.00     0.122 C 
BRANCH   6   7
HETATM    7  C   UNK N   1      33.221  17.593   6.787  0.00  0.00     0.219 C 
HETATM    8  O   UNK N   1      34.085  17.907   5.988  0.00  0.00    -0.274 OA
HETATM    9  N   UNK N   1      32.132  16.912   6.354  0.00  0.00    -0.360 N 
HETATM   10  H   UNK N   1      32.093  16.649   5.406  0.00  0.00     0.162 HD
BRANCH   9  11
HETATM   11  C   UNK N   1      31.026  16.552   7.211  0.00  0.00     0.133 C 
BRANCH  11  12
HETATM   12  C   UNK N   1      29.688  16.788   6.514  0.00  0.00     0.102 C 
BRANCH  12  13
HETATM   13  S   UNK N   1      28.481  17.613   7.614  0.00  0.00    -0.091 SA
BRANCH  13  14
HETATM   14  C   UNK N   1      28.080  18.969   6.501  0.00  0.00     0.186 C 
HETATM   15  O   UNK N   1      27.583  20.001   6.923  0.00  0.00    -0.286 OA
BRANCH  14  16
HETATM   16  C   UNK N   1      28.394  18.838   5.050  0.00  0.00     0.091 C 
BRANCH  16  17
HETATM   17  C   UNK N   1      27.598  19.878   4.288  0.00  0.00     0.008 C 
BRANCH  17  18
HETATM   18  C   UNK N   1      26.313  19.286   3.759  0.00  0.00     0.000 C 
BRANCH  18  19
HETATM   19  C   UNK N   1      25.223  20.327   3.895  0.00  0.00    -0.005 C 
HETATM   20  C   UNK N   1      23.905  19.752   3.427  0.00  0.00     0.005 C 
ENDBRANCH  18  19
ENDBRANCH  17  18
ENDBRANCH  16  17
ENDBRANCH  14  16
ENDBRANCH  13  14
ENDBRANCH  12  13
ENDBRANCH  11  12
ENDBRANCH   9  11
ENDBRANCH   6   7
ENDBRANCH   5   6
ENDBRANCH   3   5
BRANCH   1  21
HETATM   21  C   UNK N   1      36.096  15.121   9.841  0.00  0.00     0.219 C 
BRANCH  21  22
HETATM   22  C   UNK N   1      35.378  13.791   9.493  0.00  0.00     0.009 C 
HETATM   23  C   UNK N   1      36.357  12.886   8.755  0.00  0.00     0.020 C 
HETATM   24  C   UNK N   1      34.193  14.053   8.572  0.00  0.00     0.020 C 
BRANCH  22  25
HETATM   25  C   UNK N   1      34.902  13.062  10.756  0.00  0.00     0.192 C 
BRANCH  25  26
HETATM   26  O   UNK N   1      35.949  12.323  11.324  0.00  0.00    -0.296 OA
BRANCH  26  27
HETATM   27  P   UNK N   1      35.656  12.333  13.036  0.00  0.00     0.390 P 
HETATM   28  O   UNK N   1      36.915  13.235  12.916  0.00  0.00    -0.632 OA
BRANCH  27  29
HETATM   29  O   UNK N   1      35.149  13.804  13.807  0.00  0.00    -0.307 OA
HETATM   30  H   UNK N   1      34.811  14.556  13.296  0.00  0.00     0.222 HD
ENDBRANCH  27  29
BRANCH  27  31
HETATM   31  O   UNK N   1      34.320  13.049  12.187  0.00  0.00    -0.307 OA
HETATM   32  H   UNK N   1      34.366  13.327  11.258  0.00  0.00     0.222 HD
ENDBRANCH  27  31
ENDBRANCH  26  27
ENDBRANCH  25  26
ENDBRANCH  22  25
ENDBRANCH  21  22
BRANCH  21  33
HETATM   33  O   UNK N   1      37.291  14.857  10.515  0.00  0.00    -0.385 OA
HETATM   34  H   UNK N   1      37.619  15.174  11.372  0.00  0.00     0.210 HD
ENDBRANCH  21  33
ENDBRANCH   1  21
TORSDOF 19
ENDMDL
MODEL 3
REMARK VINA RESULT:      -5.9      5.970     11.288
REMARK  19 active torsions:
REMARK  status: ('A' for Active; 'I' for Inactive)
REMARK    1  A    between atoms: P_2  and  O_1 
REMARK    2  A    between atoms: P_2  and  O_5 
REMARK    3  A    between atoms: P_2  and  O_4 
REMARK    4  A    between atoms: O_5  and  C_6 
REMARK    5  A    between atoms: C_6  and  C_7 
REMARK    6  A    between atoms: C_10  and  C_7 
REMARK    7  A    between atoms: C_10  and  C_12 
REMARK    8  A    between atoms: C_10  and  O_11 
REMARK       I    between atoms: C_12  and  N_14 
REMARK    9  A    between atoms: N_14  and  C_15 
REMARK   10  A    between atoms: C_15  and  C_16 
REMARK   11  A    between atoms: C_16  and  C_17 
REMARK       I    between atoms: N_19  and  C_17 
REMARK   12  A    between atoms: N_19  and  C_20 
REMARK   13  A    between atoms: C_21  and  C_20 
REMARK   14  A    between atoms: S_22  and  C_21 
REMARK   15  A    between atoms: C_23  and  S_22 
REMARK   16  A    between atoms: C_25  and  C_23 
REMARK   17  A    between atoms: C_26  and  C_25 
REMARK   18  A    between atoms: C_26  and  C_27 
REMARK   19  A    between atoms: C_28  and  C_27 
ROOT
HETATM    1  C   UNK N   1      33.370  17.818   8.269  0.00  0.00     0.247 C 
HETATM    2  O   UNK N   1      34.437  18.224   8.708  0.00  0.00    -0.271 OA
HETATM    3  N   UNK N   1      32.256  17.983   9.023  0.00  0.00    -0.358 N 
HETATM    4  H   UNK N   1      32.356  18.371   9.922  0.00  0.00     0.162 HD
ENDROOT
BRANCH   3   5
HETATM    5  C   UNK N   1      30.929  17.619   8.579  0.00  0.00     0.132 C 
BRANCH   5   6
HETATM    6  C   UNK N   1      29.927  18.656   9.055  0.00  0.00     0.122 C 
BRANCH   6   7
HETATM    7  C   UNK N   1      28.527  18.120   8.966  0.00  0.00     0.219 C 
HETATM    8  O   UNK N   1      28.150  17.321   9.805  0.00  0.00    -0.274 OA
HETATM    9  N   UNK N   1      27.673  18.508   7.987  0.00  0.00    -0.360 N 
HETATM   10  H   UNK N   1      26.751  18.165   8.010  0.00  0.00     0.162 HD
BRANCH   9  11
HETATM   11  C   UNK N   1      28.048  19.399   6.914  0.00  0.00     0.133 C 
BRANCH  11  12
HETATM   12  C   UNK N   1      26.866  19.672   5.986  0.00  0.00     0.102 C 
BRANCH  12  13
HETATM   13  S   UNK N   1      27.307  19.420   4.228  0.00  0.00    -0.091 SA
BRANCH  13  14
HETATM   14  C   UNK N   1      25.800  18.555   3.760  0.00  0.00     0.186 C 
HETATM   15  O   UNK N   1      25.846  17.500   3.147  0.00  0.00    -0.286 OA
BRANCH  14  16
HETATM   16  C   UNK N   1      24.480  19.121   4.159  0.00  0.00     0.091 C 
BRANCH  16  17
HETATM   17  C   UNK N   1      24.265  20.420   3.410  0.00  0.00     0.008 C 
BRANCH  17  18
HETATM   18  C   UNK N   1      22.958  20.391   2.653  0.00  0.00     0.000 C 
BRANCH  18  19
HETATM   19  C   UNK N   1      21.988  19.520   3.422  0.00  0.00    -0.005 C 
HETATM   20  C   UNK N   1      20.632  20.189   3.477  0.00  0.00     0.005 C 
ENDBRANCH  18  19
ENDBRANCH  17  18
ENDBRANCH  16  17
ENDBRANCH  14  16
ENDBRANCH  13  14
ENDBRANCH  12  13
ENDBRANCH  11  12
ENDBRANCH   9  11
ENDBRANCH   6   7
ENDBRANCH   5   6
ENDBRANCH   3   5
BRANCH   1  21
HETATM   21  C   UNK N   1      33.310  17.216   6.874  0.00  0.00     0.219 C 
BRANCH  21  22
HETATM   22  C   UNK N   1      33.643  15.702   6.807  0.00  0.00     0.009 C 
HETATM   23  C   UNK N   1      34.406  15.427   5.517  0.00  0.00     0.020 C 
HETATM   24  C   UNK N   1      32.363  14.878   6.783  0.00  0.00     0.020 C 
BRANCH  22  25
HETATM   25  C   UNK N   1      34.519  15.267   7.989  0.00  0.00     0.192 C 
BRANCH  25  26
HETATM   26  O   UNK N   1      33.849  14.325   8.782  0.00  0.00    -0.296 OA
BRANCH  26  27
HETATM   27  P   UNK N   1      34.539  14.471  10.368  0.00  0.00     0.390 P 
HETATM   28  O   UNK N   1      35.541  15.282   9.503  0.00  0.00    -0.632 OA
BRANCH  27  29
HETATM   29  O   UNK N   1      34.559  16.019  11.154  0.00  0.00    -0.307 OA
HETATM   30  H   UNK N   1      35.372  16.386  11.535  0.00  0.00     0.222 HD
ENDBRANCH  27  29
BRANCH  27  31
HETATM   31  O   UNK N   1      32.968  15.209  10.321  0.00  0.00    -0.307 OA
HETATM   32  H   UNK N   1      32.793  16.062   9.892  0.00  0.00     0.222 HD
ENDBRANCH  27  31
ENDBRANCH  26  27
ENDBRANCH  25  26
ENDBRANCH  22  25
ENDBRANCH  21  22
BRANCH  21  33
HETATM   33  O   UNK N   1      34.177  17.933   6.045  0.00  0.00    -0.385 OA
HETATM   34  H   UNK N   1      34.278  18.889   5.909  0.00  0.00     0.210 HD
ENDBRANCH  21  33
ENDBRANCH   1  21
TORSDOF 19
ENDMDL
MODEL 4
REMARK VINA RESULT:      -5.8      8.586     12.037
REMARK  19 active torsions:
REMARK  status: ('A' for Active; 'I' for Inactive)
REMARK    1  A    between atoms: P_2  and  O_1 
REMARK    2  A    between atoms: P_2  and  O_5 
REMARK    3  A    between atoms: P_2  and  O_4 
REMARK    4  A    between atoms: O_5  and  C_6 
REMARK    5  A    between atoms: C_6  and  C_7 
REMARK    6  A    between atoms: C_10  and  C_7 
REMARK    7  A    between atoms: C_10  and  C_12 
REMARK    8  A    between atoms: C_10  and  O_11 
REMARK       I    between atoms: C_12  and  N_14 
REMARK    9  A    between atoms: N_14  and  C_15 
REMARK   10  A    between atoms: C_15  and  C_16 
REMARK   11  A    between atoms: C_16  and  C_17 
REMARK       I    between atoms: N_19  and  C_17 
REMARK   12  A    between atoms: N_19  and  C_20 
REMARK   13  A    between atoms: C_21  and  C_20 
REMARK   14  A    between atoms: S_22  and  C_21 
REMARK   15  A    between atoms: C_23  and  S_22 
REMARK   16  A    between atoms: C_25  and  C_23 
REMARK   17  A    between atoms: C_26  and  C_25 
REMARK   18  A    between atoms: C_26  and  C_27 
REMARK   19  A    between atoms: C_28  and  C_27 
ROOT
HETATM    1  C   UNK N   1      22.388  17.910   5.543  0.00  0.00     0.247 C 
HETATM    2  O   UNK N   1      21.846  18.368   6.540  0.00  0.00    -0.271 OA
HETATM    3  N   UNK N   1      23.577  18.432   5.156  0.00  0.00    -0.358 N 
HETATM    4  H   UNK N   1      23.932  19.201   5.658  0.00  0.00     0.162 HD
ENDROOT
BRANCH   3   5
HETATM    5  C   UNK N   1      24.351  17.923   4.045  0.00  0.00     0.132 C 
BRANCH   5   6
HETATM    6  C   UNK N   1      25.761  18.482   4.106  0.00  0.00     0.122 C 
BRANCH   6   7
HETATM    7  C   UNK N   1      25.732  19.976   4.252  0.00  0.00     0.219 C 
HETATM    8  O   UNK N   1      24.844  20.603   3.700  0.00  0.00    -0.274 OA
HETATM    9  N   UNK N   1      26.656  20.642   4.987  0.00  0.00    -0.360 N 
HETATM   10  H   UNK N   1      26.556  21.616   5.091  0.00  0.00     0.162 HD
BRANCH   9  11
HETATM   11  C   UNK N   1      27.780  19.995   5.624  0.00  0.00     0.133 C 
BRANCH  11  12
HETATM   12  C   UNK N   1      27.485  19.696   7.092  0.00  0.00     0.102 C 
BRANCH  12  13
HETATM   13  S   UNK N   1      28.759  18.615   7.837  0.00  0.00    -0.091 SA
BRANCH  13  14
HETATM   14  C   UNK N   1      28.333  17.129   6.915  0.00  0.00     0.186 C 
HETATM   15  O   UNK N   1      27.171  16.766   6.813  0.00  0.00    -0.286 OA
BRANCH  14  16
HETATM   16  C   UNK N   1      29.412  16.355   6.239  0.00  0.00     0.091 C 
BRANCH  16  17
HETATM   17  C   UNK N   1      30.546  17.302   5.900  0.00  0.00     0.008 C 
BRANCH  17  18
HETATM   18  C   UNK N   1      30.745  17.384   4.405  0.00  0.00     0.000 C 
BRANCH  18  19
HETATM   19  C   UNK N   1      32.204  17.687   4.140  0.00  0.00    -0.005 C 
HETATM   20  C   UNK N   1      33.023  17.384   5.375  0.00  0.00     0.005 C 
ENDBRANCH  18  19
ENDBRANCH  17  18
ENDBRANCH  16  17
ENDBRANCH  14  16
ENDBRANCH  13  14
ENDBRANCH  12  13
ENDBRANCH  11  12
ENDBRANCH   9  11
ENDBRANCH   6   7
ENDBRANCH   5   6
ENDBRANCH   3   5
BRANCH   1  21
HETATM   21  C   UNK N   1      21.759  16.730   4.819  0.00  0.00     0.219 C 
BRANCH  21  22
HETATM   22  C   UNK N   1      20.646  17.111   3.808  0.00  0.00     0.009 C 
HETATM   23  C   UNK N   1      19.303  16.653   4.364  0.00  0.00     0.020 C 
HETATM   24  C   UNK N   1      20.872  16.402   2.479  0.00  0.00     0.020 C 
BRANCH  22  25
HETATM   25  C   UNK N   1      20.585  18.627   3.583  0.00  0.00     0.192 C 
BRANCH  25  26
HETATM   26  O   UNK N   1      21.332  18.992   2.455  0.00  0.00    -0.296 OA
BRANCH  26  27
HETATM   27  P   UNK N   1      21.002  20.677   2.198  0.00  0.00     0.390 P 
HETATM   28  O   UNK N   1      20.759  20.528   3.725  0.00  0.00    -0.632 OA
BRANCH  27  29
HETATM   29  O   UNK N   1      22.067  21.870   2.874  0.00  0.00    -0.307 OA
HETATM   30  H   UNK N   1      22.710  21.645   3.565  0.00  0.00     0.222 HD
ENDBRANCH  27  29
BRANCH  27  31
HETATM   31  O   UNK N   1      22.657  20.317   1.814  0.00  0.00    -0.307 OA
HETATM   32  H   UNK N   1      23.391  20.458   2.434  0.00  0.00     0.222 HD
ENDBRANCH  27  31
ENDBRANCH  26  27
ENDBRANCH  25  26
ENDBRANCH  22  25
ENDBRANCH  21  22
BRANCH  21  33
HETATM   33  O   UNK N   1      21.254  15.843   5.774  0.00  0.00    -0.385 OA
HETATM   34  H   UNK N   1      20.507  15.224   5.732  0.00  0.00     0.210 HD
ENDBRANCH  21  33
ENDBRANCH   1  21
TORSDOF 19
ENDMDL
MODEL 5
REMARK VINA RESULT:      -5.8      1.594      2.051
REMARK  19 active torsions:
REMARK  status: ('A' for Active; 'I' for Inactive)
REMARK    1  A    between atoms: P_2  and  O_1 
REMARK    2  A    between atoms: P_2  and  O_5 
REMARK    3  A    between atoms: P_2  and  O_4 
REMARK    4  A    between atoms: O_5  and  C_6 
REMARK    5  A    between atoms: C_6  and  C_7 
REMARK    6  A    between atoms: C_10  and  C_7 
REMARK    7  A    between atoms: C_10  and  C_12 
REMARK    8  A    between atoms: C_10  and  O_11 
REMARK       I    between atoms: C_12  and  N_14 
REMARK    9  A    between atoms: N_14  and  C_15 
REMARK   10  A    between atoms: C_15  and  C_16 
REMARK   11  A    between atoms: C_16  and  C_17 
REMARK       I    between atoms: N_19  and  C_17 
REMARK   12  A    between atoms: N_19  and  C_20 
REMARK   13  A    between atoms: C_21  and  C_20 
REMARK   14  A    between atoms: S_22  and  C_21 
REMARK   15  A    between atoms: C_23  and  S_22 
REMARK   16  A    between atoms: C_25  and  C_23 
REMARK   17  A    between atoms: C_26  and  C_25 
REMARK   18  A    between atoms: C_26  and  C_27 
REMARK   19  A    between atoms: C_28  and  C_27 
ROOT
HETATM    1  C   UNK N   1      34.589  15.863   9.629  0.00  0.00     0.247 C 
HETATM    2  O   UNK N   1      34.727  16.988  10.090  0.00  0.00    -0.271 OA
HETATM    3  N   UNK N   1      35.669  15.046   9.583  0.00  0.00    -0.358 N 
HETATM    4  H   UNK N   1      36.539  15.409   9.869  0.00  0.00     0.162 HD
ENDROOT
BRANCH   3   5
HETATM    5  C   UNK N   1      35.615  13.672   9.135  0.00  0.00     0.132 C 
BRANCH   5   6
HETATM    6  C   UNK N   1      37.023  13.114   9.024  0.00  0.00     0.122 C 
BRANCH   6   7
HETATM    7  C   UNK N   1      37.945  13.813   9.982  0.00  0.00     0.219 C 
HETATM    8  O   UNK N   1      38.539  14.808   9.606  0.00  0.00    -0.274 OA
HETATM    9  N   UNK N   1      38.124  13.374  11.252  0.00  0.00    -0.360 N 
HETATM   10  H   UNK N   1      38.699  13.902  11.851  0.00  0.00     0.162 HD
BRANCH   9  11
HETATM   11  C   UNK N   1      37.516  12.170  11.769  0.00  0.00     0.133 C 
BRANCH  11  12
HETATM   12  C   UNK N   1      36.669  12.467  13.005  0.00  0.00     0.102 C 
BRANCH  12  13
HETATM   13  S   UNK N   1      34.912  12.028  12.750  0.00  0.00    -0.091 SA
BRANCH  13  14
HETATM   14  C   UNK N   1      34.607  11.421  14.417  0.00  0.00     0.186 C 
HETATM   15  O   UNK N   1      33.536  10.915  14.715  0.00  0.00    -0.286 OA
BRANCH  14  16
HETATM   16  C   UNK N   1      35.693  11.507  15.434  0.00  0.00     0.091 C 
BRANCH  16  17
HETATM   17  C   UNK N   1      35.082  11.915  16.759  0.00  0.00     0.008 C 
BRANCH  17  18
HETATM   18  C   UNK N   1      35.382  13.364  17.063  0.00  0.00     0.000 C 
BRANCH  18  19
HETATM   19  C   UNK N   1      35.133  13.598  18.538  0.00  0.00    -0.005 C 
HETATM   20  C   UNK N   1      35.370  12.317  19.307  0.00  0.00     0.005 C 
ENDBRANCH  18  19
ENDBRANCH  17  18
ENDBRANCH  16  17
ENDBRANCH  14  16
ENDBRANCH  13  14
ENDBRANCH  12  13
ENDBRANCH  11  12
ENDBRANCH   9  11
ENDBRANCH   6   7
ENDBRANCH   5   6
ENDBRANCH   3   5
BRANCH   1  21
HETATM   21  C   UNK N   1      33.210  15.391   9.195  0.00  0.00     0.219 C 
BRANCH  21  22
HETATM   22  C   UNK N   1      32.569  16.226   8.056  0.00  0.00     0.009 C 
HETATM   23  C   UNK N   1      31.788  15.288   7.143  0.00  0.00     0.020 C 
HETATM   24  C   UNK N   1      33.648  16.904   7.223  0.00  0.00     0.020 C 
BRANCH  22  25
HETATM   25  C   UNK N   1      31.601  17.280   8.609  0.00  0.00     0.192 C 
BRANCH  25  26
HETATM   26  O   UNK N   1      30.323  17.117   8.055  0.00  0.00    -0.296 OA
BRANCH  26  27
HETATM   27  P   UNK N   1      29.347  18.374   8.750  0.00  0.00     0.390 P 
HETATM   28  O   UNK N   1      28.366  17.723   7.737  0.00  0.00    -0.632 OA
BRANCH  27  29
HETATM   29  O   UNK N   1      27.991  17.951   9.748  0.00  0.00    -0.307 OA
HETATM   30  H   UNK N   1      28.040  17.988  10.716  0.00  0.00     0.222 HD
ENDBRANCH  27  29
BRANCH  27  31
HETATM   31  O   UNK N   1      29.808  17.223   9.966  0.00  0.00    -0.307 OA
HETATM   32  H   UNK N   1      29.341  17.123  10.810  0.00  0.00     0.222 HD
ENDBRANCH  27  31
ENDBRANCH  26  27
ENDBRANCH  25  26
ENDBRANCH  22  25
ENDBRANCH  21  22
BRANCH  21  33
HETATM   33  O   UNK N   1      32.372  15.385  10.313  0.00  0.00    -0.385 OA
HETATM   34  H   UNK N   1      32.115  16.101  10.916  0.00  0.00     0.210 HD
ENDBRANCH  21  33
ENDBRANCH   1  21
TORSDOF 19
ENDMDL
MODEL 6
REMARK VINA RESULT:      -5.8      3.122      5.451
REMARK  19 active torsions:
REMARK  status: ('A' for Active; 'I' for Inactive)
REMARK    1  A    between atoms: P_2  and  O_1 
REMARK    2  A    between atoms: P_2  and  O_5 
REMARK    3  A    between atoms: P_2  and  O_4 
REMARK    4  A    between atoms: O_5  and  C_6 
REMARK    5  A    between atoms: C_6  and  C_7 
REMARK    6  A    between atoms: C_10  and  C_7 
REMARK    7  A    between atoms: C_10  and  C_12 
REMARK    8  A    between atoms: C_10  and  O_11 
REMARK       I    between atoms: C_12  and  N_14 
REMARK    9  A    between atoms: N_14  and  C_15 
REMARK   10  A    between atoms: C_15  and  C_16 
REMARK   11  A    between atoms: C_16  and  C_17 
REMARK       I    between atoms: N_19  and  C_17 
REMARK   12  A    between atoms: N_19  and  C_20 
REMARK   13  A    between atoms: C_21  and  C_20 
REMARK   14  A    between atoms: S_22  and  C_21 
REMARK   15  A    between atoms: C_23  and  S_22 
REMARK   16  A    between atoms: C_25  and  C_23 
REMARK   17  A    between atoms: C_26  and  C_25 
REMARK   18  A    between atoms: C_26  and  C_27 
REMARK   19  A    between atoms: C_28  and  C_27 
ROOT
HETATM    1  C   UNK N   1      35.738  15.182  11.949  0.00  0.00     0.247 C 
HETATM    2  O   UNK N   1      35.717  16.382  11.709  0.00  0.00    -0.271 OA
HETATM    3  N   UNK N   1      36.612  14.724  12.878  0.00  0.00    -0.358 N 
HETATM    4  H   UNK N   1      37.239  15.366  13.284  0.00  0.00     0.162 HD
ENDROOT
BRANCH   3   5
HETATM    5  C   UNK N   1      36.676  13.344  13.304  0.00  0.00     0.132 C 
BRANCH   5   6
HETATM    6  C   UNK N   1      36.465  13.262  14.806  0.00  0.00     0.122 C 
BRANCH   6   7
HETATM    7  C   UNK N   1      35.024  12.980  15.122  0.00  0.00     0.219 C 
HETATM    8  O   UNK N   1      34.287  12.611  14.226  0.00  0.00    -0.274 OA
HETATM    9  N   UNK N   1      34.528  13.113  16.377  0.00  0.00    -0.360 N 
HETATM   10  H   UNK N   1      33.590  12.863  16.537  0.00  0.00     0.162 HD
BRANCH   9  11
HETATM   11  C   UNK N   1      35.306  13.604  17.491  0.00  0.00     0.133 C 
BRANCH  11  12
HETATM   12  C   UNK N   1      35.273  12.625  18.662  0.00  0.00     0.102 C 
BRANCH  12  13
HETATM   13  S   UNK N   1      35.358  10.886  18.099  0.00  0.00    -0.091 SA
BRANCH  13  14
HETATM   14  C   UNK N   1      35.772  10.172  19.698  0.00  0.00     0.186 C 
HETATM   15  O   UNK N   1      36.524  10.749  20.468  0.00  0.00    -0.286 OA
BRANCH  14  16
HETATM   16  C   UNK N   1      35.158   8.875  20.098  0.00  0.00     0.091 C 
BRANCH  16  17
HETATM   17  C   UNK N   1      34.001   8.580  19.165  0.00  0.00     0.008 C 
BRANCH  17  18
HETATM   18  C   UNK N   1      32.977   7.700  19.843  0.00  0.00     0.000 C 
BRANCH  18  19
HETATM   19  C   UNK N   1      31.690   8.485  19.969  0.00  0.00    -0.005 C 
HETATM   20  C   UNK N   1      31.711   9.302  21.242  0.00  0.00     0.005 C 
ENDBRANCH  18  19
ENDBRANCH  17  18
ENDBRANCH  16  17
ENDBRANCH  14  16
ENDBRANCH  13  14
ENDBRANCH  12  13
ENDBRANCH  11  12
ENDBRANCH   9  11
ENDBRANCH   6   7
ENDBRANCH   5   6
ENDBRANCH   3   5
BRANCH   1  21
HETATM   21  C   UNK N   1      34.744  14.259  11.262  0.00  0.00     0.219 C 
BRANCH  21  22
HETATM   22  C   UNK N   1      35.111  13.884   9.802  0.00  0.00     0.009 C 
HETATM   23  C   UNK N   1      34.829  12.401   9.593  0.00  0.00     0.020 C 
HETATM   24  C   UNK N   1      36.593  14.122   9.549  0.00  0.00     0.020 C 
BRANCH  22  25
HETATM   25  C   UNK N   1      34.277  14.682   8.791  0.00  0.00     0.192 C 
BRANCH  25  26
HETATM   26  O   UNK N   1      34.846  15.942   8.564  0.00  0.00    -0.296 OA
BRANCH  26  27
HETATM   27  P   UNK N   1      33.532  16.971   8.085  0.00  0.00     0.390 P 
HETATM   28  O   UNK N   1      32.888  15.561   7.999  0.00  0.00    -0.632 OA
BRANCH  27  29
HETATM   29  O   UNK N   1      32.143  17.120   9.115  0.00  0.00    -0.307 OA
HETATM   30  H   UNK N   1      31.421  16.473   9.093  0.00  0.00     0.222 HD
ENDBRANCH  27  29
BRANCH  27  31
HETATM   31  O   UNK N   1      34.008  17.316   9.719  0.00  0.00    -0.307 OA
HETATM   32  H   UNK N   1      34.781  17.856   9.946  0.00  0.00     0.222 HD
ENDBRANCH  27  31
ENDBRANCH  26  27
ENDBRANCH  25  26
ENDBRANCH  22  25
ENDBRANCH  21  22
BRANCH  21  33
HETATM   33  O   UNK N   1      33.483  14.861  11.299  0.00  0.00    -0.385 OA
HETATM   34  H   UNK N   1      32.827  15.000  10.598  0.00  0.00     0.210 HD
ENDBRANCH  21  33
ENDBRANCH   1  21
TORSDOF 19
ENDMDL
MODEL 7
REMARK VINA RESULT:      -5.7      2.006      3.325
REMARK  19 active torsions:
REMARK  status: ('A' for Active; 'I' for Inactive)
REMARK    1  A    between atoms: P_2  and  O_1 
REMARK    2  A    between atoms: P_2  and  O_5 
REMARK    3  A    between atoms: P_2  and  O_4 
REMARK    4  A    between atoms: O_5  and  C_6 
REMARK    5  A    between atoms: C_6  and  C_7 
REMARK    6  A    between atoms: C_10  and  C_7 
REMARK    7  A    between atoms: C_10  and  C_12 
REMARK    8  A    between atoms: C_10  and  O_11 
REMARK       I    between atoms: C_12  and  N_14 
REMARK    9  A    between atoms: N_14  and  C_15 
REMARK   10  A    between atoms: C_15  and  C_16 
REMARK   11  A    between atoms: C_16  and  C_17 
REMARK       I    between atoms: N_19  and  C_17 
REMARK   12  A    between atoms: N_19  and  C_20 
REMARK   13  A    between atoms: C_21  and  C_20 
REMARK   14  A    between atoms: S_22  and  C_21 
REMARK   15  A    between atoms: C_23  and  S_22 
REMARK   16  A    between atoms: C_25  and  C_23 
REMARK   17  A    between atoms: C_26  and  C_25 
REMARK   18  A    between atoms: C_26  and  C_27 
REMARK   19  A    between atoms: C_28  and  C_27 
ROOT
HETATM    1  C   UNK N   1      34.412  15.987   9.557  0.00  0.00     0.247 C 
HETATM    2  O   UNK N   1      34.595  17.148   9.898  0.00  0.00    -0.271 OA
HETATM    3  N   UNK N   1      35.440  15.111   9.669  0.00  0.00    -0.358 N 
HETATM    4  H   UNK N   1      36.313  15.455   9.966  0.00  0.00     0.162 HD
ENDROOT
BRANCH   3   5
HETATM    5  C   UNK N   1      35.323  13.700   9.374  0.00  0.00     0.132 C 
BRANCH   5   6
HETATM    6  C   UNK N   1      36.707  13.089   9.248  0.00  0.00     0.122 C 
BRANCH   6   7
HETATM    7  C   UNK N   1      37.675  13.776  10.168  0.00  0.00     0.219 C 
HETATM    8  O   UNK N   1      38.244  14.781   9.778  0.00  0.00    -0.274 OA
HETATM    9  N   UNK N   1      37.923  13.317  11.419  0.00  0.00    -0.360 N 
HETATM   10  H   UNK N   1      38.526  13.838  11.997  0.00  0.00     0.162 HD
BRANCH   9  11
HETATM   11  C   UNK N   1      37.348  12.101  11.947  0.00  0.00     0.133 C 
BRANCH  11  12
HETATM   12  C   UNK N   1      36.971  12.262  13.418  0.00  0.00     0.102 C 
BRANCH  12  13
HETATM   13  S   UNK N   1      35.607  13.460  13.645  0.00  0.00    -0.091 SA
BRANCH  13  14
HETATM   14  C   UNK N   1      34.791  12.590  14.992  0.00  0.00     0.186 C 
HETATM   15  O   UNK N   1      34.186  13.202  15.859  0.00  0.00    -0.286 OA
BRANCH  14  16
HETATM   16  C   UNK N   1      34.826  11.101  15.025  0.00  0.00     0.091 C 
BRANCH  16  17
HETATM   17  C   UNK N   1      33.772  10.571  14.074  0.00  0.00     0.008 C 
BRANCH  17  18
HETATM   18  C   UNK N   1      34.411   9.794  12.947  0.00  0.00     0.000 C 
BRANCH  18  19
HETATM   19  C   UNK N   1      33.646  10.092  11.676  0.00  0.00    -0.005 C 
HETATM   20  C   UNK N   1      34.569   9.970  10.483  0.00  0.00     0.005 C 
ENDBRANCH  18  19
ENDBRANCH  17  18
ENDBRANCH  16  17
ENDBRANCH  14  16
ENDBRANCH  13  14
ENDBRANCH  12  13
ENDBRANCH  11  12
ENDBRANCH   9  11
ENDBRANCH   6   7
ENDBRANCH   5   6
ENDBRANCH   3   5
BRANCH   1  21
HETATM   21  C   UNK N   1      33.032  15.547   9.094  0.00  0.00     0.219 C 
BRANCH  21  22
HETATM   22  C   UNK N   1      32.368  16.487   8.054  0.00  0.00     0.009 C 
HETATM   23  C   UNK N   1      31.487  15.652   7.133  0.00  0.00     0.020 C 
HETATM   24  C   UNK N   1      33.429  17.169   7.201  0.00  0.00     0.020 C 
BRANCH  22  25
HETATM   25  C   UNK N   1      31.490  17.546   8.734  0.00  0.00     0.192 C 
BRANCH  25  26
HETATM   26  O   UNK N   1      30.216  17.581   8.150  0.00  0.00    -0.296 OA
BRANCH  26  27
HETATM   27  P   UNK N   1      29.092  17.427   9.465  0.00  0.00     0.390 P 
HETATM   28  O   UNK N   1      29.512  18.919   9.569  0.00  0.00    -0.632 OA
BRANCH  27  29
HETATM   29  O   UNK N   1      27.571  18.261   9.391  0.00  0.00    -0.307 OA
HETATM   30  H   UNK N   1      27.162  18.643  10.183  0.00  0.00     0.222 HD
ENDBRANCH  27  29
BRANCH  27  31
HETATM   31  O   UNK N   1      28.297  17.131   7.949  0.00  0.00    -0.307 OA
HETATM   32  H   UNK N   1      27.956  17.839   7.379  0.00  0.00     0.222 HD
ENDBRANCH  27  31
ENDBRANCH  26  27
ENDBRANCH  25  26
ENDBRANCH  22  25
ENDBRANCH  21  22
BRANCH  21  33
HETATM   33  O   UNK N   1      32.209  15.418  10.216  0.00  0.00    -0.385 OA
HETATM   34  H   UNK N   1      31.629  14.692  10.495  0.00  0.00     0.210 HD
ENDBRANCH  21  33
ENDBRANCH   1  21
TORSDOF 19
ENDMDL
MODEL 8
REMARK VINA RESULT:      -5.6      4.280      8.928
REMARK  19 active torsions:
REMARK  status: ('A' for Active; 'I' for Inactive)
REMARK    1  A    between atoms: P_2  and  O_1 
REMARK    2  A    between atoms: P_2  and  O_5 
REMARK    3  A    between atoms: P_2  and  O_4 
REMARK    4  A    between atoms: O_5  and  C_6 
REMARK    5  A    between atoms: C_6  and  C_7 
REMARK    6  A    between atoms: C_10  and  C_7 
REMARK    7  A    between atoms: C_10  and  C_12 
REMARK    8  A    between atoms: C_10  and  O_11 
REMARK       I    between atoms: C_12  and  N_14 
REMARK    9  A    between atoms: N_14  and  C_15 
REMARK   10  A    between atoms: C_15  and  C_16 
REMARK   11  A    between atoms: C_16  and  C_17 
REMARK       I    between atoms: N_19  and  C_17 
REMARK   12  A    between atoms: N_19  and  C_20 
REMARK   13  A    between atoms: C_21  and  C_20 
REMARK   14  A    between atoms: S_22  and  C_21 
REMARK   15  A    between atoms: C_23  and  S_22 
REMARK   16  A    between atoms: C_25  and  C_23 
REMARK   17  A    between atoms: C_26  and  C_25 
REMARK   18  A    between atoms: C_26  and  C_27 
REMARK   19  A    between atoms: C_28  and  C_27 
ROOT
HETATM    1  C   UNK N   1      34.847  15.203   9.962  0.00  0.00     0.247 C 
HETATM    2  O   UNK N   1      34.149  15.372  10.953  0.00  0.00    -0.271 OA
HETATM    3  N   UNK N   1      34.262  15.270   8.742  0.00  0.00    -0.358 N 
HETATM    4  H   UNK N   1      33.287  15.393   8.699  0.00  0.00     0.162 HD
ENDROOT
BRANCH   3   5
HETATM    5  C   UNK N   1      34.994  15.166   7.499  0.00  0.00     0.132 C 
BRANCH   5   6
HETATM    6  C   UNK N   1      34.734  13.812   6.863  0.00  0.00     0.122 C 
BRANCH   6   7
HETATM    7  C   UNK N   1      33.265  13.501   6.867  0.00  0.00     0.219 C 
HETATM    8  O   UNK N   1      32.780  12.964   7.847  0.00  0.00    -0.274 OA
HETATM    9  N   UNK N   1      32.465  13.809   5.816  0.00  0.00    -0.360 N 
HETATM   10  H   UNK N   1      31.500  13.630   5.896  0.00  0.00     0.162 HD
BRANCH   9  11
HETATM   11  C   UNK N   1      32.957  14.386   4.586  0.00  0.00     0.133 C 
BRANCH  11  12
HETATM   12  C   UNK N   1      32.142  15.615   4.189  0.00  0.00     0.102 C 
BRANCH  12  13
HETATM   13  S   UNK N   1      32.543  17.065   5.230  0.00  0.00    -0.091 SA
BRANCH  13  14
HETATM   14  C   UNK N   1      31.303  16.757   6.498  0.00  0.00     0.186 C 
HETATM   15  O   UNK N   1      31.630  16.435   7.630  0.00  0.00    -0.286 OA
BRANCH  14  16
HETATM   16  C   UNK N   1      29.861  16.933   6.165  0.00  0.00     0.091 C 
BRANCH  16  17
HETATM   17  C   UNK N   1      29.261  17.932   7.134  0.00  0.00     0.008 C 
BRANCH  17  18
HETATM   18  C   UNK N   1      28.186  17.283   7.973  0.00  0.00     0.000 C 
BRANCH  18  19
HETATM   19  C   UNK N   1      28.212  17.916   9.347  0.00  0.00    -0.005 C 
HETATM   20  C   UNK N   1      29.582  18.498   9.616  0.00  0.00     0.005 C 
ENDBRANCH  18  19
ENDBRANCH  17  18
ENDBRANCH  16  17
ENDBRANCH  14  16
ENDBRANCH  13  14
ENDBRANCH  12  13
ENDBRANCH  11  12
ENDBRANCH   9  11
ENDBRANCH   6   7
ENDBRANCH   5   6
ENDBRANCH   3   5
BRANCH   1  21
HETATM   21  C   UNK N   1      36.345  15.001  10.123  0.00  0.00     0.219 C 
BRANCH  21  22
HETATM   22  C   UNK N   1      36.757  13.606  10.661  0.00  0.00     0.009 C 
HETATM   23  C   UNK N   1      38.096  13.221  10.045  0.00  0.00     0.020 C 
HETATM   24  C   UNK N   1      35.731  12.557  10.254  0.00  0.00     0.020 C 
BRANCH  22  25
HETATM   25  C   UNK N   1      36.912  13.616  12.188  0.00  0.00     0.192 C 
BRANCH  25  26
HETATM   26  O   UNK N   1      35.699  13.294  12.811  0.00  0.00    -0.296 OA
BRANCH  26  27
HETATM   27  P   UNK N   1      36.008  13.386  14.517  0.00  0.00     0.390 P 
HETATM   28  O   UNK N   1      36.878  12.172  14.094  0.00  0.00    -0.632 OA
BRANCH  27  29
HETATM   29  O   UNK N   1      37.590  13.834  15.076  0.00  0.00    -0.307 OA
HETATM   30  H   UNK N   1      38.347  13.235  14.991  0.00  0.00     0.222 HD
ENDBRANCH  27  29
BRANCH  27  31
HETATM   31  O   UNK N   1      36.561  14.828  13.721  0.00  0.00    -0.307 OA
HETATM   32  H   UNK N   1      35.972  15.558  13.472  0.00  0.00     0.222 HD
ENDBRANCH  27  31
ENDBRANCH  26  27
ENDBRANCH  25  26
ENDBRANCH  22  25
ENDBRANCH  21  22
BRANCH  21  33
HETATM   33  O   UNK N   1      36.839  16.003  10.963  0.00  0.00    -0.385 OA
HETATM   34  H   UNK N   1      37.471  15.959  11.699  0.00  0.00     0.210 HD
ENDBRANCH  21  33
ENDBRANCH   1  21
TORSDOF 19
ENDMDL
MODEL 9
REMARK VINA RESULT:      -5.6      2.017      2.609
REMARK  19 active torsions:
REMARK  status: ('A' for Active; 'I' for Inactive)
REMARK    1  A    between atoms: P_2  and  O_1 
REMARK    2  A    between atoms: P_2  and  O_5 
REMARK    3  A    between atoms: P_2  and  O_4 
REMARK    4  A    between atoms: O_5  and  C_6 
REMARK    5  A    between atoms: C_6  and  C_7 
REMARK    6  A    between atoms: C_10  and  C_7 
REMARK    7  A    between atoms: C_10  and  C_12 
REMARK    8  A    between atoms: C_10  and  O_11 
REMARK       I    between atoms: C_12  and  N_14 
REMARK    9  A    between atoms: N_14  and  C_15 
REMARK   10  A    between atoms: C_15  and  C_16 
REMARK   11  A    between atoms: C_16  and  C_17 
REMARK       I    between atoms: N_19  and  C_17 
REMARK   12  A    between atoms: N_19  and  C_20 
REMARK   13  A    between atoms: C_21  and  C_20 
REMARK   14  A    between atoms: S_22  and  C_21 
REMARK   15  A    between atoms: C_23  and  S_22 
REMARK   16  A    between atoms: C_25  and  C_23 
REMARK   17  A    between atoms: C_26  and  C_25 
REMARK   18  A    between atoms: C_26  and  C_27 
REMARK   19  A    between atoms: C_28  and  C_27 
ROOT
HETATM    1  C   UNK N   1      34.771  16.095   7.796  0.00  0.00     0.247 C 
HETATM    2  O   UNK N   1      35.048  15.387   6.837  0.00  0.00    -0.271 OA
HETATM    3  N   UNK N   1      35.324  15.802   8.997  0.00  0.00    -0.358 N 
HETATM    4  H   UNK N   1      35.882  14.994   9.068  0.00  0.00     0.162 HD
ENDROOT
BRANCH   3   5
HETATM    5  C   UNK N   1      35.136  16.609  10.183  0.00  0.00     0.132 C 
BRANCH   5   6
HETATM    6  C   UNK N   1      35.789  15.929  11.373  0.00  0.00     0.122 C 
BRANCH   6   7
HETATM    7  C   UNK N   1      35.027  14.694  11.760  0.00  0.00     0.219 C 
HETATM    8  O   UNK N   1      34.110  14.322  11.049  0.00  0.00    -0.274 OA
HETATM    9  N   UNK N   1      35.338  13.979  12.869  0.00  0.00    -0.360 N 
HETATM   10  H   UNK N   1      34.839  13.149  13.044  0.00  0.00     0.162 HD
BRANCH   9  11
HETATM   11  C   UNK N   1      36.363  14.374  13.807  0.00  0.00     0.133 C 
BRANCH  11  12
HETATM   12  C   UNK N   1      36.655  13.259  14.808  0.00  0.00     0.102 C 
BRANCH  12  13
HETATM   13  S   UNK N   1      35.296  13.054  16.015  0.00  0.00    -0.091 SA
BRANCH  13  14
HETATM   14  C   UNK N   1      34.609  11.552  15.300  0.00  0.00     0.186 C 
HETATM   15  O   UNK N   1      34.150  11.549  14.168  0.00  0.00    -0.286 OA
BRANCH  14  16
HETATM   16  C   UNK N   1      34.638  10.289  16.090  0.00  0.00     0.091 C 
BRANCH  16  17
HETATM   17  C   UNK N   1      36.078   9.964  16.430  0.00  0.00     0.008 C 
BRANCH  17  18
HETATM   18  C   UNK N   1      36.740   9.219  15.294  0.00  0.00     0.000 C 
BRANCH  18  19
HETATM   19  C   UNK N   1      38.061   9.894  14.995  0.00  0.00    -0.005 C 
HETATM   20  C   UNK N   1      38.964   8.941  14.243  0.00  0.00     0.005 C 
ENDBRANCH  18  19
ENDBRANCH  17  18
ENDBRANCH  16  17
ENDBRANCH  14  16
ENDBRANCH  13  14
ENDBRANCH  12  13
ENDBRANCH  11  12
ENDBRANCH   9  11
ENDBRANCH   6   7
ENDBRANCH   5   6
ENDBRANCH   3   5
BRANCH   1  21
HETATM   21  C   UNK N   1      33.884  17.315   7.599  0.00  0.00     0.219 C 
BRANCH  21  22
HETATM   22  C   UNK N   1      32.365  17.009   7.543  0.00  0.00     0.009 C 
HETATM   23  C   UNK N   1      32.116  15.651   8.188  0.00  0.00     0.020 C 
HETATM   24  C   UNK N   1      31.891  16.937   6.097  0.00  0.00     0.020 C 
BRANCH  22  25
HETATM   25  C   UNK N   1      31.551  18.062   8.305  0.00  0.00     0.192 C 
BRANCH  25  26
HETATM   26  O   UNK N   1      30.521  17.457   9.038  0.00  0.00    -0.296 OA
BRANCH  26  27
HETATM   27  P   UNK N   1      29.136  18.485   8.837  0.00  0.00     0.390 P 
HETATM   28  O   UNK N   1      28.745  17.244   7.989  0.00  0.00    -0.632 OA
BRANCH  27  29
HETATM   29  O   UNK N   1      27.613  18.012   9.526  0.00  0.00    -0.307 OA
HETATM   30  H   UNK N   1      26.868  18.630   9.585  0.00  0.00     0.222 HD
ENDBRANCH  27  29
BRANCH  27  31
HETATM   31  O   UNK N   1      29.323  18.037  10.505  0.00  0.00    -0.307 OA
HETATM   32  H   UNK N   1      29.407  18.684  11.224  0.00  0.00     0.222 HD
ENDBRANCH  27  31
ENDBRANCH  26  27
ENDBRANCH  25  26
ENDBRANCH  22  25
ENDBRANCH  21  22
BRANCH  21  33
HETATM   33  O   UNK N   1      34.284  17.968   6.430  0.00  0.00    -0.385 OA
HETATM   34  H   UNK N   1      33.764  18.306   5.683  0.00  0.00     0.210 HD
ENDBRANCH  21  33
ENDBRANCH   1  21
TORSDOF 19
ENDMDL
