REMARK  21 active torsions:
REMARK  status: ('A' for Active; 'I' for Inactive)
REMARK    1  A    between atoms: P_2  and  O_1 
REMARK    2  A    between atoms: P_2  and  O_5 
REMARK    3  A    between atoms: P_2  and  O_3 
REMARK    4  A    between atoms: O_5  and  C_6 
REMARK    5  A    between atoms: C_6  and  C_7 
REMARK    6  A    between atoms: C_7  and  C_10 
REMARK    7  A    between atoms: C_10  and  C_12 
REMARK    8  A    between atoms: C_10  and  O_11 
REMARK       I    between atoms: C_12  and  N_14 
REMARK    9  A    between atoms: N_14  and  C_15 
REMARK   10  A    between atoms: C_15  and  C_16 
REMARK   11  A    between atoms: C_17  and  C_16 
REMARK       I    between atoms: N_19  and  C_17 
REMARK   12  A    between atoms: C_20  and  N_19 
REMARK   13  A    between atoms: C_21  and  C_20 
REMARK   14  A    between atoms: S_22  and  C_21 
REMARK   15  A    between atoms: C_23  and  S_22 
REMARK   16  A    between atoms: C_25  and  C_23 
REMARK   17  A    between atoms: C_26  and  C_25 
REMARK   18  A    between atoms: C_26  and  C_27 
REMARK   19  A    between atoms: C_28  and  C_27 
REMARK   20  A    between atoms: C_28  and  C_29 
REMARK   21  A    between atoms: C_29  and  C_30 
ROOT
HETATM    1  C   UNK N   1      -4.546  -0.488   0.982  0.00  0.00     0.247 C 
HETATM    2  O   UNK N   1      -5.081   0.092   1.911  0.00  0.00    -0.271 OA
HETATM    3  N   UNK N   1      -3.206  -0.347   0.812  0.00  0.00    -0.358 N 
HETATM    4  H   UNK N   1      -2.722   0.252   1.426  0.00  0.00     0.162 HD
ENDROOT
BRANCH   3   5
HETATM    5  C   UNK N   1      -2.446  -1.023  -0.212  0.00  0.00     0.132 C 
BRANCH   5   6
HETATM    6  C   UNK N   1      -1.722  -0.020  -1.100  0.00  0.00     0.122 C 
BRANCH   6   7
HETATM    7  C   UNK N   1      -0.894   0.953  -0.305  0.00  0.00     0.219 C 
HETATM    8  O   UNK N   1      -1.157   2.142  -0.379  0.00  0.00    -0.274 OA
HETATM    9  N   UNK N   1       0.129   0.552   0.490  0.00  0.00    -0.360 N 
HETATM   10  H   UNK N   1       0.625   1.241   0.988  0.00  0.00     0.162 HD
BRANCH   9  11
HETATM   11  C   UNK N   1       0.535  -0.827   0.652  0.00  0.00     0.133 C 
BRANCH  11  12
HETATM   12  C   UNK N   1       1.171  -1.395  -0.616  0.00  0.00     0.102 C 
BRANCH  12  13
HETATM   13  S   UNK N   1       2.405  -0.276  -1.372  0.00  0.00    -0.091 SA
BRANCH  13  14
HETATM   14  C   UNK N   1       3.461  -0.160   0.081  0.00  0.00     0.186 C 
HETATM   15  O   UNK N   1       3.804  -1.168   0.677  0.00  0.00    -0.286 OA
BRANCH  14  16
HETATM   16  C   UNK N   1       3.911   1.177   0.569  0.00  0.00     0.091 C 
BRANCH  16  17
HETATM   17  C   UNK N   1       4.797   1.846  -0.469  0.00  0.00     0.008 C 
BRANCH  17  18
HETATM   18  C   UNK N   1       6.222   1.966   0.044  0.00  0.00     0.000 C 
BRANCH  18  19
HETATM   19  C   UNK N   1       6.966   0.652  -0.107  0.00  0.00     0.000 C 
BRANCH  19  20
HETATM   20  C   UNK N   1       8.419   0.868   0.261  0.00  0.00    -0.000 C 
BRANCH  20  21
HETATM   21  C   UNK N   1       9.233  -0.350  -0.118  0.00  0.00    -0.005 C 
HETATM   22  C   UNK N   1      10.705  -0.041   0.058  0.00  0.00     0.005 C 
ENDBRANCH  20  21
ENDBRANCH  19  20
ENDBRANCH  18  19
ENDBRANCH  17  18
ENDBRANCH  16  17
ENDBRANCH  14  16
ENDBRANCH  13  14
ENDBRANCH  12  13
ENDBRANCH  11  12
ENDBRANCH   9  11
ENDBRANCH   6   7
ENDBRANCH   5   6
ENDBRANCH   3   5
BRANCH   1  23
HETATM   23  C   UNK N   1      -5.390  -1.365   0.066  0.00  0.00     0.219 C 
BRANCH  23  24
HETATM   24  C   UNK N   1      -6.538  -0.592  -0.634  0.00  0.00     0.009 C 
HETATM   25  C   UNK N   1      -7.264  -1.538  -1.582  0.00  0.00     0.020 C 
HETATM   26  C   UNK N   1      -5.975   0.558  -1.458  0.00  0.00     0.020 C 
BRANCH  24  27
HETATM   27  C   UNK N   1      -7.544  -0.043   0.385  0.00  0.00     0.192 C 
BRANCH  27  28
HETATM   28  O   UNK N   1      -8.629   0.570  -0.257  0.00  0.00    -0.296 OA
BRANCH  28  29
HETATM   29  P   UNK N   1      -9.858   0.719   0.962  0.00  0.00     0.390 P 
HETATM   30  O   UNK N   1      -9.847   2.129   0.312  0.00  0.00    -0.632 OA
BRANCH  29  31
HETATM   31  O   UNK N   1     -11.515   0.952   0.499  0.00  0.00    -0.307 OA
HETATM   32  H   UNK N   1     -11.865   1.819   0.240  0.00  0.00     0.222 HD
ENDBRANCH  29  31
BRANCH  29  33
HETATM   33  O   UNK N   1     -10.353  -0.475  -0.199  0.00  0.00    -0.307 OA
HETATM   34  H   UNK N   1     -11.069  -0.569  -0.846  0.00  0.00     0.222 HD
ENDBRANCH  29  33
ENDBRANCH  28  29
ENDBRANCH  27  28
ENDBRANCH  24  27
ENDBRANCH  23  24
BRANCH  23  35
HETATM   35  O   UNK N   1      -5.917  -2.418   0.820  0.00  0.00    -0.385 OA
HETATM   36  H   UNK N   1      -6.732  -2.466   1.344  0.00  0.00     0.210 HD
ENDBRANCH  23  35
ENDBRANCH   1  23
TORSDOF 21
