MODEL 1
REMARK VINA RESULT:      -5.7      0.000      0.000
REMARK  21 active torsions:
REMARK  status: ('A' for Active; 'I' for Inactive)
REMARK    1  A    between atoms: P_2  and  O_1 
REMARK    2  A    between atoms: P_2  and  O_5 
REMARK    3  A    between atoms: P_2  and  O_3 
REMARK    4  A    between atoms: O_5  and  C_6 
REMARK    5  A    between atoms: C_6  and  C_7 
REMARK    6  A    between atoms: C_7  and  C_10 
REMARK    7  A    between atoms: C_10  and  C_12 
REMARK    8  A    between atoms: C_10  and  O_11 
REMARK       I    between atoms: C_12  and  N_14 
REMARK    9  A    between atoms: N_14  and  C_15 
REMARK   10  A    between atoms: C_15  and  C_16 
REMARK   11  A    between atoms: C_17  and  C_16 
REMARK       I    between atoms: N_19  and  C_17 
REMARK   12  A    between atoms: C_20  and  N_19 
REMARK   13  A    between atoms: C_21  and  C_20 
REMARK   14  A    between atoms: S_22  and  C_21 
REMARK   15  A    between atoms: C_23  and  S_22 
REMARK   16  A    between atoms: C_25  and  C_23 
REMARK   17  A    between atoms: C_26  and  C_25 
REMARK   18  A    between atoms: C_26  and  C_27 
REMARK   19  A    between atoms: C_28  and  C_27 
REMARK   20  A    between atoms: C_28  and  C_29 
REMARK   21  A    between atoms: C_29  and  C_30 
ROOT
HETATM    1  C   UNK N   1      33.289  14.570   8.635  0.00  0.00     0.247 C 
HETATM    2  O   UNK N   1      32.395  13.750   8.752  0.00  0.00    -0.271 OA
HETATM    3  N   UNK N   1      33.572  15.051   7.396  0.00  0.00    -0.358 N 
HETATM    4  H   UNK N   1      33.067  14.688   6.632  0.00  0.00     0.162 HD
ENDROOT
BRANCH   3   5
HETATM    5  C   UNK N   1      34.565  16.064   7.130  0.00  0.00     0.132 C 
BRANCH   5   6
HETATM    6  C   UNK N   1      33.906  17.401   6.822  0.00  0.00     0.122 C 
BRANCH   6   7
HETATM    7  C   UNK N   1      33.893  18.320   8.014  0.00  0.00     0.219 C 
HETATM    8  O   UNK N   1      34.913  18.927   8.295  0.00  0.00    -0.274 OA
HETATM    9  N   UNK N   1      32.789  18.495   8.780  0.00  0.00    -0.360 N 
HETATM   10  H   UNK N   1      32.848  19.117   9.541  0.00  0.00     0.162 HD
BRANCH   9  11
HETATM   11  C   UNK N   1      31.528  17.826   8.547  0.00  0.00     0.133 C 
BRANCH  11  12
HETATM   12  C   UNK N   1      30.346  18.600   9.131  0.00  0.00     0.102 C 
BRANCH  12  13
HETATM   13  S   UNK N   1      28.737  17.770   8.871  0.00  0.00    -0.091 SA
BRANCH  13  14
HETATM   14  C   UNK N   1      28.363  18.582   7.308  0.00  0.00     0.186 C 
HETATM   15  O   UNK N   1      27.862  19.695   7.295  0.00  0.00    -0.286 OA
BRANCH  14  16
HETATM   16  C   UNK N   1      28.656  17.888   6.020  0.00  0.00     0.091 C 
BRANCH  16  17
HETATM   17  C   UNK N   1      28.722  16.385   6.235  0.00  0.00     0.008 C 
BRANCH  17  18
HETATM   18  C   UNK N   1      29.764  15.761   5.322  0.00  0.00     0.000 C 
BRANCH  18  19
HETATM   19  C   UNK N   1      30.822  16.776   4.932  0.00  0.00     0.000 C 
BRANCH  19  20
HETATM   20  C   UNK N   1      31.090  16.657   3.446  0.00  0.00    -0.000 C 
BRANCH  20  21
HETATM   21  C   UNK N   1      32.524  17.037   3.149  0.00  0.00    -0.005 C 
HETATM   22  C   UNK N   1      33.409  15.820   3.318  0.00  0.00     0.005 C 
ENDBRANCH  20  21
ENDBRANCH  19  20
ENDBRANCH  18  19
ENDBRANCH  17  18
ENDBRANCH  16  17
ENDBRANCH  14  16
ENDBRANCH  13  14
ENDBRANCH  12  13
ENDBRANCH  11  12
ENDBRANCH   9  11
ENDBRANCH   6   7
ENDBRANCH   5   6
ENDBRANCH   3   5
BRANCH   1  23
HETATM   23  C   UNK N   1      34.034  15.043   9.876  0.00  0.00     0.219 C 
BRANCH  23  24
HETATM   24  C   UNK N   1      35.263  14.163  10.224  0.00  0.00     0.009 C 
HETATM   25  C   UNK N   1      36.534  14.940   9.902  0.00  0.00     0.020 C 
HETATM   26  C   UNK N   1      35.261  12.896   9.381  0.00  0.00     0.020 C 
BRANCH  24  27
HETATM   27  C   UNK N   1      35.276  13.786  11.710  0.00  0.00     0.192 C 
BRANCH  27  28
HETATM   28  O   UNK N   1      35.986  12.596  11.922  0.00  0.00    -0.296 OA
BRANCH  28  29
HETATM   29  P   UNK N   1      35.686  12.172  13.581  0.00  0.00     0.390 P 
HETATM   30  O   UNK N   1      36.713  13.330  13.703  0.00  0.00    -0.632 OA
BRANCH  29  31
HETATM   31  O   UNK N   1      34.886  13.299  14.632  0.00  0.00    -0.307 OA
HETATM   32  H   UNK N   1      34.007  13.127  15.005  0.00  0.00     0.222 HD
ENDBRANCH  29  31
BRANCH  29  33
HETATM   33  O   UNK N   1      34.211  12.749  12.867  0.00  0.00    -0.307 OA
HETATM   34  H   UNK N   1      33.649  12.497  12.118  0.00  0.00     0.222 HD
ENDBRANCH  29  33
ENDBRANCH  28  29
ENDBRANCH  27  28
ENDBRANCH  24  27
ENDBRANCH  23  24
BRANCH  23  35
HETATM   35  O   UNK N   1      33.142  15.060  10.952  0.00  0.00    -0.385 OA
HETATM   36  H   UNK N   1      32.367  15.621  11.114  0.00  0.00     0.210 HD
ENDBRANCH  23  35
ENDBRANCH   1  23
TORSDOF 21
ENDMDL
MODEL 2
REMARK VINA RESULT:      -5.7      4.029      9.013
REMARK  21 active torsions:
REMARK  status: ('A' for Active; 'I' for Inactive)
REMARK    1  A    between atoms: P_2  and  O_1 
REMARK    2  A    between atoms: P_2  and  O_5 
REMARK    3  A    between atoms: P_2  and  O_3 
REMARK    4  A    between atoms: O_5  and  C_6 
REMARK    5  A    between atoms: C_6  and  C_7 
REMARK    6  A    between atoms: C_7  and  C_10 
REMARK    7  A    between atoms: C_10  and  C_12 
REMARK    8  A    between atoms: C_10  and  O_11 
REMARK       I    between atoms: C_12  and  N_14 
REMARK    9  A    between atoms: N_14  and  C_15 
REMARK   10  A    between atoms: C_15  and  C_16 
REMARK   11  A    between atoms: C_17  and  C_16 
REMARK       I    between atoms: N_19  and  C_17 
REMARK   12  A    between atoms: C_20  and  N_19 
REMARK   13  A    between atoms: C_21  and  C_20 
REMARK   14  A    between atoms: S_22  and  C_21 
REMARK   15  A    between atoms: C_23  and  S_22 
REMARK   16  A    between atoms: C_25  and  C_23 
REMARK   17  A    between atoms: C_26  and  C_25 
REMARK   18  A    between atoms: C_26  and  C_27 
REMARK   19  A    between atoms: C_28  and  C_27 
REMARK   20  A    between atoms: C_28  and  C_29 
REMARK   21  A    between atoms: C_29  and  C_30 
ROOT
HETATM    1  C   UNK N   1      32.685  14.515   7.987  0.00  0.00     0.247 C 
HETATM    2  O   UNK N   1      31.993  13.802   7.280  0.00  0.00    -0.271 OA
HETATM    3  N   UNK N   1      32.848  14.176   9.292  0.00  0.00    -0.358 N 
HETATM    4  H   UNK N   1      32.367  13.384   9.628  0.00  0.00     0.162 HD
ENDROOT
BRANCH   3   5
HETATM    5  C   UNK N   1      33.684  14.902  10.217  0.00  0.00     0.132 C 
BRANCH   5   6
HETATM    6  C   UNK N   1      35.152  14.561  10.002  0.00  0.00     0.122 C 
BRANCH   6   7
HETATM    7  C   UNK N   1      36.007  14.948  11.179  0.00  0.00     0.219 C 
HETATM    8  O   UNK N   1      35.706  15.942  11.818  0.00  0.00    -0.274 OA
HETATM    9  N   UNK N   1      37.094  14.229  11.551  0.00  0.00    -0.360 N 
HETATM   10  H   UNK N   1      37.604  14.534  12.335  0.00  0.00     0.162 HD
BRANCH   9  11
HETATM   11  C   UNK N   1      37.550  13.038  10.867  0.00  0.00     0.133 C 
BRANCH  11  12
HETATM   12  C   UNK N   1      37.194  11.762  11.629  0.00  0.00     0.102 C 
BRANCH  12  13
HETATM   13  S   UNK N   1      35.629  10.997  11.071  0.00  0.00    -0.091 SA
BRANCH  13  14
HETATM   14  C   UNK N   1      34.694  11.390  12.558  0.00  0.00     0.186 C 
HETATM   15  O   UNK N   1      34.602  12.544  12.943  0.00  0.00    -0.286 OA
BRANCH  14  16
HETATM   16  C   UNK N   1      34.035  10.297  13.333  0.00  0.00     0.091 C 
BRANCH  16  17
HETATM   17  C   UNK N   1      33.598  10.808  14.696  0.00  0.00     0.008 C 
BRANCH  17  18
HETATM   18  C   UNK N   1      34.540  10.309  15.779  0.00  0.00     0.000 C 
BRANCH  18  19
HETATM   19  C   UNK N   1      35.528  11.390  16.180  0.00  0.00     0.000 C 
BRANCH  19  20
HETATM   20  C   UNK N   1      34.776  12.689  16.381  0.00  0.00    -0.000 C 
BRANCH  20  21
HETATM   21  C   UNK N   1      35.649  13.680  17.120  0.00  0.00    -0.005 C 
HETATM   22  C   UNK N   1      35.116  13.863  18.525  0.00  0.00     0.005 C 
ENDBRANCH  20  21
ENDBRANCH  19  20
ENDBRANCH  18  19
ENDBRANCH  17  18
ENDBRANCH  16  17
ENDBRANCH  14  16
ENDBRANCH  13  14
ENDBRANCH  12  13
ENDBRANCH  11  12
ENDBRANCH   9  11
ENDBRANCH   6   7
ENDBRANCH   5   6
ENDBRANCH   3   5
BRANCH   1  23
HETATM   23  C   UNK N   1      33.358  15.739   7.379  0.00  0.00     0.219 C 
BRANCH  23  24
HETATM   24  C   UNK N   1      32.455  17.000   7.384  0.00  0.00     0.009 C 
HETATM   25  C   UNK N   1      32.033  17.310   5.953  0.00  0.00     0.020 C 
HETATM   26  C   UNK N   1      33.226  18.200   7.917  0.00  0.00     0.020 C 
BRANCH  24  27
HETATM   27  C   UNK N   1      31.198  16.783   8.235  0.00  0.00     0.192 C 
BRANCH  27  28
HETATM   28  O   UNK N   1      30.663  18.006   8.665  0.00  0.00    -0.296 OA
BRANCH  28  29
HETATM   29  P   UNK N   1      29.079  17.626   9.268  0.00  0.00     0.390 P 
HETATM   30  O   UNK N   1      29.519  18.804  10.178  0.00  0.00    -0.632 OA
BRANCH  29  31
HETATM   31  O   UNK N   1      27.785  18.769   9.086  0.00  0.00    -0.307 OA
HETATM   32  H   UNK N   1      26.857  18.533   9.246  0.00  0.00     0.222 HD
ENDBRANCH  29  31
BRANCH  29  33
HETATM   33  O   UNK N   1      28.946  18.157   7.619  0.00  0.00    -0.307 OA
HETATM   34  H   UNK N   1      29.004  19.003   7.148  0.00  0.00     0.222 HD
ENDBRANCH  29  33
ENDBRANCH  28  29
ENDBRANCH  27  28
ENDBRANCH  24  27
ENDBRANCH  23  24
BRANCH  23  35
HETATM   35  O   UNK N   1      33.739  15.432   6.069  0.00  0.00    -0.385 OA
HETATM   36  H   UNK N   1      33.245  14.987   5.361  0.00  0.00     0.210 HD
ENDBRANCH  23  35
ENDBRANCH   1  23
TORSDOF 21
ENDMDL
MODEL 3
REMARK VINA RESULT:      -5.7      4.248      9.019
REMARK  21 active torsions:
REMARK  status: ('A' for Active; 'I' for Inactive)
REMARK    1  A    between atoms: P_2  and  O_1 
REMARK    2  A    between atoms: P_2  and  O_5 
REMARK    3  A    between atoms: P_2  and  O_3 
REMARK    4  A    between atoms: O_5  and  C_6 
REMARK    5  A    between atoms: C_6  and  C_7 
REMARK    6  A    between atoms: C_7  and  C_10 
REMARK    7  A    between atoms: C_10  and  C_12 
REMARK    8  A    between atoms: C_10  and  O_11 
REMARK       I    between atoms: C_12  and  N_14 
REMARK    9  A    between atoms: N_14  and  C_15 
REMARK   10  A    between atoms: C_15  and  C_16 
REMARK   11  A    between atoms: C_17  and  C_16 
REMARK       I    between atoms: N_19  and  C_17 
REMARK   12  A    between atoms: C_20  and  N_19 
REMARK   13  A    between atoms: C_21  and  C_20 
REMARK   14  A    between atoms: S_22  and  C_21 
REMARK   15  A    between atoms: C_23  and  S_22 
REMARK   16  A    between atoms: C_25  and  C_23 
REMARK   17  A    between atoms: C_26  and  C_25 
REMARK   18  A    between atoms: C_26  and  C_27 
REMARK   19  A    between atoms: C_28  and  C_27 
REMARK   20  A    between atoms: C_28  and  C_29 
REMARK   21  A    between atoms: C_29  and  C_30 
ROOT
HETATM    1  C   UNK N   1      34.176  17.158   7.582  0.00  0.00     0.247 C 
HETATM    2  O   UNK N   1      34.557  18.121   6.939  0.00  0.00    -0.271 OA
HETATM    3  N   UNK N   1      35.090  16.228   7.963  0.00  0.00    -0.358 N 
HETATM    4  H   UNK N   1      36.023  16.349   7.671  0.00  0.00     0.162 HD
ENDROOT
BRANCH   3   5
HETATM    5  C   UNK N   1      34.779  15.074   8.771  0.00  0.00     0.132 C 
BRANCH   5   6
HETATM    6  C   UNK N   1      35.946  14.722   9.685  0.00  0.00     0.122 C 
BRANCH   6   7
HETATM    7  C   UNK N   1      36.121  15.721  10.797  0.00  0.00     0.219 C 
HETATM    8  O   UNK N   1      36.119  16.909  10.522  0.00  0.00    -0.274 OA
HETATM    9  N   UNK N   1      36.278  15.343  12.090  0.00  0.00    -0.360 N 
HETATM   10  H   UNK N   1      36.380  16.049  12.768  0.00  0.00     0.162 HD
BRANCH   9  11
HETATM   11  C   UNK N   1      36.302  13.967  12.534  0.00  0.00     0.133 C 
BRANCH  11  12
HETATM   12  C   UNK N   1      35.748  13.806  13.949  0.00  0.00     0.102 C 
BRANCH  12  13
HETATM   13  S   UNK N   1      36.886  12.925  15.077  0.00  0.00    -0.091 SA
BRANCH  13  14
HETATM   14  C   UNK N   1      35.604  12.028  15.967  0.00  0.00     0.186 C 
HETATM   15  O   UNK N   1      35.857  11.478  17.026  0.00  0.00    -0.286 OA
BRANCH  14  16
HETATM   16  C   UNK N   1      34.225  11.945  15.402  0.00  0.00     0.091 C 
BRANCH  16  17
HETATM   17  C   UNK N   1      33.943  10.538  14.902  0.00  0.00     0.008 C 
BRANCH  17  18
HETATM   18  C   UNK N   1      33.806  10.526  13.389  0.00  0.00     0.000 C 
BRANCH  18  19
HETATM   19  C   UNK N   1      34.960   9.780  12.745  0.00  0.00     0.000 C 
BRANCH  19  20
HETATM   20  C   UNK N   1      35.530   8.801  13.750  0.00  0.00    -0.000 C 
BRANCH  20  21
HETATM   21  C   UNK N   1      36.972   8.494  13.409  0.00  0.00    -0.005 C 
HETATM   22  C   UNK N   1      37.711   9.790  13.152  0.00  0.00     0.005 C 
ENDBRANCH  20  21
ENDBRANCH  19  20
ENDBRANCH  18  19
ENDBRANCH  17  18
ENDBRANCH  16  17
ENDBRANCH  14  16
ENDBRANCH  13  14
ENDBRANCH  12  13
ENDBRANCH  11  12
ENDBRANCH   9  11
ENDBRANCH   6   7
ENDBRANCH   5   6
ENDBRANCH   3   5
BRANCH   1  23
HETATM   23  C   UNK N   1      32.704  17.045   7.954  0.00  0.00     0.219 C 
BRANCH  23  24
HETATM   24  C   UNK N   1      31.815  16.539   6.788  0.00  0.00     0.009 C 
HETATM   25  C   UNK N   1      31.606  15.038   6.942  0.00  0.00     0.020 C 
HETATM   26  C   UNK N   1      32.505  16.783   5.453  0.00  0.00     0.020 C 
BRANCH  24  27
HETATM   27  C   UNK N   1      30.446  17.232   6.788  0.00  0.00     0.192 C 
BRANCH  27  28
HETATM   28  O   UNK N   1      29.755  16.983   7.982  0.00  0.00    -0.296 OA
BRANCH  28  29
HETATM   29  P   UNK N   1      28.528  18.211   8.065  0.00  0.00     0.390 P 
HETATM   30  O   UNK N   1      27.700  16.910   7.883  0.00  0.00    -0.632 OA
BRANCH  29  31
HETATM   31  O   UNK N   1      27.431  18.252   9.410  0.00  0.00    -0.307 OA
HETATM   32  H   UNK N   1      27.505  17.640  10.159  0.00  0.00     0.222 HD
ENDBRANCH  29  31
BRANCH  29  33
HETATM   33  O   UNK N   1      29.391  18.169   9.572  0.00  0.00    -0.307 OA
HETATM   34  H   UNK N   1      29.618  17.495  10.231  0.00  0.00     0.222 HD
ENDBRANCH  29  33
ENDBRANCH  28  29
ENDBRANCH  27  28
ENDBRANCH  24  27
ENDBRANCH  23  24
BRANCH  23  35
HETATM   35  O   UNK N   1      32.256  18.298   8.383  0.00  0.00    -0.385 OA
HETATM   36  H   UNK N   1      31.829  18.559   9.214  0.00  0.00     0.210 HD
ENDBRANCH  23  35
ENDBRANCH   1  23
TORSDOF 21
ENDMDL
MODEL 4
REMARK VINA RESULT:      -5.6      5.132     10.351
REMARK  21 active torsions:
REMARK  status: ('A' for Active; 'I' for Inactive)
REMARK    1  A    between atoms: P_2  and  O_1 
REMARK    2  A    between atoms: P_2  and  O_5 
REMARK    3  A    between atoms: P_2  and  O_3 
REMARK    4  A    between atoms: O_5  and  C_6 
REMARK    5  A    between atoms: C_6  and  C_7 
REMARK    6  A    between atoms: C_7  and  C_10 
REMARK    7  A    between atoms: C_10  and  C_12 
REMARK    8  A    between atoms: C_10  and  O_11 
REMARK       I    between atoms: C_12  and  N_14 
REMARK    9  A    between atoms: N_14  and  C_15 
REMARK   10  A    between atoms: C_15  and  C_16 
REMARK   11  A    between atoms: C_17  and  C_16 
REMARK       I    between atoms: N_19  and  C_17 
REMARK   12  A    between atoms: C_20  and  N_19 
REMARK   13  A    between atoms: C_21  and  C_20 
REMARK   14  A    between atoms: S_22  and  C_21 
REMARK   15  A    between atoms: C_23  and  S_22 
REMARK   16  A    between atoms: C_25  and  C_23 
REMARK   17  A    between atoms: C_26  and  C_25 
REMARK   18  A    between atoms: C_26  and  C_27 
REMARK   19  A    between atoms: C_28  and  C_27 
REMARK   20  A    between atoms: C_28  and  C_29 
REMARK   21  A    between atoms: C_29  and  C_30 
ROOT
HETATM    1  C   UNK N   1      34.098  17.145   7.602  0.00  0.00     0.247 C 
HETATM    2  O   UNK N   1      34.558  18.133   7.057  0.00  0.00    -0.271 OA
HETATM    3  N   UNK N   1      34.945  16.146   7.961  0.00  0.00    -0.358 N 
HETATM    4  H   UNK N   1      35.898  16.241   7.731  0.00  0.00     0.162 HD
ENDROOT
BRANCH   3   5
HETATM    5  C   UNK N   1      34.535  14.952   8.662  0.00  0.00     0.132 C 
BRANCH   5   6
HETATM    6  C   UNK N   1      34.654  15.141  10.168  0.00  0.00     0.122 C 
BRANCH   6   7
HETATM    7  C   UNK N   1      36.017  15.629  10.577  0.00  0.00     0.219 C 
HETATM    8  O   UNK N   1      36.233  16.830  10.574  0.00  0.00    -0.274 OA
HETATM    9  N   UNK N   1      37.008  14.782  10.950  0.00  0.00    -0.360 N 
HETATM   10  H   UNK N   1      37.874  15.169  11.212  0.00  0.00     0.162 HD
BRANCH   9  11
HETATM   11  C   UNK N   1      36.870  13.342  10.987  0.00  0.00     0.133 C 
BRANCH  11  12
HETATM   12  C   UNK N   1      37.016  12.784  12.402  0.00  0.00     0.102 C 
BRANCH  12  13
HETATM   13  S   UNK N   1      35.502  11.963  13.017  0.00  0.00    -0.091 SA
BRANCH  13  14
HETATM   14  C   UNK N   1      35.976  11.982  14.753  0.00  0.00     0.186 C 
HETATM   15  O   UNK N   1      37.091  12.349  15.085  0.00  0.00    -0.286 OA
BRANCH  14  16
HETATM   16  C   UNK N   1      35.004  11.536  15.795  0.00  0.00     0.091 C 
BRANCH  16  17
HETATM   17  C   UNK N   1      35.351  12.155  17.139  0.00  0.00     0.008 C 
BRANCH  17  18
HETATM   18  C   UNK N   1      35.602  11.073  18.176  0.00  0.00     0.000 C 
BRANCH  18  19
HETATM   19  C   UNK N   1      35.283  11.575  19.572  0.00  0.00     0.000 C 
BRANCH  19  20
HETATM   20  C   UNK N   1      35.282  10.399  20.526  0.00  0.00    -0.000 C 
BRANCH  20  21
HETATM   21  C   UNK N   1      33.958  10.327  21.255  0.00  0.00    -0.005 C 
HETATM   22  C   UNK N   1      33.142   9.180  20.696  0.00  0.00     0.005 C 
ENDBRANCH  20  21
ENDBRANCH  19  20
ENDBRANCH  18  19
ENDBRANCH  17  18
ENDBRANCH  16  17
ENDBRANCH  14  16
ENDBRANCH  13  14
ENDBRANCH  12  13
ENDBRANCH  11  12
ENDBRANCH   9  11
ENDBRANCH   6   7
ENDBRANCH   5   6
ENDBRANCH   3   5
BRANCH   1  23
HETATM   23  C   UNK N   1      32.602  17.078   7.883  0.00  0.00     0.219 C 
BRANCH  23  24
HETATM   24  C   UNK N   1      31.765  16.664   6.645  0.00  0.00     0.009 C 
HETATM   25  C   UNK N   1      31.656  15.145   6.607  0.00  0.00     0.020 C 
HETATM   26  C   UNK N   1      32.454  17.118   5.366  0.00  0.00     0.020 C 
BRANCH  24  27
HETATM   27  C   UNK N   1      30.353  17.261   6.702  0.00  0.00     0.192 C 
BRANCH  27  28
HETATM   28  O   UNK N   1      29.780  17.082   7.968  0.00  0.00    -0.296 OA
BRANCH  28  29
HETATM   29  P   UNK N   1      28.524  18.277   8.076  0.00  0.00     0.390 P 
HETATM   30  O   UNK N   1      27.728  16.962   7.855  0.00  0.00    -0.632 OA
BRANCH  29  31
HETATM   31  O   UNK N   1      27.419  18.256   9.415  0.00  0.00    -0.307 OA
HETATM   32  H   UNK N   1      26.946  19.050   9.711  0.00  0.00     0.222 HD
ENDBRANCH  29  31
BRANCH  29  33
HETATM   33  O   UNK N   1      29.379  18.216   9.587  0.00  0.00    -0.307 OA
HETATM   34  H   UNK N   1      30.292  18.052   9.869  0.00  0.00     0.222 HD
ENDBRANCH  29  33
ENDBRANCH  28  29
ENDBRANCH  27  28
ENDBRANCH  24  27
ENDBRANCH  23  24
BRANCH  23  35
HETATM   35  O   UNK N   1      32.180  18.328   8.347  0.00  0.00    -0.385 OA
HETATM   36  H   UNK N   1      32.662  19.167   8.410  0.00  0.00     0.210 HD
ENDBRANCH  23  35
ENDBRANCH   1  23
TORSDOF 21
ENDMDL
MODEL 5
REMARK VINA RESULT:      -5.5      4.405     10.262
REMARK  21 active torsions:
REMARK  status: ('A' for Active; 'I' for Inactive)
REMARK    1  A    between atoms: P_2  and  O_1 
REMARK    2  A    between atoms: P_2  and  O_5 
REMARK    3  A    between atoms: P_2  and  O_3 
REMARK    4  A    between atoms: O_5  and  C_6 
REMARK    5  A    between atoms: C_6  and  C_7 
REMARK    6  A    between atoms: C_7  and  C_10 
REMARK    7  A    between atoms: C_10  and  C_12 
REMARK    8  A    between atoms: C_10  and  O_11 
REMARK       I    between atoms: C_12  and  N_14 
REMARK    9  A    between atoms: N_14  and  C_15 
REMARK   10  A    between atoms: C_15  and  C_16 
REMARK   11  A    between atoms: C_17  and  C_16 
REMARK       I    between atoms: N_19  and  C_17 
REMARK   12  A    between atoms: C_20  and  N_19 
REMARK   13  A    between atoms: C_21  and  C_20 
REMARK   14  A    between atoms: S_22  and  C_21 
REMARK   15  A    between atoms: C_23  and  S_22 
REMARK   16  A    between atoms: C_25  and  C_23 
REMARK   17  A    between atoms: C_26  and  C_25 
REMARK   18  A    between atoms: C_26  and  C_27 
REMARK   19  A    between atoms: C_28  and  C_27 
REMARK   20  A    between atoms: C_28  and  C_29 
REMARK   21  A    between atoms: C_29  and  C_30 
ROOT
HETATM    1  C   UNK N   1      29.869  18.064   9.111  0.00  0.00     0.247 C 
HETATM    2  O   UNK N   1      29.655  19.189   9.527  0.00  0.00    -0.271 OA
HETATM    3  N   UNK N   1      31.135  17.576   9.176  0.00  0.00    -0.358 N 
HETATM    4  H   UNK N   1      31.842  18.167   9.522  0.00  0.00     0.162 HD
ENDROOT
BRANCH   3   5
HETATM    5  C   UNK N   1      31.508  16.242   8.769  0.00  0.00     0.132 C 
BRANCH   5   6
HETATM    6  C   UNK N   1      32.903  16.233   8.158  0.00  0.00     0.122 C 
BRANCH   6   7
HETATM    7  C   UNK N   1      33.740  17.391   8.629  0.00  0.00     0.219 C 
HETATM    8  O   UNK N   1      33.647  18.457   8.043  0.00  0.00    -0.274 OA
HETATM    9  N   UNK N   1      34.590  17.290   9.682  0.00  0.00    -0.360 N 
HETATM   10  H   UNK N   1      35.102  18.089   9.941  0.00  0.00     0.162 HD
BRANCH   9  11
HETATM   11  C   UNK N   1      34.787  16.079  10.448  0.00  0.00     0.133 C 
BRANCH  11  12
HETATM   12  C   UNK N   1      36.263  15.818  10.748  0.00  0.00     0.102 C 
BRANCH  12  13
HETATM   13  S   UNK N   1      36.740  14.061  10.570  0.00  0.00    -0.091 SA
BRANCH  13  14
HETATM   14  C   UNK N   1      35.776  13.468  11.970  0.00  0.00     0.186 C 
HETATM   15  O   UNK N   1      34.966  12.567  11.824  0.00  0.00    -0.286 OA
BRANCH  14  16
HETATM   16  C   UNK N   1      35.958  14.088  13.315  0.00  0.00     0.091 C 
BRANCH  16  17
HETATM   17  C   UNK N   1      36.475  13.057  14.305  0.00  0.00     0.008 C 
BRANCH  17  18
HETATM   18  C   UNK N   1      36.371  13.584  15.726  0.00  0.00     0.000 C 
BRANCH  18  19
HETATM   19  C   UNK N   1      35.104  13.089  16.398  0.00  0.00     0.000 C 
BRANCH  19  20
HETATM   20  C   UNK N   1      35.164  13.437  17.871  0.00  0.00    -0.000 C 
BRANCH  20  21
HETATM   21  C   UNK N   1      35.360  12.180  18.690  0.00  0.00    -0.005 C 
HETATM   22  C   UNK N   1      34.921  12.440  20.116  0.00  0.00     0.005 C 
ENDBRANCH  20  21
ENDBRANCH  19  20
ENDBRANCH  18  19
ENDBRANCH  17  18
ENDBRANCH  16  17
ENDBRANCH  14  16
ENDBRANCH  13  14
ENDBRANCH  12  13
ENDBRANCH  11  12
ENDBRANCH   9  11
ENDBRANCH   6   7
ENDBRANCH   5   6
ENDBRANCH   3   5
BRANCH   1  23
HETATM   23  C   UNK N   1      28.712  17.240   8.561  0.00  0.00     0.219 C 
BRANCH  23  24
HETATM   24  C   UNK N   1      28.410  17.530   7.068  0.00  0.00     0.009 C 
HETATM   25  C   UNK N   1      27.491  16.441   6.529  0.00  0.00     0.020 C 
HETATM   26  C   UNK N   1      29.696  17.504   6.254  0.00  0.00     0.020 C 
BRANCH  24  27
HETATM   27  C   UNK N   1      27.724  18.890   6.891  0.00  0.00     0.192 C 
BRANCH  27  28
HETATM   28  O   UNK N   1      28.104  19.495   5.684  0.00  0.00    -0.296 OA
BRANCH  28  29
HETATM   29  P   UNK N   1      26.621  19.769   4.822  0.00  0.00     0.390 P 
HETATM   30  O   UNK N   1      27.068  21.206   5.201  0.00  0.00    -0.632 OA
BRANCH  29  31
HETATM   31  O   UNK N   1      26.647  20.589   3.292  0.00  0.00    -0.307 OA
HETATM   32  H   UNK N   1      27.406  20.543   2.690  0.00  0.00     0.222 HD
ENDBRANCH  29  31
BRANCH  29  33
HETATM   33  O   UNK N   1      27.777  19.043   3.746  0.00  0.00    -0.307 OA
HETATM   34  H   UNK N   1      28.131  18.154   3.594  0.00  0.00     0.222 HD
ENDBRANCH  29  33
ENDBRANCH  28  29
ENDBRANCH  27  28
ENDBRANCH  24  27
ENDBRANCH  23  24
BRANCH  23  35
HETATM   35  O   UNK N   1      27.575  17.498   9.334  0.00  0.00    -0.385 OA
HETATM   36  H   UNK N   1      27.329  18.288   9.841  0.00  0.00     0.210 HD
ENDBRANCH  23  35
ENDBRANCH   1  23
TORSDOF 21
ENDMDL
MODEL 6
REMARK VINA RESULT:      -5.5      4.570      9.357
REMARK  21 active torsions:
REMARK  status: ('A' for Active; 'I' for Inactive)
REMARK    1  A    between atoms: P_2  and  O_1 
REMARK    2  A    between atoms: P_2  and  O_5 
REMARK    3  A    between atoms: P_2  and  O_3 
REMARK    4  A    between atoms: O_5  and  C_6 
REMARK    5  A    between atoms: C_6  and  C_7 
REMARK    6  A    between atoms: C_7  and  C_10 
REMARK    7  A    between atoms: C_10  and  C_12 
REMARK    8  A    between atoms: C_10  and  O_11 
REMARK       I    between atoms: C_12  and  N_14 
REMARK    9  A    between atoms: N_14  and  C_15 
REMARK   10  A    between atoms: C_15  and  C_16 
REMARK   11  A    between atoms: C_17  and  C_16 
REMARK       I    between atoms: N_19  and  C_17 
REMARK   12  A    between atoms: C_20  and  N_19 
REMARK   13  A    between atoms: C_21  and  C_20 
REMARK   14  A    between atoms: S_22  and  C_21 
REMARK   15  A    between atoms: C_23  and  S_22 
REMARK   16  A    between atoms: C_25  and  C_23 
REMARK   17  A    between atoms: C_26  and  C_25 
REMARK   18  A    between atoms: C_26  and  C_27 
REMARK   19  A    between atoms: C_28  and  C_27 
REMARK   20  A    between atoms: C_28  and  C_29 
REMARK   21  A    between atoms: C_29  and  C_30 
ROOT
HETATM    1  C   UNK N   1      34.051  17.170   7.622  0.00  0.00     0.247 C 
HETATM    2  O   UNK N   1      34.456  18.008   6.835  0.00  0.00    -0.271 OA
HETATM    3  N   UNK N   1      34.644  17.082   8.841  0.00  0.00    -0.358 N 
HETATM    4  H   UNK N   1      35.408  17.675   9.028  0.00  0.00     0.162 HD
ENDROOT
BRANCH   3   5
HETATM    5  C   UNK N   1      34.223  16.174   9.880  0.00  0.00     0.132 C 
BRANCH   5   6
HETATM    6  C   UNK N   1      35.103  14.931   9.904  0.00  0.00     0.122 C 
BRANCH   6   7
HETATM    7  C   UNK N   1      36.504  15.233  10.363  0.00  0.00     0.219 C 
HETATM    8  O   UNK N   1      36.742  16.334  10.831  0.00  0.00    -0.274 OA
HETATM    9  N   UNK N   1      37.506  14.322  10.276  0.00  0.00    -0.360 N 
HETATM   10  H   UNK N   1      38.397  14.583  10.602  0.00  0.00     0.162 HD
BRANCH   9  11
HETATM   11  C   UNK N   1      37.343  12.990   9.736  0.00  0.00     0.133 C 
BRANCH  11  12
HETATM   12  C   UNK N   1      38.376  12.011  10.294  0.00  0.00     0.102 C 
BRANCH  12  13
HETATM   13  S   UNK N   1      37.642  10.442  10.884  0.00  0.00    -0.091 SA
BRANCH  13  14
HETATM   14  C   UNK N   1      36.714  11.174  12.241  0.00  0.00     0.186 C 
HETATM   15  O   UNK N   1      37.287  11.818  13.105  0.00  0.00    -0.286 OA
BRANCH  14  16
HETATM   16  C   UNK N   1      35.235  10.983  12.320  0.00  0.00     0.091 C 
BRANCH  16  17
HETATM   17  C   UNK N   1      34.885  10.044  13.462  0.00  0.00     0.008 C 
BRANCH  17  18
HETATM   18  C   UNK N   1      33.885  10.696  14.401  0.00  0.00     0.000 C 
BRANCH  18  19
HETATM   19  C   UNK N   1      34.293  10.501  15.850  0.00  0.00     0.000 C 
BRANCH  19  20
HETATM   20  C   UNK N   1      35.582  11.255  16.100  0.00  0.00    -0.000 C 
BRANCH  20  21
HETATM   21  C   UNK N   1      35.314  12.744  16.113  0.00  0.00    -0.005 C 
HETATM   22  C   UNK N   1      35.002  13.182  17.529  0.00  0.00     0.005 C 
ENDBRANCH  20  21
ENDBRANCH  19  20
ENDBRANCH  18  19
ENDBRANCH  17  18
ENDBRANCH  16  17
ENDBRANCH  14  16
ENDBRANCH  13  14
ENDBRANCH  12  13
ENDBRANCH  11  12
ENDBRANCH   9  11
ENDBRANCH   6   7
ENDBRANCH   5   6
ENDBRANCH   3   5
BRANCH   1  23
HETATM   23  C   UNK N   1      32.884  16.276   7.224  0.00  0.00     0.219 C 
BRANCH  23  24
HETATM   24  C   UNK N   1      33.306  15.085   6.324  0.00  0.00     0.009 C 
HETATM   25  C   UNK N   1      32.852  13.786   6.979  0.00  0.00     0.020 C 
HETATM   26  C   UNK N   1      34.821  15.037   6.187  0.00  0.00     0.020 C 
BRANCH  24  27
HETATM   27  C   UNK N   1      32.671  15.185   4.931  0.00  0.00     0.192 C 
BRANCH  27  28
HETATM   28  O   UNK N   1      33.467  15.952   4.069  0.00  0.00    -0.296 OA
BRANCH  28  29
HETATM   29  P   UNK N   1      32.347  16.833   3.076  0.00  0.00     0.390 P 
HETATM   30  O   UNK N   1      31.424  15.842   3.835  0.00  0.00    -0.632 OA
BRANCH  29  31
HETATM   31  O   UNK N   1      31.169  17.876   3.812  0.00  0.00    -0.307 OA
HETATM   32  H   UNK N   1      31.237  18.843   3.775  0.00  0.00     0.222 HD
ENDBRANCH  29  31
BRANCH  29  33
HETATM   33  O   UNK N   1      33.100  17.931   4.192  0.00  0.00    -0.307 OA
HETATM   34  H   UNK N   1      33.978  18.034   4.589  0.00  0.00     0.222 HD
ENDBRANCH  29  33
ENDBRANCH  28  29
ENDBRANCH  27  28
ENDBRANCH  24  27
ENDBRANCH  23  24
BRANCH  23  35
HETATM   35  O   UNK N   1      31.931  17.056   6.562  0.00  0.00    -0.385 OA
HETATM   36  H   UNK N   1      31.201  16.793   5.980  0.00  0.00     0.210 HD
ENDBRANCH  23  35
ENDBRANCH   1  23
TORSDOF 21
ENDMDL
MODEL 7
REMARK VINA RESULT:      -5.5      4.219      8.525
REMARK  21 active torsions:
REMARK  status: ('A' for Active; 'I' for Inactive)
REMARK    1  A    between atoms: P_2  and  O_1 
REMARK    2  A    between atoms: P_2  and  O_5 
REMARK    3  A    between atoms: P_2  and  O_3 
REMARK    4  A    between atoms: O_5  and  C_6 
REMARK    5  A    between atoms: C_6  and  C_7 
REMARK    6  A    between atoms: C_7  and  C_10 
REMARK    7  A    between atoms: C_10  and  C_12 
REMARK    8  A    between atoms: C_10  and  O_11 
REMARK       I    between atoms: C_12  and  N_14 
REMARK    9  A    between atoms: N_14  and  C_15 
REMARK   10  A    between atoms: C_15  and  C_16 
REMARK   11  A    between atoms: C_17  and  C_16 
REMARK       I    between atoms: N_19  and  C_17 
REMARK   12  A    between atoms: C_20  and  N_19 
REMARK   13  A    between atoms: C_21  and  C_20 
REMARK   14  A    between atoms: S_22  and  C_21 
REMARK   15  A    between atoms: C_23  and  S_22 
REMARK   16  A    between atoms: C_25  and  C_23 
REMARK   17  A    between atoms: C_26  and  C_25 
REMARK   18  A    between atoms: C_26  and  C_27 
REMARK   19  A    between atoms: C_28  and  C_27 
REMARK   20  A    between atoms: C_28  and  C_29 
REMARK   21  A    between atoms: C_29  and  C_30 
ROOT
HETATM    1  C   UNK N   1      34.097  17.131   7.730  0.00  0.00     0.247 C 
HETATM    2  O   UNK N   1      34.583  18.064   7.113  0.00  0.00    -0.271 OA
HETATM    3  N   UNK N   1      34.923  16.161   8.200  0.00  0.00    -0.358 N 
HETATM    4  H   UNK N   1      35.883  16.230   7.991  0.00  0.00     0.162 HD
ENDROOT
BRANCH   3   5
HETATM    5  C   UNK N   1      34.481  15.037   8.990  0.00  0.00     0.132 C 
BRANCH   5   6
HETATM    6  C   UNK N   1      34.372  15.418  10.460  0.00  0.00     0.122 C 
BRANCH   6   7
HETATM    7  C   UNK N   1      35.635  16.047  10.982  0.00  0.00     0.219 C 
HETATM    8  O   UNK N   1      35.898  17.192  10.654  0.00  0.00    -0.274 OA
HETATM    9  N   UNK N   1      36.486  15.385  11.806  0.00  0.00    -0.360 N 
HETATM   10  H   UNK N   1      37.291  15.859  12.116  0.00  0.00     0.162 HD
BRANCH   9  11
HETATM   11  C   UNK N   1      36.282  14.026  12.257  0.00  0.00     0.133 C 
BRANCH  11  12
HETATM   12  C   UNK N   1      35.793  13.965  13.703  0.00  0.00     0.102 C 
BRANCH  12  13
HETATM   13  S   UNK N   1      36.720  12.769  14.732  0.00  0.00    -0.091 SA
BRANCH  13  14
HETATM   14  C   UNK N   1      35.272  11.888  15.338  0.00  0.00     0.186 C 
HETATM   15  O   UNK N   1      35.193  11.564  16.511  0.00  0.00    -0.286 OA
BRANCH  14  16
HETATM   16  C   UNK N   1      34.166  11.539  14.398  0.00  0.00     0.091 C 
BRANCH  16  17
HETATM   17  C   UNK N   1      34.519  10.289  13.609  0.00  0.00     0.008 C 
BRANCH  17  18
HETATM   18  C   UNK N   1      33.792  10.277  12.275  0.00  0.00     0.000 C 
BRANCH  18  19
HETATM   19  C   UNK N   1      33.969   8.944  11.572  0.00  0.00     0.000 C 
BRANCH  19  20
HETATM   20  C   UNK N   1      33.126   8.940  10.313  0.00  0.00    -0.000 C 
BRANCH  20  21
HETATM   21  C   UNK N   1      32.466   7.589  10.140  0.00  0.00    -0.005 C 
HETATM   22  C   UNK N   1      30.995   7.788   9.841  0.00  0.00     0.005 C 
ENDBRANCH  20  21
ENDBRANCH  19  20
ENDBRANCH  18  19
ENDBRANCH  17  18
ENDBRANCH  16  17
ENDBRANCH  14  16
ENDBRANCH  13  14
ENDBRANCH  12  13
ENDBRANCH  11  12
ENDBRANCH   9  11
ENDBRANCH   6   7
ENDBRANCH   5   6
ENDBRANCH   3   5
BRANCH   1  23
HETATM   23  C   UNK N   1      32.593  17.100   7.971  0.00  0.00     0.219 C 
BRANCH  23  24
HETATM   24  C   UNK N   1      31.783  16.646   6.728  0.00  0.00     0.009 C 
HETATM   25  C   UNK N   1      31.667  15.127   6.743  0.00  0.00     0.020 C 
HETATM   26  C   UNK N   1      32.506  17.050   5.450  0.00  0.00     0.020 C 
BRANCH  24  27
HETATM   27  C   UNK N   1      30.374  17.252   6.728  0.00  0.00     0.192 C 
BRANCH  27  28
HETATM   28  O   UNK N   1      29.735  17.042   7.958  0.00  0.00    -0.296 OA
BRANCH  28  29
HETATM   29  P   UNK N   1      28.478  18.239   8.032  0.00  0.00     0.390 P 
HETATM   30  O   UNK N   1      27.681  16.910   7.939  0.00  0.00    -0.632 OA
BRANCH  29  31
HETATM   31  O   UNK N   1      27.429  18.312   9.413  0.00  0.00    -0.307 OA
HETATM   32  H   UNK N   1      26.468  18.419   9.331  0.00  0.00     0.222 HD
ENDBRANCH  29  31
BRANCH  29  33
HETATM   33  O   UNK N   1      29.395  18.289   9.506  0.00  0.00    -0.307 OA
HETATM   34  H   UNK N   1      29.384  17.820  10.355  0.00  0.00     0.222 HD
ENDBRANCH  29  33
ENDBRANCH  28  29
ENDBRANCH  27  28
ENDBRANCH  24  27
ENDBRANCH  23  24
BRANCH  23  35
HETATM   35  O   UNK N   1      32.180  18.376   8.367  0.00  0.00    -0.385 OA
HETATM   36  H   UNK N   1      32.674  19.210   8.407  0.00  0.00     0.210 HD
ENDBRANCH  23  35
ENDBRANCH   1  23
TORSDOF 21
ENDMDL
MODEL 8
REMARK VINA RESULT:      -5.4      4.324      9.186
REMARK  21 active torsions:
REMARK  status: ('A' for Active; 'I' for Inactive)
REMARK    1  A    between atoms: P_2  and  O_1 
REMARK    2  A    between atoms: P_2  and  O_5 
REMARK    3  A    between atoms: P_2  and  O_3 
REMARK    4  A    between atoms: O_5  and  C_6 
REMARK    5  A    between atoms: C_6  and  C_7 
REMARK    6  A    between atoms: C_7  and  C_10 
REMARK    7  A    between atoms: C_10  and  C_12 
REMARK    8  A    between atoms: C_10  and  O_11 
REMARK       I    between atoms: C_12  and  N_14 
REMARK    9  A    between atoms: N_14  and  C_15 
REMARK   10  A    between atoms: C_15  and  C_16 
REMARK   11  A    between atoms: C_17  and  C_16 
REMARK       I    between atoms: N_19  and  C_17 
REMARK   12  A    between atoms: C_20  and  N_19 
REMARK   13  A    between atoms: C_21  and  C_20 
REMARK   14  A    between atoms: S_22  and  C_21 
REMARK   15  A    between atoms: C_23  and  S_22 
REMARK   16  A    between atoms: C_25  and  C_23 
REMARK   17  A    between atoms: C_26  and  C_25 
REMARK   18  A    between atoms: C_26  and  C_27 
REMARK   19  A    between atoms: C_28  and  C_27 
REMARK   20  A    between atoms: C_28  and  C_29 
REMARK   21  A    between atoms: C_29  and  C_30 
ROOT
HETATM    1  C   UNK N   1      34.755  16.118   7.871  0.00  0.00     0.247 C 
HETATM    2  O   UNK N   1      34.918  15.387   6.909  0.00  0.00    -0.271 OA
HETATM    3  N   UNK N   1      35.386  15.811   9.034  0.00  0.00    -0.358 N 
HETATM    4  H   UNK N   1      35.922  14.985   9.066  0.00  0.00     0.162 HD
ENDROOT
BRANCH   3   5
HETATM    5  C   UNK N   1      35.322  16.622  10.226  0.00  0.00     0.132 C 
BRANCH   5   6
HETATM    6  C   UNK N   1      35.512  15.768  11.473  0.00  0.00     0.122 C 
BRANCH   6   7
HETATM    7  C   UNK N   1      34.558  14.605  11.520  0.00  0.00     0.219 C 
HETATM    8  O   UNK N   1      33.430  14.756  11.081  0.00  0.00    -0.274 OA
HETATM    9  N   UNK N   1      34.912  13.399  12.029  0.00  0.00    -0.360 N 
HETATM   10  H   UNK N   1      34.240  12.680  12.022  0.00  0.00     0.162 HD
BRANCH   9  11
HETATM   11  C   UNK N   1      36.216  13.105  12.580  0.00  0.00     0.133 C 
BRANCH  11  12
HETATM   12  C   UNK N   1      37.075  12.279  11.624  0.00  0.00     0.102 C 
BRANCH  12  13
HETATM   13  S   UNK N   1      37.185  10.513  12.089  0.00  0.00    -0.091 SA
BRANCH  13  14
HETATM   14  C   UNK N   1      35.475  10.114  11.697  0.00  0.00     0.186 C 
HETATM   15  O   UNK N   1      34.958  10.544  10.678  0.00  0.00    -0.286 OA
BRANCH  14  16
HETATM   16  C   UNK N   1      34.677   9.261  12.627  0.00  0.00     0.091 C 
BRANCH  16  17
HETATM   17  C   UNK N   1      35.096   9.518  14.066  0.00  0.00     0.008 C 
BRANCH  17  18
HETATM   18  C   UNK N   1      34.170  10.530  14.718  0.00  0.00     0.000 C 
BRANCH  18  19
HETATM   19  C   UNK N   1      34.598  10.819  16.145  0.00  0.00     0.000 C 
BRANCH  19  20
HETATM   20  C   UNK N   1      35.405  12.100  16.163  0.00  0.00    -0.000 C 
BRANCH  20  21
HETATM   21  C   UNK N   1      35.145  12.854  17.450  0.00  0.00    -0.005 C 
HETATM   22  C   UNK N   1      35.291  11.906  18.622  0.00  0.00     0.005 C 
ENDBRANCH  20  21
ENDBRANCH  19  20
ENDBRANCH  18  19
ENDBRANCH  17  18
ENDBRANCH  16  17
ENDBRANCH  14  16
ENDBRANCH  13  14
ENDBRANCH  12  13
ENDBRANCH  11  12
ENDBRANCH   9  11
ENDBRANCH   6   7
ENDBRANCH   5   6
ENDBRANCH   3   5
BRANCH   1  23
HETATM   23  C   UNK N   1      33.877  17.354   7.729  0.00  0.00     0.219 C 
BRANCH  23  24
HETATM   24  C   UNK N   1      32.388  17.018   7.454  0.00  0.00     0.009 C 
HETATM   25  C   UNK N   1      32.119  15.581   7.882  0.00  0.00     0.020 C 
HETATM   26  C   UNK N   1      32.087  17.130   5.966  0.00  0.00     0.020 C 
BRANCH  24  27
HETATM   27  C   UNK N   1      31.453  17.950   8.234  0.00  0.00     0.192 C 
BRANCH  27  28
HETATM   28  O   UNK N   1      30.537  17.219   9.004  0.00  0.00    -0.296 OA
BRANCH  28  29
HETATM   29  P   UNK N   1      29.230  18.316   9.327  0.00  0.00     0.390 P 
HETATM   30  O   UNK N   1      28.848  17.727   7.942  0.00  0.00    -0.632 OA
BRANCH  29  31
HETATM   31  O   UNK N   1      27.627  17.703   9.588  0.00  0.00    -0.307 OA
HETATM   32  H   UNK N   1      27.450  16.938  10.159  0.00  0.00     0.222 HD
ENDBRANCH  29  31
BRANCH  29  33
HETATM   33  O   UNK N   1      29.232  17.066  10.533  0.00  0.00    -0.307 OA
HETATM   34  H   UNK N   1      29.744  16.862  11.331  0.00  0.00     0.222 HD
ENDBRANCH  29  33
ENDBRANCH  28  29
ENDBRANCH  27  28
ENDBRANCH  24  27
ENDBRANCH  23  24
BRANCH  23  35
HETATM   35  O   UNK N   1      34.385  18.143   6.692  0.00  0.00    -0.385 OA
HETATM   36  H   UNK N   1      34.467  19.107   6.622  0.00  0.00     0.210 HD
ENDBRANCH  23  35
ENDBRANCH   1  23
TORSDOF 21
ENDMDL
MODEL 9
REMARK VINA RESULT:      -5.4      3.881      9.478
REMARK  21 active torsions:
REMARK  status: ('A' for Active; 'I' for Inactive)
REMARK    1  A    between atoms: P_2  and  O_1 
REMARK    2  A    between atoms: P_2  and  O_5 
REMARK    3  A    between atoms: P_2  and  O_3 
REMARK    4  A    between atoms: O_5  and  C_6 
REMARK    5  A    between atoms: C_6  and  C_7 
REMARK    6  A    between atoms: C_7  and  C_10 
REMARK    7  A    between atoms: C_10  and  C_12 
REMARK    8  A    between atoms: C_10  and  O_11 
REMARK       I    between atoms: C_12  and  N_14 
REMARK    9  A    between atoms: N_14  and  C_15 
REMARK   10  A    between atoms: C_15  and  C_16 
REMARK   11  A    between atoms: C_17  and  C_16 
REMARK       I    between atoms: N_19  and  C_17 
REMARK   12  A    between atoms: C_20  and  N_19 
REMARK   13  A    between atoms: C_21  and  C_20 
REMARK   14  A    between atoms: S_22  and  C_21 
REMARK   15  A    between atoms: C_23  and  S_22 
REMARK   16  A    between atoms: C_25  and  C_23 
REMARK   17  A    between atoms: C_26  and  C_25 
REMARK   18  A    between atoms: C_26  and  C_27 
REMARK   19  A    between atoms: C_28  and  C_27 
REMARK   20  A    between atoms: C_28  and  C_29 
REMARK   21  A    between atoms: C_29  and  C_30 
ROOT
HETATM    1  C   UNK N   1      30.863  17.182   8.314  0.00  0.00     0.247 C 
HETATM    2  O   UNK N   1      29.909  16.940   9.033  0.00  0.00    -0.271 OA
HETATM    3  N   UNK N   1      31.969  17.743   8.867  0.00  0.00    -0.358 N 
HETATM    4  H   UNK N   1      31.943  17.969   9.825  0.00  0.00     0.162 HD
ENDROOT
BRANCH   3   5
HETATM    5  C   UNK N   1      33.182  18.027   8.138  0.00  0.00     0.132 C 
BRANCH   5   6
HETATM    6  C   UNK N   1      34.392  17.441   8.852  0.00  0.00     0.122 C 
BRANCH   6   7
HETATM    7  C   UNK N   1      34.505  15.953   8.657  0.00  0.00     0.219 C 
HETATM    8  O   UNK N   1      33.832  15.424   7.788  0.00  0.00    -0.274 OA
HETATM    9  N   UNK N   1      35.330  15.185   9.411  0.00  0.00    -0.360 N 
HETATM   10  H   UNK N   1      35.360  14.219   9.226  0.00  0.00     0.162 HD
BRANCH   9  11
HETATM   11  C   UNK N   1      36.170  15.700  10.471  0.00  0.00     0.133 C 
BRANCH  11  12
HETATM   12  C   UNK N   1      35.546  15.501  11.851  0.00  0.00     0.102 C 
BRANCH  12  13
HETATM   13  S   UNK N   1      35.576  13.762  12.418  0.00  0.00    -0.091 SA
BRANCH  13  14
HETATM   14  C   UNK N   1      36.389  14.096  13.989  0.00  0.00     0.186 C 
HETATM   15  O   UNK N   1      36.689  15.237  14.298  0.00  0.00    -0.286 OA
BRANCH  14  16
HETATM   16  C   UNK N   1      36.710  12.969  14.914  0.00  0.00     0.091 C 
BRANCH  16  17
HETATM   17  C   UNK N   1      35.903  13.095  16.197  0.00  0.00     0.008 C 
BRANCH  17  18
HETATM   18  C   UNK N   1      34.551  12.420  16.044  0.00  0.00     0.000 C 
BRANCH  18  19
HETATM   19  C   UNK N   1      34.695  11.055  15.396  0.00  0.00     0.000 C 
BRANCH  19  20
HETATM   20  C   UNK N   1      33.627  10.902  14.335  0.00  0.00    -0.000 C 
BRANCH  20  21
HETATM   21  C   UNK N   1      34.164  10.092  13.175  0.00  0.00    -0.005 C 
HETATM   22  C   UNK N   1      35.661   9.926  13.334  0.00  0.00     0.005 C 
ENDBRANCH  20  21
ENDBRANCH  19  20
ENDBRANCH  18  19
ENDBRANCH  17  18
ENDBRANCH  16  17
ENDBRANCH  14  16
ENDBRANCH  13  14
ENDBRANCH  12  13
ENDBRANCH  11  12
ENDBRANCH   9  11
ENDBRANCH   6   7
ENDBRANCH   5   6
ENDBRANCH   3   5
BRANCH   1  23
HETATM   23  C   UNK N   1      30.790  16.826   6.834  0.00  0.00     0.219 C 
BRANCH  23  24
HETATM   24  C   UNK N   1      29.476  17.294   6.156  0.00  0.00     0.009 C 
HETATM   25  C   UNK N   1      28.505  16.122   6.100  0.00  0.00     0.020 C 
HETATM   26  C   UNK N   1      29.751  17.745   4.728  0.00  0.00     0.020 C 
BRANCH  24  27
HETATM   27  C   UNK N   1      28.824  18.442   6.936  0.00  0.00     0.192 C 
BRANCH  27  28
HETATM   28  O   UNK N   1      27.600  18.811   6.360  0.00  0.00    -0.296 OA
BRANCH  28  29
HETATM   29  P   UNK N   1      27.342  20.458   6.850  0.00  0.00     0.390 P 
HETATM   30  O   UNK N   1      26.084  20.154   5.992  0.00  0.00    -0.632 OA
BRANCH  29  31
HETATM   31  O   UNK N   1      26.032  20.849   7.920  0.00  0.00    -0.307 OA
HETATM   32  H   UNK N   1      25.202  20.347   7.931  0.00  0.00     0.222 HD
ENDBRANCH  29  31
BRANCH  29  33
HETATM   33  O   UNK N   1      27.367  19.445   8.261  0.00  0.00    -0.307 OA
HETATM   34  H   UNK N   1      27.384  19.580   9.221  0.00  0.00     0.222 HD
ENDBRANCH  29  33
ENDBRANCH  28  29
ENDBRANCH  27  28
ENDBRANCH  24  27
ENDBRANCH  23  24
BRANCH  23  35
HETATM   35  O   UNK N   1      30.925  15.440   6.704  0.00  0.00    -0.385 OA
HETATM   36  H   UNK N   1      31.080  14.760   7.378  0.00  0.00     0.210 HD
ENDBRANCH  23  35
ENDBRANCH   1  23
TORSDOF 21
ENDMDL
