MODEL 1
REMARK VINA RESULT:      -5.5      0.000      0.000
REMARK  6 active torsions:
REMARK  status: ('A' for Active; 'I' for Inactive)
REMARK    1  A    between atoms: C_1  and  O_7 
REMARK    2  A    between atoms: C_2  and  O_9 
REMARK    3  A    between atoms: C_4  and  C_10 
REMARK    4  A    between atoms: C_6  and  O_8 
REMARK    5  A    between atoms: C_11  and  C_12 
REMARK    6  A    between atoms: C_12  and  O_13 
ROOT
HETATM    1  C   UNK N   1      25.360  26.404  -5.267  0.00  0.00     0.133 A 
HETATM    2  C   UNK N   1      25.855  26.883  -4.041  0.00  0.00     0.104 A 
HETATM    3  C   UNK N   1      26.713  26.068  -3.272  0.00  0.00     0.051 A 
HETATM    4  C   UNK N   1      27.066  24.792  -3.722  0.00  0.00    -0.030 A 
HETATM    5  C   UNK N   1      26.563  24.332  -4.944  0.00  0.00     0.051 A 
HETATM    6  C   UNK N   1      25.716  25.126  -5.722  0.00  0.00     0.104 A 
ENDROOT
BRANCH   4   7
HETATM    7  C   UNK N   1      27.946  23.926  -2.915  0.00  0.00     0.018 C 
HETATM    8  C   UNK N   1      29.125  23.523  -3.406  0.00  0.00     0.082 C 
BRANCH   8   9
HETATM    9  C   UNK N   1      30.060  22.668  -2.666  0.00  0.00     0.165 C 
HETATM   10  O   UNK N   1      30.491  21.656  -3.195  0.00  0.00    -0.647 OA
BRANCH   9  11
HETATM   11  O   UNK N   1      30.447  22.986  -1.416  0.00  0.00    -0.773 OA
HETATM   12  H   UNK N   1      30.179  22.461  -0.688  0.00  0.00     0.167 HD
ENDBRANCH   9  11
ENDBRANCH   8   9
ENDBRANCH   4   7
BRANCH   2  13
HETATM   13  O   UNK N   1      25.492  28.122  -3.625  0.00  0.00    -0.353 OA
HETATM   14  C   UNK N   1      26.324  29.216  -3.682  0.00  0.00     0.210 C 
ENDBRANCH   2  13
BRANCH   6  15
HETATM   15  O   UNK N   1      25.232  24.677  -6.906  0.00  0.00    -0.353 OA
HETATM   16  C   UNK N   1      25.982  24.650  -8.061  0.00  0.00     0.210 C 
ENDBRANCH   6  15
BRANCH   1  17
HETATM   17  O   UNK N   1      24.540  27.172  -6.005  0.00  0.00    -0.356 OA
HETATM   18  H   UNK N   1      23.882  26.776  -6.542  0.00  0.00     0.218 HD
ENDBRANCH   1  17
TORSDOF 6
ENDMDL
MODEL 2
REMARK VINA RESULT:      -5.5      0.324      3.232
REMARK  6 active torsions:
REMARK  status: ('A' for Active; 'I' for Inactive)
REMARK    1  A    between atoms: C_1  and  O_7 
REMARK    2  A    between atoms: C_2  and  O_9 
REMARK    3  A    between atoms: C_4  and  C_10 
REMARK    4  A    between atoms: C_6  and  O_8 
REMARK    5  A    between atoms: C_11  and  C_12 
REMARK    6  A    between atoms: C_12  and  O_13 
ROOT
HETATM    1  C   UNK N   1      25.405  26.374  -5.403  0.00  0.00     0.133 A 
HETATM    2  C   UNK N   1      25.786  25.108  -5.880  0.00  0.00     0.104 A 
HETATM    3  C   UNK N   1      26.597  24.277  -5.078  0.00  0.00     0.051 A 
HETATM    4  C   UNK N   1      27.023  24.711  -3.818  0.00  0.00    -0.030 A 
HETATM    5  C   UNK N   1      26.634  25.974  -3.360  0.00  0.00     0.051 A 
HETATM    6  C   UNK N   1      25.828  26.809  -4.139  0.00  0.00     0.104 A 
ENDROOT
BRANCH   4   7
HETATM    7  C   UNK N   1      27.887  23.858  -2.981  0.00  0.00     0.018 C 
HETATM    8  C   UNK N   1      29.151  23.615  -3.353  0.00  0.00     0.082 C 
BRANCH   8   9
HETATM    9  C   UNK N   1      30.077  22.783  -2.575  0.00  0.00     0.165 C 
HETATM   10  O   UNK N   1      30.313  23.078  -1.414  0.00  0.00    -0.647 OA
BRANCH   9  11
HETATM   11  O   UNK N   1      30.666  21.704  -3.124  0.00  0.00    -0.773 OA
HETATM   12  H   UNK N   1      31.376  21.804  -3.726  0.00  0.00     0.167 HD
ENDBRANCH   9  11
ENDBRANCH   8   9
ENDBRANCH   4   7
BRANCH   2  13
HETATM   13  O   UNK N   1      25.365  24.715  -7.109  0.00  0.00    -0.353 OA
HETATM   14  C   UNK N   1      25.802  23.568  -7.730  0.00  0.00     0.210 C 
ENDBRANCH   2  13
BRANCH   6  15
HETATM   15  O   UNK N   1      25.451  28.032  -3.690  0.00  0.00    -0.353 OA
HETATM   16  C   UNK N   1      26.312  29.104  -3.622  0.00  0.00     0.210 C 
ENDBRANCH   6  15
BRANCH   1  17
HETATM   17  O   UNK N   1      24.635  27.173  -6.161  0.00  0.00    -0.356 OA
HETATM   18  H   UNK N   1      23.733  26.961  -6.301  0.00  0.00     0.218 HD
ENDBRANCH   1  17
TORSDOF 6
ENDMDL
MODEL 3
REMARK VINA RESULT:      -5.2     14.340     15.438
REMARK  6 active torsions:
REMARK  status: ('A' for Active; 'I' for Inactive)
REMARK    1  A    between atoms: C_1  and  O_7 
REMARK    2  A    between atoms: C_2  and  O_9 
REMARK    3  A    between atoms: C_4  and  C_10 
REMARK    4  A    between atoms: C_6  and  O_8 
REMARK    5  A    between atoms: C_11  and  C_12 
REMARK    6  A    between atoms: C_12  and  O_13 
ROOT
HETATM    1  C   UNK N   1      33.701  16.155   5.781  0.00  0.00     0.133 A 
HETATM    2  C   UNK N   1      33.518  17.199   6.706  0.00  0.00     0.104 A 
HETATM    3  C   UNK N   1      32.220  17.494   7.173  0.00  0.00     0.051 A 
HETATM    4  C   UNK N   1      31.121  16.757   6.718  0.00  0.00    -0.030 A 
HETATM    5  C   UNK N   1      31.322  15.723   5.798  0.00  0.00     0.051 A 
HETATM    6  C   UNK N   1      32.601  15.413   5.327  0.00  0.00     0.104 A 
ENDROOT
BRANCH   4   7
HETATM    7  C   UNK N   1      29.758  17.073   7.186  0.00  0.00     0.018 C 
HETATM    8  C   UNK N   1      29.559  17.475   8.448  0.00  0.00     0.082 C 
BRANCH   8   9
HETATM    9  C   UNK N   1      28.237  17.814   8.989  0.00  0.00     0.165 C 
HETATM   10  O   UNK N   1      27.652  17.003   9.689  0.00  0.00    -0.647 OA
BRANCH   9  11
HETATM   11  O   UNK N   1      27.666  19.004   8.725  0.00  0.00    -0.773 OA
HETATM   12  H   UNK N   1      26.745  19.126   8.843  0.00  0.00     0.167 HD
ENDBRANCH   9  11
ENDBRANCH   8   9
ENDBRANCH   4   7
BRANCH   2  13
HETATM   13  O   UNK N   1      34.600  17.902   7.126  0.00  0.00    -0.353 OA
HETATM   14  C   UNK N   1      34.657  18.556   8.334  0.00  0.00     0.210 C 
ENDBRANCH   2  13
BRANCH   6  15
HETATM   15  O   UNK N   1      32.792  14.408   4.437  0.00  0.00    -0.353 OA
HETATM   16  C   UNK N   1      32.424  14.499   3.112  0.00  0.00     0.210 C 
ENDBRANCH   6  15
BRANCH   1  17
HETATM   17  O   UNK N   1      34.933  15.868   5.329  0.00  0.00    -0.356 OA
HETATM   18  H   UNK N   1      35.553  16.556   5.187  0.00  0.00     0.218 HD
ENDBRANCH   1  17
TORSDOF 6
ENDMDL
MODEL 4
REMARK VINA RESULT:      -5.2     13.235     16.386
REMARK  6 active torsions:
REMARK  status: ('A' for Active; 'I' for Inactive)
REMARK    1  A    between atoms: C_1  and  O_7 
REMARK    2  A    between atoms: C_2  and  O_9 
REMARK    3  A    between atoms: C_4  and  C_10 
REMARK    4  A    between atoms: C_6  and  O_8 
REMARK    5  A    between atoms: C_11  and  C_12 
REMARK    6  A    between atoms: C_12  and  O_13 
ROOT
HETATM    1  C   UNK N   1      34.146  16.329   6.798  0.00  0.00     0.133 A 
HETATM    2  C   UNK N   1      33.186  17.204   6.261  0.00  0.00     0.104 A 
HETATM    3  C   UNK N   1      31.986  17.438   6.965  0.00  0.00     0.051 A 
HETATM    4  C   UNK N   1      31.750  16.800   8.188  0.00  0.00    -0.030 A 
HETATM    5  C   UNK N   1      32.717  15.933   8.707  0.00  0.00     0.051 A 
HETATM    6  C   UNK N   1      33.913  15.692   8.025  0.00  0.00     0.104 A 
ENDROOT
BRANCH   4   7
HETATM    7  C   UNK N   1      30.490  17.023   8.922  0.00  0.00     0.018 C 
HETATM    8  C   UNK N   1      29.454  17.612   8.311  0.00  0.00     0.082 C 
BRANCH   8   9
HETATM    9  C   UNK N   1      28.165  17.864   8.967  0.00  0.00     0.165 C 
HETATM   10  O   UNK N   1      27.684  17.006   9.688  0.00  0.00    -0.647 OA
BRANCH   9  11
HETATM   11  O   UNK N   1      27.511  19.027   8.783  0.00  0.00    -0.773 OA
HETATM   12  H   UNK N   1      27.543  19.699   9.435  0.00  0.00     0.167 HD
ENDBRANCH   9  11
ENDBRANCH   8   9
ENDBRANCH   4   7
BRANCH   2  13
HETATM   13  O   UNK N   1      33.437  17.804   5.070  0.00  0.00    -0.353 OA
HETATM   14  C   UNK N   1      32.722  17.544   3.924  0.00  0.00     0.210 C 
ENDBRANCH   2  13
BRANCH   6  15
HETATM   15  O   UNK N   1      34.848  14.852   8.533  0.00  0.00    -0.353 OA
HETATM   16  C   UNK N   1      35.505  15.089   9.720  0.00  0.00     0.210 C 
ENDBRANCH   6  15
BRANCH   1  17
HETATM   17  O   UNK N   1      35.291  16.098   6.132  0.00  0.00    -0.356 OA
HETATM   18  H   UNK N   1      35.650  16.759   5.574  0.00  0.00     0.218 HD
ENDBRANCH   1  17
TORSDOF 6
ENDMDL
MODEL 5
REMARK VINA RESULT:      -5.0     11.108     12.440
REMARK  6 active torsions:
REMARK  status: ('A' for Active; 'I' for Inactive)
REMARK    1  A    between atoms: C_1  and  O_7 
REMARK    2  A    between atoms: C_2  and  O_9 
REMARK    3  A    between atoms: C_4  and  C_10 
REMARK    4  A    between atoms: C_6  and  O_8 
REMARK    5  A    between atoms: C_11  and  C_12 
REMARK    6  A    between atoms: C_12  and  O_13 
ROOT
HETATM    1  C   UNK N   1      23.645  20.186   3.054  0.00  0.00     0.133 A 
HETATM    2  C   UNK N   1      24.291  19.297   3.932  0.00  0.00     0.104 A 
HETATM    3  C   UNK N   1      23.523  18.399   4.702  0.00  0.00     0.051 A 
HETATM    4  C   UNK N   1      22.128  18.395   4.598  0.00  0.00    -0.030 A 
HETATM    5  C   UNK N   1      21.503  19.285   3.719  0.00  0.00     0.051 A 
HETATM    6  C   UNK N   1      22.247  20.179   2.945  0.00  0.00     0.104 A 
ENDROOT
BRANCH   4   7
HETATM    7  C   UNK N   1      21.316  17.473   5.415  0.00  0.00     0.018 C 
HETATM    8  C   UNK N   1      21.101  17.737   6.710  0.00  0.00     0.082 C 
BRANCH   8   9
HETATM    9  C   UNK N   1      20.301  16.877   7.589  0.00  0.00     0.165 C 
HETATM   10  O   UNK N   1      20.566  16.827   8.780  0.00  0.00    -0.647 OA
BRANCH   9  11
HETATM   11  O   UNK N   1      19.282  16.145   7.100  0.00  0.00    -0.773 OA
HETATM   12  H   UNK N   1      18.675  16.520   6.493  0.00  0.00     0.167 HD
ENDBRANCH   9  11
ENDBRANCH   8   9
ENDBRANCH   4   7
BRANCH   2  13
HETATM   13  O   UNK N   1      25.645  19.328   4.019  0.00  0.00    -0.353 OA
HETATM   14  C   UNK N   1      26.326  19.918   5.058  0.00  0.00     0.210 C 
ENDBRANCH   2  13
BRANCH   6  15
HETATM   15  O   UNK N   1      21.637  21.040   2.093  0.00  0.00    -0.353 OA
HETATM   16  C   UNK N   1      20.825  20.625   1.060  0.00  0.00     0.210 C 
ENDBRANCH   6  15
BRANCH   1  17
HETATM   17  O   UNK N   1      24.369  21.046   2.317  0.00  0.00    -0.356 OA
HETATM   18  H   UNK N   1      24.280  21.057   1.385  0.00  0.00     0.218 HD
ENDBRANCH   1  17
TORSDOF 6
ENDMDL
MODEL 6
REMARK VINA RESULT:      -5.0     22.283     26.193
REMARK  6 active torsions:
REMARK  status: ('A' for Active; 'I' for Inactive)
REMARK    1  A    between atoms: C_1  and  O_7 
REMARK    2  A    between atoms: C_2  and  O_9 
REMARK    3  A    between atoms: C_4  and  C_10 
REMARK    4  A    between atoms: C_6  and  O_8 
REMARK    5  A    between atoms: C_11  and  C_12 
REMARK    6  A    between atoms: C_12  and  O_13 
ROOT
HETATM    1  C   UNK N   1      35.354  12.596  18.988  0.00  0.00     0.133 A 
HETATM    2  C   UNK N   1      35.256  13.734  18.167  0.00  0.00     0.104 A 
HETATM    3  C   UNK N   1      35.065  13.576  16.779  0.00  0.00     0.051 A 
HETATM    4  C   UNK N   1      34.976  12.297  16.219  0.00  0.00    -0.030 A 
HETATM    5  C   UNK N   1      35.076  11.176  17.051  0.00  0.00     0.051 A 
HETATM    6  C   UNK N   1      35.262  11.313  18.429  0.00  0.00     0.104 A 
ENDROOT
BRANCH   4   7
HETATM    7  C   UNK N   1      34.796  12.122  14.766  0.00  0.00     0.018 C 
HETATM    8  C   UNK N   1      35.252  13.052  13.917  0.00  0.00     0.082 C 
BRANCH   8   9
HETATM    9  C   UNK N   1      35.119  12.951  12.459  0.00  0.00     0.165 C 
HETATM   10  O   UNK N   1      35.867  12.211  11.840  0.00  0.00    -0.647 OA
BRANCH   9  11
HETATM   11  O   UNK N   1      34.185  13.662  11.798  0.00  0.00    -0.773 OA
HETATM   12  H   UNK N   1      33.387  13.907  12.222  0.00  0.00     0.167 HD
ENDBRANCH   9  11
ENDBRANCH   8   9
ENDBRANCH   4   7
BRANCH   2  13
HETATM   13  O   UNK N   1      35.353  14.963  18.734  0.00  0.00    -0.353 OA
HETATM   14  C   UNK N   1      36.054  16.005  18.174  0.00  0.00     0.210 C 
ENDBRANCH   2  13
BRANCH   6  15
HETATM   15  O   UNK N   1      35.356  10.224  19.232  0.00  0.00    -0.353 OA
HETATM   16  C   UNK N   1      34.365   9.272  19.324  0.00  0.00     0.210 C 
ENDBRANCH   6  15
BRANCH   1  17
HETATM   17  O   UNK N   1      35.540  12.737  20.311  0.00  0.00    -0.356 OA
HETATM   18  H   UNK N   1      36.006  12.083  20.792  0.00  0.00     0.218 HD
ENDBRANCH   1  17
TORSDOF 6
ENDMDL
MODEL 7
REMARK VINA RESULT:      -4.9     12.754     14.746
REMARK  6 active torsions:
REMARK  status: ('A' for Active; 'I' for Inactive)
REMARK    1  A    between atoms: C_1  and  O_7 
REMARK    2  A    between atoms: C_2  and  O_9 
REMARK    3  A    between atoms: C_4  and  C_10 
REMARK    4  A    between atoms: C_6  and  O_8 
REMARK    5  A    between atoms: C_11  and  C_12 
REMARK    6  A    between atoms: C_12  and  O_13 
ROOT
HETATM    1  C   UNK N   1      30.815  17.245   4.798  0.00  0.00     0.133 A 
HETATM    2  C   UNK N   1      30.125  17.295   6.023  0.00  0.00     0.104 A 
HETATM    3  C   UNK N   1      30.852  17.420   7.226  0.00  0.00     0.051 A 
HETATM    4  C   UNK N   1      32.249  17.490   7.202  0.00  0.00    -0.030 A 
HETATM    5  C   UNK N   1      32.918  17.439   5.975  0.00  0.00     0.051 A 
HETATM    6  C   UNK N   1      32.215  17.319   4.773  0.00  0.00     0.104 A 
ENDROOT
BRANCH   4   7
HETATM    7  C   UNK N   1      33.017  17.601   8.457  0.00  0.00     0.018 C 
HETATM    8  C   UNK N   1      33.910  16.657   8.782  0.00  0.00     0.082 C 
BRANCH   8   9
HETATM    9  C   UNK N   1      34.719  16.696  10.006  0.00  0.00     0.165 C 
HETATM   10  O   UNK N   1      35.615  17.518  10.104  0.00  0.00    -0.647 OA
BRANCH   9  11
HETATM   11  O   UNK N   1      34.483  15.840  11.018  0.00  0.00    -0.773 OA
HETATM   12  H   UNK N   1      34.267  16.160  11.871  0.00  0.00     0.167 HD
ENDBRANCH   9  11
ENDBRANCH   8   9
ENDBRANCH   4   7
BRANCH   2  13
HETATM   13  O   UNK N   1      28.770  17.218   6.017  0.00  0.00    -0.353 OA
HETATM   14  C   UNK N   1      27.958  18.091   6.704  0.00  0.00     0.210 C 
ENDBRANCH   2  13
BRANCH   6  15
HETATM   15  O   UNK N   1      32.867  17.271   3.586  0.00  0.00    -0.353 OA
HETATM   16  C   UNK N   1      33.370  16.105   3.052  0.00  0.00     0.210 C 
ENDBRANCH   6  15
BRANCH   1  17
HETATM   17  O   UNK N   1      30.131  17.123   3.648  0.00  0.00    -0.356 OA
HETATM   18  H   UNK N   1      29.501  17.772   3.405  0.00  0.00     0.218 HD
ENDBRANCH   1  17
TORSDOF 6
ENDMDL
MODEL 8
REMARK VINA RESULT:      -4.9     12.903     14.081
REMARK  6 active torsions:
REMARK  status: ('A' for Active; 'I' for Inactive)
REMARK    1  A    between atoms: C_1  and  O_7 
REMARK    2  A    between atoms: C_2  and  O_9 
REMARK    3  A    between atoms: C_4  and  C_10 
REMARK    4  A    between atoms: C_6  and  O_8 
REMARK    5  A    between atoms: C_11  and  C_12 
REMARK    6  A    between atoms: C_12  and  O_13 
ROOT
HETATM    1  C   UNK N   1      19.170  14.809   4.045  0.00  0.00     0.133 A 
HETATM    2  C   UNK N   1      19.312  15.830   5.001  0.00  0.00     0.104 A 
HETATM    3  C   UNK N   1      19.937  17.041   4.638  0.00  0.00     0.051 A 
HETATM    4  C   UNK N   1      20.417  17.225   3.336  0.00  0.00    -0.030 A 
HETATM    5  C   UNK N   1      20.267  16.199   2.398  0.00  0.00     0.051 A 
HETATM    6  C   UNK N   1      19.647  14.993   2.739  0.00  0.00     0.104 A 
ENDROOT
BRANCH   4   7
HETATM    7  C   UNK N   1      21.090  18.481   2.953  0.00  0.00     0.018 C 
HETATM    8  C   UNK N   1      20.546  19.276   2.023  0.00  0.00     0.082 C 
BRANCH   8   9
HETATM    9  C   UNK N   1      21.147  20.543   1.590  0.00  0.00     0.165 C 
HETATM   10  O   UNK N   1      21.282  20.765   0.398  0.00  0.00    -0.647 OA
BRANCH   9  11
HETATM   11  O   UNK N   1      21.550  21.461   2.490  0.00  0.00    -0.773 OA
HETATM   12  H   UNK N   1      21.871  21.195   3.329  0.00  0.00     0.167 HD
ENDBRANCH   9  11
ENDBRANCH   8   9
ENDBRANCH   4   7
BRANCH   2  13
HETATM   13  O   UNK N   1      18.844  15.623   6.258  0.00  0.00    -0.353 OA
HETATM   14  C   UNK N   1      19.362  16.241   7.372  0.00  0.00     0.210 C 
ENDBRANCH   2  13
BRANCH   6  15
HETATM   15  O   UNK N   1      19.502  14.001   1.826  0.00  0.00    -0.353 OA
HETATM   16  C   UNK N   1      18.780  14.151   0.663  0.00  0.00     0.210 C 
ENDBRANCH   6  15
BRANCH   1  17
HETATM   17  O   UNK N   1      18.578  13.651   4.383  0.00  0.00    -0.356 OA
HETATM   18  H   UNK N   1      17.644  13.596   4.426  0.00  0.00     0.218 HD
ENDBRANCH   1  17
TORSDOF 6
ENDMDL
MODEL 9
REMARK VINA RESULT:      -4.9     22.529     26.341
REMARK  6 active torsions:
REMARK  status: ('A' for Active; 'I' for Inactive)
REMARK    1  A    between atoms: C_1  and  O_7 
REMARK    2  A    between atoms: C_2  and  O_9 
REMARK    3  A    between atoms: C_4  and  C_10 
REMARK    4  A    between atoms: C_6  and  O_8 
REMARK    5  A    between atoms: C_11  and  C_12 
REMARK    6  A    between atoms: C_12  and  O_13 
ROOT
HETATM    1  C   UNK N   1      35.242  12.633  18.973  0.00  0.00     0.133 A 
HETATM    2  C   UNK N   1      35.321  11.364  18.372  0.00  0.00     0.104 A 
HETATM    3  C   UNK N   1      35.482  11.264  16.974  0.00  0.00     0.051 A 
HETATM    4  C   UNK N   1      35.559  12.420  16.189  0.00  0.00    -0.030 A 
HETATM    5  C   UNK N   1      35.479  13.674  16.804  0.00  0.00     0.051 A 
HETATM    6  C   UNK N   1      35.323  13.792  18.188  0.00  0.00     0.104 A 
ENDROOT
BRANCH   4   7
HETATM    7  C   UNK N   1      35.708  12.325  14.724  0.00  0.00     0.018 C 
HETATM    8  C   UNK N   1      36.178  13.369  14.029  0.00  0.00     0.082 C 
BRANCH   8   9
HETATM    9  C   UNK N   1      36.362  13.354  12.573  0.00  0.00     0.165 C 
HETATM   10  O   UNK N   1      35.382  13.393  11.847  0.00  0.00    -0.647 OA
BRANCH   9  11
HETATM   11  O   UNK N   1      37.594  13.299  12.032  0.00  0.00    -0.773 OA
HETATM   12  H   UNK N   1      38.354  13.400  12.570  0.00  0.00     0.167 HD
ENDBRANCH   9  11
ENDBRANCH   8   9
ENDBRANCH   4   7
BRANCH   2  13
HETATM   13  O   UNK N   1      35.236  10.259  19.156  0.00  0.00    -0.353 OA
HETATM   14  C   UNK N   1      34.201   9.356  19.086  0.00  0.00     0.210 C 
ENDBRANCH   2  13
BRANCH   6  15
HETATM   15  O   UNK N   1      35.248  15.009  18.780  0.00  0.00    -0.353 OA
HETATM   16  C   UNK N   1      35.946  16.107  18.330  0.00  0.00     0.210 C 
ENDBRANCH   6  15
BRANCH   1  17
HETATM   17  O   UNK N   1      35.086  12.736  20.304  0.00  0.00    -0.356 OA
HETATM   18  H   UNK N   1      35.697  12.324  20.882  0.00  0.00     0.218 HD
ENDBRANCH   1  17
TORSDOF 6
ENDMDL
