REMARK  6 active torsions:
REMARK  status: ('A' for Active; 'I' for Inactive)
REMARK    1  A    between atoms: C_1  and  O_7 
REMARK    2  A    between atoms: C_2  and  O_9 
REMARK    3  A    between atoms: C_4  and  C_10 
REMARK    4  A    between atoms: C_6  and  O_8 
REMARK    5  A    between atoms: C_11  and  C_12 
REMARK    6  A    between atoms: C_12  and  O_13 
ROOT
HETATM    1  C   UNK N   1       0.922  -2.193   0.017  0.00  0.00     0.133 A 
HETATM    2  C   UNK N   1      -0.483  -2.237  -0.020  0.00  0.00     0.104 A 
HETATM    3  C   UNK N   1      -1.216  -1.032  -0.054  0.00  0.00     0.051 A 
HETATM    4  C   UNK N   1      -0.551   0.199  -0.047  0.00  0.00    -0.030 A 
HETATM    5  C   UNK N   1       0.847   0.223  -0.010  0.00  0.00     0.051 A 
HETATM    6  C   UNK N   1       1.590  -0.960   0.020  0.00  0.00     0.104 A 
ENDROOT
BRANCH   4   7
HETATM    7  C   UNK N   1      -1.310   1.464  -0.062  0.00  0.00     0.018 C 
HETATM    8  C   UNK N   1      -0.665   2.634   0.031  0.00  0.00     0.082 C 
BRANCH   8   9
HETATM    9  C   UNK N   1      -1.344   3.935   0.017  0.00  0.00     0.165 C 
HETATM   10  O   UNK N   1      -0.686   4.954   0.151  0.00  0.00    -0.647 OA
BRANCH   9  11
HETATM   11  O   UNK N   1      -2.679   4.017  -0.142  0.00  0.00    -0.773 OA
HETATM   12  H   UNK N   1      -3.094   4.849  -0.253  0.00  0.00     0.167 HD
ENDBRANCH   9  11
ENDBRANCH   8   9
ENDBRANCH   4   7
BRANCH   2  13
HETATM   13  O   UNK N   1      -1.103  -3.444  -0.019  0.00  0.00    -0.353 OA
HETATM   14  C   UNK N   1      -2.470  -3.595  -0.043  0.00  0.00     0.210 C 
ENDBRANCH   2  13
BRANCH   6  15
HETATM   15  O   UNK N   1       2.945  -0.932   0.054  0.00  0.00    -0.353 OA
HETATM   16  C   UNK N   1       3.672   0.238   0.054  0.00  0.00     0.210 C 
ENDBRANCH   6  15
BRANCH   1  17
HETATM   17  O   UNK N   1       1.628  -3.336   0.052  0.00  0.00    -0.356 OA
HETATM   18  H   UNK N   1       1.185  -4.161   0.076  0.00  0.00     0.218 HD
ENDBRANCH   1  17
TORSDOF 6
