MODEL 1
REMARK VINA RESULT:      -8.2      0.000      0.000
REMARK  3 active torsions:
REMARK  status: ('A' for Active; 'I' for Inactive)
REMARK    1  A    between atoms: C_21  and  N_1 
REMARK       I    between atoms: C_5  and  N_19 
REMARK    2  A    between atoms: C_9  and  C_17 
REMARK    3  A    between atoms: C_17  and  N_18 
ROOT
HETATM    1  C   UNK N   1      31.856  17.098   6.792  0.00  0.00    -0.018 C 
HETATM    2  C   UNK N   1      31.995  17.574   8.102  0.00  0.00     0.010 C 
HETATM    3  C   UNK N   1      33.265  17.910   8.570  0.00  0.00     0.001 C 
HETATM    4  C   UNK N   1      34.186  17.498   6.371  0.00  0.00     0.023 C 
HETATM    5  C   UNK N   1      32.650  17.150   4.503  0.00  0.00     0.100 C 
HETATM    6  N   UNK N   1      32.404  17.111   3.378  0.00  0.00    -0.191 NA
HETATM    7  C   UNK N   1      32.914  17.193   5.904  0.00  0.00     0.052 C 
HETATM    8  C   UNK N   1      34.374  17.778   7.725  0.00  0.00     0.002 C 
ENDROOT
BRANCH   1   9
HETATM    9  C   UNK N   1      30.683  16.291   6.378  0.00  0.00     0.191 C 
BRANCH   9  10
HETATM   10  N   UNK N   1      29.511  17.133   5.972  0.00  0.00    -0.142 N 
HETATM   11  C   UNK N   1      29.110  17.090   4.675  0.00  0.00     0.686 C 
HETATM   12  N   UNK N   1      28.491  18.155   4.120  0.00  0.00    -0.191 N 
HETATM   13  N   UNK N   1      28.621  15.853   4.221  0.00  0.00    -0.215 N 
HETATM   14  C   UNK N   1      27.988  19.116   4.892  0.00  0.00     0.065 A 
ATOM     15  HN  UNK N   1      28.409  18.222   3.106  1.00  0.00     0.184 HD
HETATM   16  C   UNK N   1      27.989  18.942   6.273  0.00  0.00     0.060 A 
HETATM   17  C   UNK N   1      27.386  20.221   4.321  0.00  0.00     0.031 A 
HETATM   18  C   UNK N   1      27.372  19.868   7.101  0.00  0.00     0.019 A 
HETATM   19  C   UNK N   1      28.715  17.909   6.806  0.00  0.00     0.274 C 
HETATM   20  C   UNK N   1      26.818  21.010   6.541  0.00  0.00     0.001 A 
HETATM   21  C   UNK N   1      26.833  21.191   5.153  0.00  0.00     0.002 A 
HETATM   22  O   UNK N   1      28.647  17.722   8.001  0.00  0.00    -0.266 OA
HETATM   23  C   UNK N   1      27.795  15.818   3.044  0.00  0.00     0.141 C 
HETATM   24  C   UNK N   1      28.666  14.654   5.026  0.00  0.00     0.165 C 
HETATM   25  C   UNK N   1      28.421  14.832   2.103  0.00  0.00     0.022 C 
HETATM   26  C   UNK N   1      28.633  13.521   2.843  0.00  0.00     0.028 C 
HETATM   27  C   UNK N   1      29.413  13.701   4.148  0.00  0.00     0.092 C 
BRANCH  27  28
HETATM   28  N   UNK N   1      29.591  12.385   4.707  0.00  0.00    -0.424 N 
HETATM   29  H   UNK N   1      29.859  12.223   5.677  0.00  0.00     0.150 HD
HETATM   30  H   UNK N   1      29.440  11.577   4.103  0.00  0.00     0.150 HD
ENDBRANCH  27  28
ENDBRANCH   9  10
ENDBRANCH   1   9
TORSDOF 3
ENDMDL
MODEL 2
REMARK VINA RESULT:      -7.9      3.194      6.652
REMARK  3 active torsions:
REMARK  status: ('A' for Active; 'I' for Inactive)
REMARK    1  A    between atoms: C_21  and  N_1 
REMARK       I    between atoms: C_5  and  N_19 
REMARK    2  A    between atoms: C_9  and  C_17 
REMARK    3  A    between atoms: C_17  and  N_18 
ROOT
HETATM    1  C   UNK N   1      30.886  17.532   7.833  0.00  0.00    -0.018 C 
HETATM    2  C   UNK N   1      30.759  18.228   9.043  0.00  0.00     0.010 C 
HETATM    3  C   UNK N   1      29.500  18.686   9.431  0.00  0.00     0.001 C 
HETATM    4  C   UNK N   1      28.505  17.571   7.528  0.00  0.00     0.023 C 
HETATM    5  C   UNK N   1      29.877  16.025   6.225  0.00  0.00     0.100 C 
HETATM    6  N   UNK N   1      30.009  15.162   5.474  0.00  0.00    -0.191 NA
HETATM    7  C   UNK N   1      29.757  17.093   7.164  0.00  0.00     0.052 C 
HETATM    8  C   UNK N   1      28.388  18.436   8.617  0.00  0.00     0.002 C 
ENDROOT
BRANCH   1   9
HETATM    9  C   UNK N   1      32.186  17.435   7.125  0.00  0.00     0.191 C 
BRANCH   9  10
HETATM   10  N   UNK N   1      33.184  16.585   7.853  0.00  0.00    -0.142 N 
HETATM   11  C   UNK N   1      33.282  15.275   7.508  0.00  0.00     0.686 C 
HETATM   12  N   UNK N   1      33.695  14.363   8.415  0.00  0.00    -0.191 N 
HETATM   13  N   UNK N   1      33.728  15.013   6.201  0.00  0.00    -0.215 N 
HETATM   14  C   UNK N   1      34.301  14.755   9.533  0.00  0.00     0.065 A 
ATOM     15  HN  UNK N   1      33.542  13.370   8.242  1.00  0.00     0.184 HD
HETATM   16  C   UNK N   1      34.624  16.100   9.689  0.00  0.00     0.060 A 
HETATM   17  C   UNK N   1      34.692  13.823  10.475  0.00  0.00     0.031 A 
HETATM   18  C   UNK N   1      35.355  16.528  10.787  0.00  0.00     0.019 A 
HETATM   19  C   UNK N   1      34.099  17.010   8.808  0.00  0.00     0.274 C 
HETATM   20  C   UNK N   1      35.700  15.609  11.768  0.00  0.00     0.001 A 
HETATM   21  C   UNK N   1      35.360  14.259  11.616  0.00  0.00     0.002 A 
HETATM   22  O   UNK N   1      34.447  18.166   8.908  0.00  0.00    -0.266 OA
HETATM   23  C   UNK N   1      34.268  13.715   5.894  0.00  0.00     0.141 C 
HETATM   24  C   UNK N   1      33.938  16.058   5.225  0.00  0.00     0.165 C 
HETATM   25  C   UNK N   1      33.505  13.197   4.711  0.00  0.00     0.022 C 
HETATM   26  C   UNK N   1      33.544  14.245   3.610  0.00  0.00     0.028 C 
HETATM   27  C   UNK N   1      33.070  15.620   4.089  0.00  0.00     0.092 C 
BRANCH  27  28
HETATM   28  N   UNK N   1      33.102  16.490   2.941  0.00  0.00    -0.424 N 
HETATM   29  H   UNK N   1      33.921  16.594   2.342  0.00  0.00     0.150 HD
HETATM   30  H   UNK N   1      32.264  17.028   2.716  0.00  0.00     0.150 HD
ENDBRANCH  27  28
ENDBRANCH   9  10
ENDBRANCH   1   9
TORSDOF 3
ENDMDL
MODEL 3
REMARK VINA RESULT:      -7.7     11.812     15.163
REMARK  3 active torsions:
REMARK  status: ('A' for Active; 'I' for Inactive)
REMARK    1  A    between atoms: C_21  and  N_1 
REMARK       I    between atoms: C_5  and  N_19 
REMARK    2  A    between atoms: C_9  and  C_17 
REMARK    3  A    between atoms: C_17  and  N_18 
ROOT
HETATM    1  C   UNK N   1      26.363  25.615  -6.469  0.00  0.00    -0.018 C 
HETATM    2  C   UNK N   1      25.968  24.293  -6.715  0.00  0.00     0.010 C 
HETATM    3  C   UNK N   1      25.504  23.951  -7.984  0.00  0.00     0.001 C 
HETATM    4  C   UNK N   1      26.035  26.173  -8.781  0.00  0.00     0.023 C 
HETATM    5  C   UNK N   1      27.343  27.653  -7.342  0.00  0.00     0.100 C 
HETATM    6  N   UNK N   1      28.009  28.575  -7.164  0.00  0.00    -0.191 NA
HETATM    7  C   UNK N   1      26.524  26.498  -7.523  0.00  0.00     0.052 C 
HETATM    8  C   UNK N   1      25.449  24.923  -8.991  0.00  0.00     0.002 C 
ENDROOT
BRANCH   1   9
HETATM    9  C   UNK N   1      26.406  26.171  -5.095  0.00  0.00     0.191 C 
BRANCH   9  10
HETATM   10  N   UNK N   1      27.592  25.695  -4.310  0.00  0.00    -0.142 N 
HETATM   11  C   UNK N   1      28.709  26.468  -4.305  0.00  0.00     0.686 C 
HETATM   12  N   UNK N   1      29.924  25.904  -4.128  0.00  0.00    -0.191 N 
HETATM   13  N   UNK N   1      28.580  27.732  -3.705  0.00  0.00    -0.215 N 
HETATM   14  C   UNK N   1      30.026  24.665  -3.652  0.00  0.00     0.065 A 
ATOM     15  HN  UNK N   1      30.765  26.430  -4.361  1.00  0.00     0.184 HD
HETATM   16  C   UNK N   1      28.877  24.015  -3.212  0.00  0.00     0.060 A 
HETATM   17  C   UNK N   1      31.268  24.079  -3.505  0.00  0.00     0.031 A 
HETATM   18  C   UNK N   1      28.959  22.770  -2.605  0.00  0.00     0.019 A 
HETATM   19  C   UNK N   1      27.656  24.566  -3.502  0.00  0.00     0.274 C 
HETATM   20  C   UNK N   1      30.195  22.147  -2.508  0.00  0.00     0.001 A 
HETATM   21  C   UNK N   1      31.347  22.797  -2.965  0.00  0.00     0.002 A 
HETATM   22  O   UNK N   1      26.668  24.032  -3.049  0.00  0.00    -0.266 OA
HETATM   23  C   UNK N   1      29.766  28.422  -3.270  0.00  0.00     0.141 C 
HETATM   24  C   UNK N   1      27.313  28.252  -3.244  0.00  0.00     0.165 C 
HETATM   25  C   UNK N   1      29.734  29.781  -3.905  0.00  0.00     0.022 C 
HETATM   26  C   UNK N   1      28.396  30.433  -3.594  0.00  0.00     0.028 C 
HETATM   27  C   UNK N   1      27.208  29.549  -3.981  0.00  0.00     0.092 C 
BRANCH  27  28
HETATM   28  N   UNK N   1      26.018  30.308  -3.690  0.00  0.00    -0.424 N 
HETATM   29  H   UNK N   1      26.033  31.203  -3.202  0.00  0.00     0.150 HD
HETATM   30  H   UNK N   1      25.117  29.931  -3.986  0.00  0.00     0.150 HD
ENDBRANCH  27  28
ENDBRANCH   9  10
ENDBRANCH   1   9
TORSDOF 3
ENDMDL
MODEL 4
REMARK VINA RESULT:      -7.7      1.286      2.180
REMARK  3 active torsions:
REMARK  status: ('A' for Active; 'I' for Inactive)
REMARK    1  A    between atoms: C_21  and  N_1 
REMARK       I    between atoms: C_5  and  N_19 
REMARK    2  A    between atoms: C_9  and  C_17 
REMARK    3  A    between atoms: C_17  and  N_18 
ROOT
HETATM    1  C   UNK N   1      31.332  15.932   5.237  0.00  0.00    -0.018 C 
HETATM    2  C   UNK N   1      31.548  15.219   4.050  0.00  0.00     0.010 C 
HETATM    3  C   UNK N   1      32.436  15.731   3.104  0.00  0.00     0.001 C 
HETATM    4  C   UNK N   1      33.028  17.517   4.626  0.00  0.00     0.023 C 
HETATM    5  C   UNK N   1      32.248  17.396   6.938  0.00  0.00     0.100 C 
HETATM    6  N   UNK N   1      32.291  17.703   8.047  0.00  0.00    -0.191 NA
HETATM    7  C   UNK N   1      32.165  16.985   5.573  0.00  0.00     0.052 C 
HETATM    8  C   UNK N   1      33.104  16.936   3.359  0.00  0.00     0.002 C 
ENDROOT
BRANCH   1   9
HETATM    9  C   UNK N   1      30.106  15.738   6.048  0.00  0.00     0.191 C 
BRANCH   9  10
HETATM   10  N   UNK N   1      29.053  16.767   5.768  0.00  0.00    -0.142 N 
HETATM   11  C   UNK N   1      28.516  16.812   4.521  0.00  0.00     0.686 C 
HETATM   12  N   UNK N   1      28.027  17.972   4.033  0.00  0.00    -0.191 N 
HETATM   13  N   UNK N   1      27.784  15.679   4.124  0.00  0.00    -0.215 N 
HETATM   14  C   UNK N   1      27.775  18.991   4.851  0.00  0.00     0.065 A 
ATOM     15  HN  UNK N   1      27.850  18.068   3.033  1.00  0.00     0.184 HD
HETATM   16  C   UNK N   1      27.892  18.798   6.225  0.00  0.00     0.060 A 
HETATM   17  C   UNK N   1      27.307  20.189   4.346  0.00  0.00     0.031 A 
HETATM   18  C   UNK N   1      27.528  19.799   7.113  0.00  0.00     0.019 A 
HETATM   19  C   UNK N   1      28.490  17.651   6.680  0.00  0.00     0.274 C 
HETATM   20  C   UNK N   1      27.115  21.026   6.613  0.00  0.00     0.001 A 
HETATM   21  C   UNK N   1      27.013  21.224   5.231  0.00  0.00     0.002 A 
HETATM   22  O   UNK N   1      28.518  17.459   7.875  0.00  0.00    -0.266 OA
HETATM   23  C   UNK N   1      26.844  15.800   3.042  0.00  0.00     0.141 C 
HETATM   24  C   UNK N   1      27.715  14.476   4.923  0.00  0.00     0.165 C 
HETATM   25  C   UNK N   1      27.195  14.739   2.042  0.00  0.00     0.022 C 
HETATM   26  C   UNK N   1      27.264  13.399   2.758  0.00  0.00     0.028 C 
HETATM   27  C   UNK N   1      28.197  13.428   3.971  0.00  0.00     0.092 C 
BRANCH  27  28
HETATM   28  N   UNK N   1      28.212  12.092   4.511  0.00  0.00    -0.424 N 
HETATM   29  H   UNK N   1      28.783  11.820   5.311  0.00  0.00     0.150 HD
HETATM   30  H   UNK N   1      27.623  11.384   4.073  0.00  0.00     0.150 HD
ENDBRANCH  27  28
ENDBRANCH   9  10
ENDBRANCH   1   9
TORSDOF 3
ENDMDL
MODEL 5
REMARK VINA RESULT:      -7.5      1.448      1.958
REMARK  3 active torsions:
REMARK  status: ('A' for Active; 'I' for Inactive)
REMARK    1  A    between atoms: C_21  and  N_1 
REMARK       I    between atoms: C_5  and  N_19 
REMARK    2  A    between atoms: C_9  and  C_17 
REMARK    3  A    between atoms: C_17  and  N_18 
ROOT
HETATM    1  C   UNK N   1      32.224  16.097   6.923  0.00  0.00    -0.018 C 
HETATM    2  C   UNK N   1      32.719  17.281   6.360  0.00  0.00     0.010 C 
HETATM    3  C   UNK N   1      33.526  18.113   7.135  0.00  0.00     0.001 C 
HETATM    4  C   UNK N   1      33.503  16.477   8.918  0.00  0.00     0.023 C 
HETATM    5  C   UNK N   1      32.579  14.261   8.465  0.00  0.00     0.100 C 
HETATM    6  N   UNK N   1      32.444  13.143   8.706  0.00  0.00    -0.191 NA
HETATM    7  C   UNK N   1      32.725  15.641   8.130  0.00  0.00     0.052 C 
HETATM    8  C   UNK N   1      33.837  17.750   8.451  0.00  0.00     0.002 C 
ENDROOT
BRANCH   1   9
HETATM    9  C   UNK N   1      31.022  15.421   6.378  0.00  0.00     0.191 C 
BRANCH   9  10
HETATM   10  N   UNK N   1      29.930  16.380   6.011  0.00  0.00    -0.142 N 
HETATM   11  C   UNK N   1      29.529  16.428   4.714  0.00  0.00     0.686 C 
HETATM   12  N   UNK N   1      29.008  17.566   4.205  0.00  0.00    -0.191 N 
HETATM   13  N   UNK N   1      28.932  15.260   4.209  0.00  0.00    -0.215 N 
HETATM   14  C   UNK N   1      28.592  18.535   5.018  0.00  0.00     0.065 A 
ATOM     15  HN  UNK N   1      28.933  17.683   3.195  1.00  0.00     0.184 HD
HETATM   16  C   UNK N   1      28.575  18.303   6.390  0.00  0.00     0.060 A 
HETATM   17  C   UNK N   1      28.091  19.712   4.495  0.00  0.00     0.031 A 
HETATM   18  C   UNK N   1      28.042  19.245   7.258  0.00  0.00     0.019 A 
HETATM   19  C   UNK N   1      29.205  17.188   6.878  0.00  0.00     0.274 C 
HETATM   20  C   UNK N   1      27.593  20.454   6.748  0.00  0.00     0.001 A 
HETATM   21  C   UNK N   1      27.626  20.691   5.369  0.00  0.00     0.002 A 
HETATM   22  O   UNK N   1      29.119  16.958   8.064  0.00  0.00    -0.266 OA
HETATM   23  C   UNK N   1      28.108  15.348   3.033  0.00  0.00     0.141 C 
HETATM   24  C   UNK N   1      28.869  14.028   4.963  0.00  0.00     0.165 C 
HETATM   25  C   UNK N   1      28.645  14.351   2.050  0.00  0.00     0.022 C 
HETATM   26  C   UNK N   1      28.738  12.995   2.734  0.00  0.00     0.028 C 
HETATM   27  C   UNK N   1      29.529  13.051   4.043  0.00  0.00     0.092 C 
BRANCH  27  28
HETATM   28  N   UNK N   1      29.588  11.702   4.547  0.00  0.00    -0.424 N 
HETATM   29  H   UNK N   1      29.649  10.883   3.942  0.00  0.00     0.150 HD
HETATM   30  H   UNK N   1      29.568  11.559   5.557  0.00  0.00     0.150 HD
ENDBRANCH  27  28
ENDBRANCH   9  10
ENDBRANCH   1   9
TORSDOF 3
ENDMDL
MODEL 6
REMARK VINA RESULT:      -7.5      6.507      9.546
REMARK  3 active torsions:
REMARK  status: ('A' for Active; 'I' for Inactive)
REMARK    1  A    between atoms: C_21  and  N_1 
REMARK       I    between atoms: C_5  and  N_19 
REMARK    2  A    between atoms: C_9  and  C_17 
REMARK    3  A    between atoms: C_17  and  N_18 
ROOT
HETATM    1  C   UNK N   1      21.043  17.958   3.347  0.00  0.00    -0.018 C 
HETATM    2  C   UNK N   1      20.819  16.601   3.078  0.00  0.00     0.010 C 
HETATM    3  C   UNK N   1      20.241  16.239   1.862  0.00  0.00     0.001 C 
HETATM    4  C   UNK N   1      20.323  18.544   1.133  0.00  0.00     0.023 C 
HETATM    5  C   UNK N   1      21.582  20.154   2.472  0.00  0.00     0.100 C 
HETATM    6  N   UNK N   1      22.122  21.161   2.615  0.00  0.00    -0.191 NA
HETATM    7  C   UNK N   1      20.926  18.894   2.333  0.00  0.00     0.052 C 
HETATM    8  C   UNK N   1      19.905  17.228   0.929  0.00  0.00     0.002 C 
ENDROOT
BRANCH   1   9
HETATM    9  C   UNK N   1      21.192  18.462   4.733  0.00  0.00     0.191 C 
BRANCH   9  10
HETATM   10  N   UNK N   1      21.623  17.398   5.698  0.00  0.00    -0.142 N 
HETATM   11  C   UNK N   1      22.625  16.561   5.322  0.00  0.00     0.686 C 
HETATM   12  N   UNK N   1      22.690  15.310   5.828  0.00  0.00    -0.191 N 
HETATM   13  N   UNK N   1      23.882  17.156   5.123  0.00  0.00    -0.215 N 
HETATM   14  C   UNK N   1      21.987  14.987   6.911  0.00  0.00     0.065 A 
ATOM     15  HN  UNK N   1      23.282  14.612   5.379  1.00  0.00     0.184 HD
HETATM   16  C   UNK N   1      21.294  15.986   7.589  0.00  0.00     0.060 A 
HETATM   17  C   UNK N   1      22.029  13.698   7.406  0.00  0.00     0.031 A 
HETATM   18  C   UNK N   1      20.645  15.709   8.782  0.00  0.00     0.019 A 
HETATM   19  C   UNK N   1      21.160  17.214   6.995  0.00  0.00     0.274 C 
HETATM   20  C   UNK N   1      20.631  14.405   9.256  0.00  0.00     0.001 A 
HETATM   21  C   UNK N   1      21.314  13.398   8.564  0.00  0.00     0.002 A 
HETATM   22  O   UNK N   1      20.622  18.096   7.626  0.00  0.00    -0.266 OA
HETATM   23  C   UNK N   1      25.059  16.329   5.154  0.00  0.00     0.141 C 
HETATM   24  C   UNK N   1      24.085  18.587   5.170  0.00  0.00     0.165 C 
HETATM   25  C   UNK N   1      25.803  16.583   3.877  0.00  0.00     0.022 C 
HETATM   26  C   UNK N   1      26.010  18.082   3.724  0.00  0.00     0.028 C 
HETATM   27  C   UNK N   1      24.703  18.871   3.838  0.00  0.00     0.092 C 
BRANCH  27  28
HETATM   28  N   UNK N   1      25.036  20.255   3.617  0.00  0.00    -0.424 N 
HETATM   29  H   UNK N   1      24.669  20.800   2.837  0.00  0.00     0.150 HD
HETATM   30  H   UNK N   1      25.671  20.712   4.272  0.00  0.00     0.150 HD
ENDBRANCH  27  28
ENDBRANCH   9  10
ENDBRANCH   1   9
TORSDOF 3
ENDMDL
MODEL 7
REMARK VINA RESULT:      -7.5      9.184     12.090
REMARK  3 active torsions:
REMARK  status: ('A' for Active; 'I' for Inactive)
REMARK    1  A    between atoms: C_21  and  N_1 
REMARK       I    between atoms: C_5  and  N_19 
REMARK    2  A    between atoms: C_9  and  C_17 
REMARK    3  A    between atoms: C_17  and  N_18 
ROOT
HETATM    1  C   UNK N   1      37.390  10.311  13.215  0.00  0.00    -0.018 C 
HETATM    2  C   UNK N   1      38.130  10.370  14.403  0.00  0.00     0.010 C 
HETATM    3  C   UNK N   1      39.101   9.398  14.645  0.00  0.00     0.001 C 
HETATM    4  C   UNK N   1      38.725   8.473  12.441  0.00  0.00     0.023 C 
HETATM    5  C   UNK N   1      37.339   9.723  10.864  0.00  0.00     0.100 C 
HETATM    6  N   UNK N   1      36.964   9.962   9.802  0.00  0.00    -0.191 NA
HETATM    7  C   UNK N   1      37.782   9.461  12.196  0.00  0.00     0.052 C 
HETATM    8  C   UNK N   1      39.328   8.392  13.697  0.00  0.00     0.002 C 
ENDROOT
BRANCH   1   9
HETATM    9  C   UNK N   1      36.068  10.971  13.090  0.00  0.00     0.191 C 
BRANCH   9  10
HETATM   10  N   UNK N   1      35.974  12.243  13.879  0.00  0.00    -0.142 N 
HETATM   11  C   UNK N   1      36.498  13.373  13.337  0.00  0.00     0.686 C 
HETATM   12  N   UNK N   1      36.950  14.363  14.137  0.00  0.00    -0.191 N 
HETATM   13  N   UNK N   1      35.884  13.835  12.160  0.00  0.00    -0.215 N 
HETATM   14  C   UNK N   1      36.612  14.393  15.424  0.00  0.00     0.065 A 
ATOM     15  HN  UNK N   1      37.553  15.090  13.753  1.00  0.00     0.184 HD
HETATM   16  C   UNK N   1      35.682  13.473  15.899  0.00  0.00     0.060 A 
HETATM   17  C   UNK N   1      37.104  15.386  16.249  0.00  0.00     0.031 A 
HETATM   18  C   UNK N   1      35.220  13.545  17.205  0.00  0.00     0.019 A 
HETATM   19  C   UNK N   1      35.325  12.421  15.094  0.00  0.00     0.274 C 
HETATM   20  C   UNK N   1      35.753  14.502  18.056  0.00  0.00     0.001 A 
HETATM   21  C   UNK N   1      36.701  15.416  17.581  0.00  0.00     0.002 A 
HETATM   22  O   UNK N   1      34.460  11.671  15.488  0.00  0.00    -0.266 OA
HETATM   23  C   UNK N   1      36.068  15.207  11.768  0.00  0.00     0.141 C 
HETATM   24  C   UNK N   1      34.851  13.090  11.476  0.00  0.00     0.165 C 
HETATM   25  C   UNK N   1      36.576  15.190  10.357  0.00  0.00     0.022 C 
HETATM   26  C   UNK N   1      35.636  14.345   9.511  0.00  0.00     0.028 C 
HETATM   27  C   UNK N   1      35.413  12.949  10.097  0.00  0.00     0.092 C 
BRANCH  27  28
HETATM   28  N   UNK N   1      34.560  12.246   9.173  0.00  0.00    -0.424 N 
HETATM   29  H   UNK N   1      34.292  12.622   8.264  0.00  0.00     0.150 HD
HETATM   30  H   UNK N   1      34.208  11.327   9.441  0.00  0.00     0.150 HD
ENDBRANCH  27  28
ENDBRANCH   9  10
ENDBRANCH   1   9
TORSDOF 3
ENDMDL
MODEL 8
REMARK VINA RESULT:      -7.4     11.403     13.954
REMARK  3 active torsions:
REMARK  status: ('A' for Active; 'I' for Inactive)
REMARK    1  A    between atoms: C_21  and  N_1 
REMARK       I    between atoms: C_5  and  N_19 
REMARK    2  A    between atoms: C_9  and  C_17 
REMARK    3  A    between atoms: C_17  and  N_18 
ROOT
HETATM    1  C   UNK N   1      27.325  22.533  -7.141  0.00  0.00    -0.018 C 
HETATM    2  C   UNK N   1      26.037  22.844  -6.687  0.00  0.00     0.010 C 
HETATM    3  C   UNK N   1      24.962  22.062  -7.111  0.00  0.00     0.001 C 
HETATM    4  C   UNK N   1      26.494  20.567  -8.240  0.00  0.00     0.023 C 
HETATM    5  C   UNK N   1      28.890  20.817  -7.834  0.00  0.00     0.100 C 
HETATM    6  N   UNK N   1      29.974  20.428  -7.853  0.00  0.00    -0.191 NA
HETATM    7  C   UNK N   1      27.560  21.333  -7.791  0.00  0.00     0.052 C 
HETATM    8  C   UNK N   1      25.188  20.977  -7.968  0.00  0.00     0.002 C 
ENDROOT
BRANCH   1   9
HETATM    9  C   UNK N   1      28.413  23.541  -7.146  0.00  0.00     0.191 C 
BRANCH   9  10
HETATM   10  N   UNK N   1      28.213  24.618  -6.122  0.00  0.00    -0.142 N 
HETATM   11  C   UNK N   1      28.270  24.273  -4.809  0.00  0.00     0.686 C 
HETATM   12  N   UNK N   1      27.586  24.986  -3.888  0.00  0.00    -0.191 N 
HETATM   13  N   UNK N   1      29.512  23.802  -4.349  0.00  0.00    -0.215 N 
HETATM   14  C   UNK N   1      27.113  26.193  -4.190  0.00  0.00     0.065 A 
ATOM     15  HN  UNK N   1      27.430  24.597  -2.959  1.00  0.00     0.184 HD
HETATM   16  C   UNK N   1      27.451  26.763  -5.415  0.00  0.00     0.060 A 
HETATM   17  C   UNK N   1      26.384  26.906  -3.259  0.00  0.00     0.031 A 
HETATM   18  C   UNK N   1      27.074  28.062  -5.717  0.00  0.00     0.019 A 
HETATM   19  C   UNK N   1      28.053  25.977  -6.364  0.00  0.00     0.274 C 
HETATM   20  C   UNK N   1      26.290  28.764  -4.813  0.00  0.00     0.001 A 
HETATM   21  C   UNK N   1      25.937  28.184  -3.589  0.00  0.00     0.002 A 
HETATM   22  O   UNK N   1      28.410  26.501  -7.395  0.00  0.00    -0.266 OA
HETATM   23  C   UNK N   1      29.789  23.827  -2.937  0.00  0.00     0.141 C 
HETATM   24  C   UNK N   1      30.630  23.559  -5.233  0.00  0.00     0.165 C 
HETATM   25  C   UNK N   1      30.199  22.438  -2.550  0.00  0.00     0.022 C 
HETATM   26  C   UNK N   1      31.322  21.986  -3.472  0.00  0.00     0.028 C 
HETATM   27  C   UNK N   1      30.959  22.127  -4.953  0.00  0.00     0.092 C 
BRANCH  27  28
HETATM   28  N   UNK N   1      32.078  21.613  -5.701  0.00  0.00    -0.424 N 
HETATM   29  H   UNK N   1      32.307  20.621  -5.752  0.00  0.00     0.150 HD
HETATM   30  H   UNK N   1      32.670  22.275  -6.205  0.00  0.00     0.150 HD
ENDBRANCH  27  28
ENDBRANCH   9  10
ENDBRANCH   1   9
TORSDOF 3
ENDMDL
MODEL 9
REMARK VINA RESULT:      -7.3      3.474      6.055
REMARK  3 active torsions:
REMARK  status: ('A' for Active; 'I' for Inactive)
REMARK    1  A    between atoms: C_21  and  N_1 
REMARK       I    between atoms: C_5  and  N_19 
REMARK    2  A    between atoms: C_9  and  C_17 
REMARK    3  A    between atoms: C_17  and  N_18 
ROOT
HETATM    1  C   UNK N   1      33.646  14.721   9.147  0.00  0.00    -0.018 C 
HETATM    2  C   UNK N   1      33.238  13.383   9.066  0.00  0.00     0.010 C 
HETATM    3  C   UNK N   1      34.207  12.379   9.056  0.00  0.00     0.001 C 
HETATM    4  C   UNK N   1      35.931  14.037   9.422  0.00  0.00     0.023 C 
HETATM    5  C   UNK N   1      35.264  16.318   9.989  0.00  0.00     0.100 C 
HETATM    6  N   UNK N   1      35.476  17.368  10.411  0.00  0.00    -0.191 NA
HETATM    7  C   UNK N   1      34.959  15.027   9.461  0.00  0.00     0.052 C 
HETATM    8  C   UNK N   1      35.562  12.721   9.138  0.00  0.00     0.002 C 
ENDROOT
BRANCH   1   9
HETATM    9  C   UNK N   1      32.771  15.829   8.695  0.00  0.00     0.191 C 
BRANCH   9  10
HETATM   10  N   UNK N   1      32.456  15.763   7.231  0.00  0.00    -0.142 N 
HETATM   11  C   UNK N   1      31.158  15.601   6.861  0.00  0.00     0.686 C 
HETATM   12  N   UNK N   1      30.855  14.995   5.693  0.00  0.00    -0.191 N 
HETATM   13  N   UNK N   1      30.287  16.652   7.195  0.00  0.00    -0.215 N 
HETATM   14  C   UNK N   1      31.789  14.836   4.758  0.00  0.00     0.065 A 
ATOM     15  HN  UNK N   1      29.907  14.659   5.527  1.00  0.00     0.184 HD
HETATM   16  C   UNK N   1      33.038  15.421   4.945  0.00  0.00     0.060 A 
HETATM   17  C   UNK N   1      31.486  14.186   3.577  0.00  0.00     0.031 A 
HETATM   18  C   UNK N   1      33.998  15.373   3.945  0.00  0.00     0.019 A 
HETATM   19  C   UNK N   1      33.347  15.933   6.179  0.00  0.00     0.274 C 
HETATM   20  C   UNK N   1      33.723  14.670   2.780  0.00  0.00     0.001 A 
HETATM   21  C   UNK N   1      32.472  14.070   2.601  0.00  0.00     0.002 A 
HETATM   22  O   UNK N   1      34.406  16.505   6.309  0.00  0.00    -0.266 OA
HETATM   23  C   UNK N   1      29.038  16.775   6.490  0.00  0.00     0.141 C 
HETATM   24  C   UNK N   1      30.696  17.777   8.005  0.00  0.00     0.165 C 
HETATM   25  C   UNK N   1      27.957  16.824   7.528  0.00  0.00     0.022 C 
HETATM   26  C   UNK N   1      28.297  17.912   8.535  0.00  0.00     0.028 C 
HETATM   27  C   UNK N   1      29.702  17.751   9.122  0.00  0.00     0.092 C 
BRANCH  27  28
HETATM   28  N   UNK N   1      29.866  18.803  10.093  0.00  0.00    -0.424 N 
HETATM   29  H   UNK N   1      29.615  18.700  11.076  0.00  0.00     0.150 HD
HETATM   30  H   UNK N   1      30.251  19.695   9.782  0.00  0.00     0.150 HD
ENDBRANCH  27  28
ENDBRANCH   9  10
ENDBRANCH   1   9
TORSDOF 3
ENDMDL
