REMARK  5 active torsions:
REMARK  status: ('A' for Active; 'I' for Inactive)
REMARK    1  A    between atoms: C_2  and  O_3 
REMARK    2  A    between atoms: C_2  and  C_5 
REMARK    3  A    between atoms: C_7  and  O_8 
REMARK    4  A    between atoms: C_11  and  O_12 
REMARK    5  A    between atoms: C_14  and  O_15 
ROOT
HETATM    1  C   UNK N   1       1.299   0.792   0.068  0.00  0.00     0.044 A 
HETATM    2  C   UNK N   1       1.265  -0.606   0.094  0.00  0.00     0.057 A 
HETATM    3  C   UNK N   1       0.050  -1.306   0.049  0.00  0.00     0.105 A 
HETATM    4  C   UNK N   1       0.087   1.492   0.001  0.00  0.00     0.057 A 
HETATM    5  C   UNK N   1      -1.143   0.825  -0.041  0.00  0.00     0.105 A 
HETATM    6  C   UNK N   1      -1.156  -0.594  -0.017  0.00  0.00     0.133 A 
ENDROOT
BRANCH   1   7
HETATM    7  C   UNK N   1       2.628   1.481   0.117  0.00  0.00     0.293 C 
HETATM    8  O   UNK N   1       3.632   0.794   0.234  0.00  0.00    -0.259 OA
BRANCH   7   9
HETATM    9  O   UNK N   1       2.790   2.831   0.035  0.00  0.00    -0.323 OA
HETATM   10  C   UNK N   1       1.789   3.750  -0.171  0.00  0.00     0.213 C 
ENDBRANCH   7   9
ENDBRANCH   1   7
BRANCH   3  11
HETATM   11  O   UNK N   1       0.023  -2.661   0.066  0.00  0.00    -0.353 OA
HETATM   12  C   UNK N   1       1.159  -3.438   0.111  0.00  0.00     0.210 C 
ENDBRANCH   3  11
BRANCH   5  13
HETATM   13  O   UNK N   1      -2.269   1.584  -0.103  0.00  0.00    -0.353 OA
HETATM   14  C   UNK N   1      -3.557   1.101  -0.151  0.00  0.00     0.210 C 
ENDBRANCH   5  13
BRANCH   6  15
HETATM   15  O   UNK N   1      -2.314  -1.281  -0.059  0.00  0.00    -0.356 OA
HETATM   16  H   UNK N   1      -3.130  -0.822  -0.088  0.00  0.00     0.218 HD
ENDBRANCH   6  15
TORSDOF 5
