MODEL 1
REMARK VINA RESULT:      -5.2      0.000      0.000
REMARK  5 active torsions:
REMARK  status: ('A' for Active; 'I' for Inactive)
REMARK    1  A    between atoms: C_2  and  O_3 
REMARK    2  A    between atoms: C_2  and  C_5 
REMARK    3  A    between atoms: C_7  and  O_8 
REMARK    4  A    between atoms: C_11  and  O_12 
REMARK    5  A    between atoms: C_14  and  O_15 
ROOT
HETATM    1  C   UNK N   1      33.571  17.802   7.911  0.00  0.00     0.044 A 
HETATM    2  C   UNK N   1      32.305  17.899   8.498  0.00  0.00     0.057 A 
HETATM    3  C   UNK N   1      31.149  17.513   7.803  0.00  0.00     0.105 A 
HETATM    4  C   UNK N   1      33.668  17.313   6.601  0.00  0.00     0.057 A 
HETATM    5  C   UNK N   1      32.534  16.923   5.879  0.00  0.00     0.105 A 
HETATM    6  C   UNK N   1      31.259  17.026   6.494  0.00  0.00     0.133 A 
ENDROOT
BRANCH   1   7
HETATM    7  C   UNK N   1      34.767  18.229   8.705  0.00  0.00     0.293 C 
HETATM    8  O   UNK N   1      35.331  19.267   8.389  0.00  0.00    -0.259 OA
BRANCH   7   9
HETATM    9  O   UNK N   1      35.267  17.534   9.764  0.00  0.00    -0.323 OA
HETATM   10  C   UNK N   1      35.245  16.167   9.911  0.00  0.00     0.213 C 
ENDBRANCH   7   9
ENDBRANCH   1   7
BRANCH   3  11
HETATM   11  O   UNK N   1      29.925  17.601   8.380  0.00  0.00    -0.353 OA
HETATM   12  C   UNK N   1      29.631  18.485   9.394  0.00  0.00     0.210 C 
ENDBRANCH   3  11
BRANCH   5  13
HETATM   13  O   UNK N   1      32.722  16.462   4.614  0.00  0.00    -0.353 OA
HETATM   14  C   UNK N   1      32.691  17.228   3.471  0.00  0.00     0.210 C 
ENDBRANCH   5  13
BRANCH   6  15
HETATM   15  O   UNK N   1      30.139  16.660   5.840  0.00  0.00    -0.356 OA
HETATM   16  H   UNK N   1      29.399  16.344   6.320  0.00  0.00     0.218 HD
ENDBRANCH   6  15
TORSDOF 5
ENDMDL
MODEL 2
REMARK VINA RESULT:      -5.2      0.569      3.340
REMARK  5 active torsions:
REMARK  status: ('A' for Active; 'I' for Inactive)
REMARK    1  A    between atoms: C_2  and  O_3 
REMARK    2  A    between atoms: C_2  and  C_5 
REMARK    3  A    between atoms: C_7  and  O_8 
REMARK    4  A    between atoms: C_11  and  O_12 
REMARK    5  A    between atoms: C_14  and  O_15 
ROOT
HETATM    1  C   UNK N   1      33.596  17.863   7.884  0.00  0.00     0.044 A 
HETATM    2  C   UNK N   1      33.805  17.478   6.556  0.00  0.00     0.057 A 
HETATM    3  C   UNK N   1      32.735  17.095   5.732  0.00  0.00     0.105 A 
HETATM    4  C   UNK N   1      32.288  17.856   8.388  0.00  0.00     0.057 A 
HETATM    5  C   UNK N   1      31.200  17.476   7.595  0.00  0.00     0.105 A 
HETATM    6  C   UNK N   1      31.432  17.092   6.248  0.00  0.00     0.133 A 
ENDROOT
BRANCH   1   7
HETATM    7  C   UNK N   1      34.778  18.263   8.712  0.00  0.00     0.293 C 
HETATM    8  O   UNK N   1      35.336  19.319   8.454  0.00  0.00    -0.259 OA
BRANCH   7   9
HETATM    9  O   UNK N   1      35.272  17.521   9.743  0.00  0.00    -0.323 OA
HETATM   10  C   UNK N   1      35.092  16.170   9.921  0.00  0.00     0.213 C 
ENDBRANCH   7   9
ENDBRANCH   1   7
BRANCH   3  11
HETATM   11  O   UNK N   1      32.942  16.731   4.443  0.00  0.00    -0.353 OA
HETATM   12  C   UNK N   1      33.523  15.536   4.080  0.00  0.00     0.210 C 
ENDBRANCH   3  11
BRANCH   5  13
HETATM   13  O   UNK N   1      29.966  17.497   8.166  0.00  0.00    -0.353 OA
HETATM   14  C   UNK N   1      29.647  18.109   9.357  0.00  0.00     0.210 C 
ENDBRANCH   5  13
BRANCH   6  15
HETATM   15  O   UNK N   1      30.416  16.721   5.444  0.00  0.00    -0.356 OA
HETATM   16  H   UNK N   1      29.836  17.368   5.095  0.00  0.00     0.218 HD
ENDBRANCH   6  15
TORSDOF 5
ENDMDL
MODEL 3
REMARK VINA RESULT:      -4.8     13.429     15.575
REMARK  5 active torsions:
REMARK  status: ('A' for Active; 'I' for Inactive)
REMARK    1  A    between atoms: C_2  and  O_3 
REMARK    2  A    between atoms: C_2  and  C_5 
REMARK    3  A    between atoms: C_7  and  O_8 
REMARK    4  A    between atoms: C_11  and  O_12 
REMARK    5  A    between atoms: C_14  and  O_15 
ROOT
HETATM    1  C   UNK N   1      27.066  24.744  -3.703  0.00  0.00     0.044 A 
HETATM    2  C   UNK N   1      26.701  25.999  -3.203  0.00  0.00     0.057 A 
HETATM    3  C   UNK N   1      25.837  26.844  -3.916  0.00  0.00     0.105 A 
HETATM    4  C   UNK N   1      26.554  24.341  -4.943  0.00  0.00     0.057 A 
HETATM    5  C   UNK N   1      25.693  25.161  -5.682  0.00  0.00     0.105 A 
HETATM    6  C   UNK N   1      25.333  26.429  -5.156  0.00  0.00     0.133 A 
ENDROOT
BRANCH   1   7
HETATM    7  C   UNK N   1      27.990  23.888  -2.893  0.00  0.00     0.293 C 
HETATM    8  O   UNK N   1      27.533  23.296  -1.926  0.00  0.00    -0.259 OA
BRANCH   7   9
HETATM    9  O   UNK N   1      29.314  23.722  -3.170  0.00  0.00    -0.323 OA
HETATM   10  C   UNK N   1      30.206  22.991  -2.423  0.00  0.00     0.213 C 
ENDBRANCH   7   9
ENDBRANCH   1   7
BRANCH   3  11
HETATM   11  O   UNK N   1      25.481  28.055  -3.423  0.00  0.00    -0.353 OA
HETATM   12  C   UNK N   1      26.284  29.170  -3.507  0.00  0.00     0.210 C 
ENDBRANCH   3  11
BRANCH   5  13
HETATM   13  O   UNK N   1      25.247  24.690  -6.877  0.00  0.00    -0.353 OA
HETATM   14  C   UNK N   1      26.019  24.500  -8.000  0.00  0.00     0.210 C 
ENDBRANCH   5  13
BRANCH   6  15
HETATM   15  O   UNK N   1      24.505  27.252  -5.829  0.00  0.00    -0.356 OA
HETATM   16  H   UNK N   1      24.685  28.171  -5.863  0.00  0.00     0.218 HD
ENDBRANCH   6  15
TORSDOF 5
ENDMDL
MODEL 4
REMARK VINA RESULT:      -4.8     13.431     15.835
REMARK  5 active torsions:
REMARK  status: ('A' for Active; 'I' for Inactive)
REMARK    1  A    between atoms: C_2  and  O_3 
REMARK    2  A    between atoms: C_2  and  C_5 
REMARK    3  A    between atoms: C_7  and  O_8 
REMARK    4  A    between atoms: C_11  and  O_12 
REMARK    5  A    between atoms: C_14  and  O_15 
ROOT
HETATM    1  C   UNK N   1      27.113  24.727  -3.752  0.00  0.00     0.044 A 
HETATM    2  C   UNK N   1      26.600  24.346  -4.996  0.00  0.00     0.057 A 
HETATM    3  C   UNK N   1      25.748  25.191  -5.722  0.00  0.00     0.105 A 
HETATM    4  C   UNK N   1      26.756  25.979  -3.233  0.00  0.00     0.057 A 
HETATM    5  C   UNK N   1      25.905  26.845  -3.930  0.00  0.00     0.105 A 
HETATM    6  C   UNK N   1      25.398  26.441  -5.192  0.00  0.00     0.133 A 
ENDROOT
BRANCH   1   7
HETATM    7  C   UNK N   1      28.019  23.780  -3.026  0.00  0.00     0.293 C 
HETATM    8  O   UNK N   1      27.654  23.346  -1.943  0.00  0.00    -0.259 OA
BRANCH   7   9
HETATM    9  O   UNK N   1      29.228  23.367  -3.500  0.00  0.00    -0.323 OA
HETATM   10  C   UNK N   1      30.436  23.524  -2.865  0.00  0.00     0.213 C 
ENDBRANCH   7   9
ENDBRANCH   1   7
BRANCH   3  11
HETATM   11  O   UNK N   1      25.260  24.820  -6.931  0.00  0.00    -0.353 OA
HETATM   12  C   UNK N   1      25.891  23.914  -7.754  0.00  0.00     0.210 C 
ENDBRANCH   3  11
BRANCH   5  13
HETATM   13  O   UNK N   1      25.610  28.039  -3.351  0.00  0.00    -0.353 OA
HETATM   14  C   UNK N   1      26.321  29.206  -3.518  0.00  0.00     0.210 C 
ENDBRANCH   5  13
BRANCH   6  15
HETATM   15  O   UNK N   1      24.578  27.240  -5.902  0.00  0.00    -0.356 OA
HETATM   16  H   UNK N   1      23.740  26.926  -6.178  0.00  0.00     0.218 HD
ENDBRANCH   6  15
TORSDOF 5
ENDMDL
MODEL 5
REMARK VINA RESULT:      -4.7     11.039     13.533
REMARK  5 active torsions:
REMARK  status: ('A' for Active; 'I' for Inactive)
REMARK    1  A    between atoms: C_2  and  O_3 
REMARK    2  A    between atoms: C_2  and  C_5 
REMARK    3  A    between atoms: C_7  and  O_8 
REMARK    4  A    between atoms: C_11  and  O_12 
REMARK    5  A    between atoms: C_14  and  O_15 
ROOT
HETATM    1  C   UNK N   1      30.764  20.890  -5.290  0.00  0.00     0.044 A 
HETATM    2  C   UNK N   1      31.999  20.239  -5.225  0.00  0.00     0.057 A 
HETATM    3  C   UNK N   1      32.822  20.349  -4.094  0.00  0.00     0.105 A 
HETATM    4  C   UNK N   1      30.356  21.669  -4.198  0.00  0.00     0.057 A 
HETATM    5  C   UNK N   1      31.154  21.804  -3.056  0.00  0.00     0.105 A 
HETATM    6  C   UNK N   1      32.404  21.132  -3.008  0.00  0.00     0.133 A 
ENDROOT
BRANCH   1   7
HETATM    7  C   UNK N   1      29.930  20.732  -6.525  0.00  0.00     0.293 C 
HETATM    8  O   UNK N   1      28.993  21.498  -6.692  0.00  0.00    -0.259 OA
BRANCH   7   9
HETATM    9  O   UNK N   1      30.155  19.786  -7.479  0.00  0.00    -0.323 OA
HETATM   10  C   UNK N   1      29.311  18.749  -7.797  0.00  0.00     0.213 C 
ENDBRANCH   7   9
ENDBRANCH   1   7
BRANCH   3  11
HETATM   11  O   UNK N   1      34.015  19.709  -4.032  0.00  0.00    -0.353 OA
HETATM   12  C   UNK N   1      34.152  18.350  -4.208  0.00  0.00     0.210 C 
ENDBRANCH   3  11
BRANCH   5  13
HETATM   13  O   UNK N   1      30.681  22.580  -2.046  0.00  0.00    -0.353 OA
HETATM   14  C   UNK N   1      29.379  23.002  -1.904  0.00  0.00     0.210 C 
ENDBRANCH   5  13
BRANCH   6  15
HETATM   15  O   UNK N   1      33.205  21.228  -1.930  0.00  0.00    -0.356 OA
HETATM   16  H   UNK N   1      33.696  22.012  -1.779  0.00  0.00     0.218 HD
ENDBRANCH   6  15
TORSDOF 5
ENDMDL
MODEL 6
REMARK VINA RESULT:      -4.7      8.501     10.890
REMARK  5 active torsions:
REMARK  status: ('A' for Active; 'I' for Inactive)
REMARK    1  A    between atoms: C_2  and  O_3 
REMARK    2  A    between atoms: C_2  and  C_5 
REMARK    3  A    between atoms: C_7  and  O_8 
REMARK    4  A    between atoms: C_11  and  O_12 
REMARK    5  A    between atoms: C_14  and  O_15 
ROOT
HETATM    1  C   UNK N   1      22.639  18.653   4.830  0.00  0.00     0.044 A 
HETATM    2  C   UNK N   1      24.037  18.660   4.825  0.00  0.00     0.057 A 
HETATM    3  C   UNK N   1      24.759  19.413   3.887  0.00  0.00     0.105 A 
HETATM    4  C   UNK N   1      21.961  19.416   3.869  0.00  0.00     0.057 A 
HETATM    5  C   UNK N   1      22.650  20.175   2.917  0.00  0.00     0.105 A 
HETATM    6  C   UNK N   1      24.069  20.171   2.931  0.00  0.00     0.133 A 
ENDROOT
BRANCH   1   7
HETATM    7  C   UNK N   1      21.926  17.830   5.858  0.00  0.00     0.293 C 
HETATM    8  O   UNK N   1      21.359  18.410   6.772  0.00  0.00    -0.259 OA
BRANCH   7   9
HETATM    9  O   UNK N   1      21.865  16.469   5.836  0.00  0.00    -0.323 OA
HETATM   10  C   UNK N   1      22.582  15.620   6.645  0.00  0.00     0.213 C 
ENDBRANCH   7   9
ENDBRANCH   1   7
BRANCH   3  11
HETATM   11  O   UNK N   1      26.115  19.422   3.892  0.00  0.00    -0.353 OA
HETATM   12  C   UNK N   1      26.861  20.167   4.777  0.00  0.00     0.210 C 
ENDBRANCH   3  11
BRANCH   5  13
HETATM   13  O   UNK N   1      21.911  20.883   2.021  0.00  0.00    -0.353 OA
HETATM   14  C   UNK N   1      20.927  20.365   1.211  0.00  0.00     0.210 C 
ENDBRANCH   5  13
BRANCH   6  15
HETATM   15  O   UNK N   1      24.777  20.888   2.037  0.00  0.00    -0.356 OA
HETATM   16  H   UNK N   1      25.554  21.337   2.306  0.00  0.00     0.218 HD
ENDBRANCH   6  15
TORSDOF 5
ENDMDL
MODEL 7
REMARK VINA RESULT:      -4.7      1.789      3.774
REMARK  5 active torsions:
REMARK  status: ('A' for Active; 'I' for Inactive)
REMARK    1  A    between atoms: C_2  and  O_3 
REMARK    2  A    between atoms: C_2  and  C_5 
REMARK    3  A    between atoms: C_7  and  O_8 
REMARK    4  A    between atoms: C_11  and  O_12 
REMARK    5  A    between atoms: C_14  and  O_15 
ROOT
HETATM    1  C   UNK N   1      32.595  17.376   6.684  0.00  0.00     0.044 A 
HETATM    2  C   UNK N   1      31.950  17.288   5.446  0.00  0.00     0.057 A 
HETATM    3  C   UNK N   1      30.551  17.247   5.355  0.00  0.00     0.105 A 
HETATM    4  C   UNK N   1      31.814  17.419   7.846  0.00  0.00     0.057 A 
HETATM    5  C   UNK N   1      30.416  17.376   7.791  0.00  0.00     0.105 A 
HETATM    6  C   UNK N   1      29.781  17.290   6.525  0.00  0.00     0.133 A 
ENDROOT
BRANCH   1   7
HETATM    7  C   UNK N   1      34.092  17.418   6.714  0.00  0.00     0.293 C 
HETATM    8  O   UNK N   1      34.633  18.304   7.358  0.00  0.00    -0.259 OA
BRANCH   7   9
HETATM    9  O   UNK N   1      34.893  16.523   6.071  0.00  0.00    -0.323 OA
HETATM   10  C   UNK N   1      35.095  15.214   6.441  0.00  0.00     0.213 C 
ENDBRANCH   7   9
ENDBRANCH   1   7
BRANCH   3  11
HETATM   11  O   UNK N   1      29.931  17.169   4.152  0.00  0.00    -0.353 OA
HETATM   12  C   UNK N   1      29.954  16.042   3.362  0.00  0.00     0.210 C 
ENDBRANCH   3  11
BRANCH   5  13
HETATM   13  O   UNK N   1      29.738  17.421   8.969  0.00  0.00    -0.353 OA
HETATM   14  C   UNK N   1      29.577  18.538   9.757  0.00  0.00     0.210 C 
ENDBRANCH   5  13
BRANCH   6  15
HETATM   15  O   UNK N   1      28.438  17.249   6.421  0.00  0.00    -0.356 OA
HETATM   16  H   UNK N   1      28.003  16.430   6.292  0.00  0.00     0.218 HD
ENDBRANCH   6  15
TORSDOF 5
ENDMDL
MODEL 8
REMARK VINA RESULT:      -4.6     11.384     13.752
REMARK  5 active torsions:
REMARK  status: ('A' for Active; 'I' for Inactive)
REMARK    1  A    between atoms: C_2  and  O_3 
REMARK    2  A    between atoms: C_2  and  C_5 
REMARK    3  A    between atoms: C_7  and  O_8 
REMARK    4  A    between atoms: C_11  and  O_12 
REMARK    5  A    between atoms: C_14  and  O_15 
ROOT
HETATM    1  C   UNK N   1      29.404  23.032  -3.496  0.00  0.00     0.044 A 
HETATM    2  C   UNK N   1      28.343  23.824  -3.045  0.00  0.00     0.057 A 
HETATM    3  C   UNK N   1      27.361  24.298  -3.927  0.00  0.00     0.105 A 
HETATM    4  C   UNK N   1      29.475  22.718  -4.860  0.00  0.00     0.057 A 
HETATM    5  C   UNK N   1      28.514  23.178  -5.768  0.00  0.00     0.105 A 
HETATM    6  C   UNK N   1      27.444  23.978  -5.290  0.00  0.00     0.133 A 
ENDROOT
BRANCH   1   7
HETATM    7  C   UNK N   1      30.420  22.555  -2.504  0.00  0.00     0.293 C 
HETATM    8  O   UNK N   1      30.525  23.161  -1.447  0.00  0.00    -0.259 OA
BRANCH   7   9
HETATM    9  O   UNK N   1      31.235  21.483  -2.703  0.00  0.00    -0.323 OA
HETATM   10  C   UNK N   1      32.565  21.537  -3.046  0.00  0.00     0.213 C 
ENDBRANCH   7   9
ENDBRANCH   1   7
BRANCH   3  11
HETATM   11  O   UNK N   1      26.331  25.059  -3.484  0.00  0.00    -0.353 OA
HETATM   12  C   UNK N   1      26.415  26.425  -3.326  0.00  0.00     0.210 C 
ENDBRANCH   3  11
BRANCH   5  13
HETATM   13  O   UNK N   1      28.663  22.827  -7.073  0.00  0.00    -0.353 OA
HETATM   14  C   UNK N   1      28.137  21.700  -7.663  0.00  0.00     0.210 C 
ENDBRANCH   5  13
BRANCH   6  15
HETATM   15  O   UNK N   1      26.493  24.442  -6.125  0.00  0.00    -0.356 OA
HETATM   16  H   UNK N   1      26.239  23.936  -6.871  0.00  0.00     0.218 HD
ENDBRANCH   6  15
TORSDOF 5
ENDMDL
MODEL 9
REMARK VINA RESULT:      -4.6     10.084     12.400
REMARK  5 active torsions:
REMARK  status: ('A' for Active; 'I' for Inactive)
REMARK    1  A    between atoms: C_2  and  O_3 
REMARK    2  A    between atoms: C_2  and  C_5 
REMARK    3  A    between atoms: C_7  and  O_8 
REMARK    4  A    between atoms: C_11  and  O_12 
REMARK    5  A    between atoms: C_14  and  O_15 
ROOT
HETATM    1  C   UNK N   1      21.172  16.498   7.294  0.00  0.00     0.044 A 
HETATM    2  C   UNK N   1      19.934  16.744   7.896  0.00  0.00     0.057 A 
HETATM    3  C   UNK N   1      19.383  15.845   8.822  0.00  0.00     0.105 A 
HETATM    4  C   UNK N   1      21.860  15.324   7.628  0.00  0.00     0.057 A 
HETATM    5  C   UNK N   1      21.338  14.404   8.545  0.00  0.00     0.105 A 
HETATM    6  C   UNK N   1      20.081  14.674   9.147  0.00  0.00     0.133 A 
ENDROOT
BRANCH   1   7
HETATM    7  C   UNK N   1      21.708  17.497   6.315  0.00  0.00     0.293 C 
HETATM    8  O   UNK N   1      21.521  18.684   6.538  0.00  0.00    -0.259 OA
BRANCH   7   9
HETATM    9  O   UNK N   1      22.397  17.166   5.188  0.00  0.00    -0.323 OA
HETATM   10  C   UNK N   1      23.753  17.300   5.005  0.00  0.00     0.213 C 
ENDBRANCH   7   9
ENDBRANCH   1   7
BRANCH   3  11
HETATM   11  O   UNK N   1      18.187  16.092   9.409  0.00  0.00    -0.353 OA
HETATM   12  C   UNK N   1      17.605  17.340   9.440  0.00  0.00     0.210 C 
ENDBRANCH   3  11
BRANCH   5  13
HETATM   13  O   UNK N   1      22.072  13.291   8.808  0.00  0.00    -0.353 OA
HETATM   14  C   UNK N   1      22.982  13.157   9.832  0.00  0.00     0.210 C 
ENDBRANCH   5  13
BRANCH   6  15
HETATM   15  O   UNK N   1      19.538  13.821  10.038  0.00  0.00    -0.356 OA
HETATM   16  H   UNK N   1      20.050  13.504  10.755  0.00  0.00     0.218 HD
ENDBRANCH   6  15
TORSDOF 5
ENDMDL
