MODEL 1
REMARK VINA RESULT:      -7.6      0.000      0.000
REMARK  9 active torsions:
REMARK  status: ('A' for Active; 'I' for Inactive)
REMARK    1  A    between atoms: N_2  and  C_4 
REMARK    2  A    between atoms: C_9  and  C_10 
REMARK       I    between atoms: C_10  and  N_12 
REMARK       I    between atoms: N_12  and  C_13 
REMARK    3  A    between atoms: C_18  and  O_19 
REMARK    4  A    between atoms: O_19  and  C_20 
REMARK    5  A    between atoms: C_20  and  C_22 
REMARK    6  A    between atoms: N_29  and  C_30 
REMARK    7  A    between atoms: C_30  and  C_31 
REMARK    8  A    between atoms: C_31  and  C_32 
REMARK    9  A    between atoms: C_32  and  O_33 
ROOT
HETATM    1  C   UNK N   1      35.057  12.790  15.317  0.00  0.00     0.270 C 
HETATM    2  O   UNK N   1      34.235  12.152  14.681  0.00  0.00    -0.267 OA
HETATM    3  N   UNK N   1      35.827  13.732  14.712  0.00  0.00    -0.155 N 
HETATM    4  C   UNK N   1      35.733  14.001  13.325  0.00  0.00     0.688 A 
HETATM    5  N   UNK N   1      35.744  15.267  12.836  0.00  0.00    -0.189 N 
ATOM      6  HN  UNK N   1      35.931  16.135  13.338  1.00  0.00     0.184 HD
HETATM    7  C   UNK N   1      35.454  15.108  11.535  0.00  0.00     0.079 A 
HETATM    8  C   UNK N   1      35.357  16.081  10.549  0.00  0.00     0.069 A 
HETATM    9  C   UNK N   1      35.069  15.640   9.240  0.00  0.00     0.081 A 
HETATM   10  C   UNK N   1      34.812  14.267   8.993  0.00  0.00     0.040 A 
HETATM   11  C   UNK N   1      35.280  13.785  11.257  0.00  0.00     0.079 A 
HETATM   12  C   UNK N   1      34.926  13.323  10.004  0.00  0.00     0.035 A 
HETATM   13  N   UNK N   1      35.486  13.071  12.360  0.00  0.00    -0.181 N 
HETATM   14  H   UNK N   1      36.468  14.245  15.255  0.00  0.00     0.187 HD
ENDROOT
BRANCH  13  15
HETATM   15  C   UNK N   1      35.472  11.608  12.433  0.00  0.00     0.150 C 
BRANCH  15  16
HETATM   16  C   UNK N   1      36.869  11.036  12.249  0.00  0.00     0.047 C 
BRANCH  16  17
HETATM   17  C   UNK N   1      37.465  10.671  13.592  0.00  0.00     0.165 C 
BRANCH  17  18
HETATM   18  O   UNK N   1      38.218  11.739  14.081  0.00  0.00    -0.401 OA
HETATM   19  H   UNK N   1      38.952  12.107  13.565  0.00  0.00     0.209 HD
ENDBRANCH  17  18
ENDBRANCH  16  17
ENDBRANCH  15  16
ENDBRANCH  13  15
BRANCH   1  20
HETATM   20  C   UNK N   1      35.083  12.620  16.764  0.00  0.00     0.035 A 
HETATM   21  C   UNK N   1      35.065  13.750  17.588  0.00  0.00     0.017 A 
HETATM   22  C   UNK N   1      35.177  13.613  18.968  0.00  0.00     0.003 A 
HETATM   23  C   UNK N   1      35.360  12.347  19.525  0.00  0.00     0.036 A 
HETATM   24  C   UNK N   1      35.408  11.208  18.704  0.00  0.00     0.103 A 
HETATM   25  C   UNK N   1      35.251  11.352  17.320  0.00  0.00     0.053 A 
BRANCH  24  26
HETATM   26  N   UNK N   1      35.674   9.934  19.267  0.00  0.00    -0.116 N 
HETATM   27  O   UNK N   1      36.903   9.467  19.291  0.00  0.00    -0.532 OA
HETATM   28  O   UNK N   1      34.775   9.244  19.648  0.00  0.00    -0.532 OA
ENDBRANCH  24  26
ENDBRANCH   1  20
BRANCH   9  29
HETATM   29  O   UNK N   1      35.216  16.510   8.216  0.00  0.00    -0.278 OA
BRANCH  29  30
HETATM   30  C   UNK N   1      34.501  16.401   7.057  0.00  0.00     0.271 C 
HETATM   31  O   UNK N   1      35.008  15.938   6.041  0.00  0.00    -0.264 OA
BRANCH  30  32
HETATM   32  C   UNK N   1      33.132  17.004   6.989  0.00  0.00     0.037 C 
HETATM   33  C   UNK N   1      32.057  15.987   7.346  0.00  0.00     0.025 C 
HETATM   34  C   UNK N   1      32.879  17.478   5.569  0.00  0.00     0.025 C 
HETATM   35  C   UNK N   1      33.042  18.177   7.938  0.00  0.00     0.025 C 
ENDBRANCH  30  32
ENDBRANCH  29  30
ENDBRANCH   9  29
TORSDOF 9
ENDMDL
MODEL 2
REMARK VINA RESULT:      -7.5      1.736      2.093
REMARK  9 active torsions:
REMARK  status: ('A' for Active; 'I' for Inactive)
REMARK    1  A    between atoms: N_2  and  C_4 
REMARK    2  A    between atoms: C_9  and  C_10 
REMARK       I    between atoms: C_10  and  N_12 
REMARK       I    between atoms: N_12  and  C_13 
REMARK    3  A    between atoms: C_18  and  O_19 
REMARK    4  A    between atoms: O_19  and  C_20 
REMARK    5  A    between atoms: C_20  and  C_22 
REMARK    6  A    between atoms: N_29  and  C_30 
REMARK    7  A    between atoms: C_30  and  C_31 
REMARK    8  A    between atoms: C_31  and  C_32 
REMARK    9  A    between atoms: C_32  and  O_33 
ROOT
HETATM    1  C   UNK N   1      35.018  12.575  14.480  0.00  0.00     0.270 C 
HETATM    2  O   UNK N   1      34.189  11.916  13.876  0.00  0.00    -0.267 OA
HETATM    3  N   UNK N   1      35.654  13.614  13.877  0.00  0.00    -0.155 N 
HETATM    4  C   UNK N   1      35.408  13.964  12.528  0.00  0.00     0.688 A 
HETATM    5  N   UNK N   1      35.279  15.256  12.132  0.00  0.00    -0.189 N 
ATOM      6  HN  UNK N   1      35.447  16.102  12.678  1.00  0.00     0.184 HD
HETATM    7  C   UNK N   1      34.878  15.159  10.855  0.00  0.00     0.079 A 
HETATM    8  C   UNK N   1      34.615  16.183   9.955  0.00  0.00     0.069 A 
HETATM    9  C   UNK N   1      34.236  15.807   8.649  0.00  0.00     0.081 A 
HETATM   10  C   UNK N   1      34.060  14.436   8.327  0.00  0.00     0.040 A 
HETATM   11  C   UNK N   1      34.776  13.847  10.499  0.00  0.00     0.079 A 
HETATM   12  C   UNK N   1      34.340  13.441   9.253  0.00  0.00     0.035 A 
HETATM   13  N   UNK N   1      35.140  13.082  11.524  0.00  0.00    -0.181 N 
HETATM   14  H   UNK N   1      36.304  14.140  14.395  0.00  0.00     0.187 HD
ENDROOT
BRANCH  13  15
HETATM   15  C   UNK N   1      35.242  11.621  11.492  0.00  0.00     0.150 C 
BRANCH  15  16
HETATM   16  C   UNK N   1      36.641  11.177  11.095  0.00  0.00     0.047 C 
BRANCH  16  17
HETATM   17  C   UNK N   1      37.402  10.699  12.315  0.00  0.00     0.165 C 
BRANCH  17  18
HETATM   18  O   UNK N   1      37.972  11.789  12.973  0.00  0.00    -0.401 OA
HETATM   19  H   UNK N   1      38.354  11.689  13.859  0.00  0.00     0.209 HD
ENDBRANCH  17  18
ENDBRANCH  16  17
ENDBRANCH  15  16
ENDBRANCH  13  15
BRANCH   1  20
HETATM   20  C   UNK N   1      35.195  12.313  15.902  0.00  0.00     0.035 A 
HETATM   21  C   UNK N   1      35.321  10.992  16.345  0.00  0.00     0.017 A 
HETATM   22  C   UNK N   1      35.405  10.714  17.706  0.00  0.00     0.003 A 
HETATM   23  C   UNK N   1      35.309  11.754  18.631  0.00  0.00     0.036 A 
HETATM   24  C   UNK N   1      35.154  13.081  18.197  0.00  0.00     0.103 A 
HETATM   25  C   UNK N   1      35.115  13.355  16.825  0.00  0.00     0.053 A 
BRANCH  24  26
HETATM   26  N   UNK N   1      34.978  14.124  19.142  0.00  0.00    -0.116 N 
HETATM   27  O   UNK N   1      34.516  13.855  20.344  0.00  0.00    -0.532 OA
HETATM   28  O   UNK N   1      35.170  15.261  18.827  0.00  0.00    -0.532 OA
ENDBRANCH  24  26
ENDBRANCH   1  20
BRANCH   9  29
HETATM   29  O   UNK N   1      34.220  16.750   7.682  0.00  0.00    -0.278 OA
BRANCH  29  30
HETATM   30  C   UNK N   1      34.073  16.438   6.360  0.00  0.00     0.271 C 
HETATM   31  O   UNK N   1      35.039  16.131   5.670  0.00  0.00    -0.264 OA
BRANCH  30  32
HETATM   32  C   UNK N   1      32.736  16.631   5.711  0.00  0.00     0.037 C 
HETATM   33  C   UNK N   1      32.171  15.314   5.199  0.00  0.00     0.025 C 
HETATM   34  C   UNK N   1      32.900  17.566   4.527  0.00  0.00     0.025 C 
HETATM   35  C   UNK N   1      31.769  17.236   6.703  0.00  0.00     0.025 C 
ENDBRANCH  30  32
ENDBRANCH  29  30
ENDBRANCH   9  29
TORSDOF 9
ENDMDL
MODEL 3
REMARK VINA RESULT:      -7.3      8.690     14.497
REMARK  9 active torsions:
REMARK  status: ('A' for Active; 'I' for Inactive)
REMARK    1  A    between atoms: N_2  and  C_4 
REMARK    2  A    between atoms: C_9  and  C_10 
REMARK       I    between atoms: C_10  and  N_12 
REMARK       I    between atoms: N_12  and  C_13 
REMARK    3  A    between atoms: C_18  and  O_19 
REMARK    4  A    between atoms: O_19  and  C_20 
REMARK    5  A    between atoms: C_20  and  C_22 
REMARK    6  A    between atoms: N_29  and  C_30 
REMARK    7  A    between atoms: C_30  and  C_31 
REMARK    8  A    between atoms: C_31  and  C_32 
REMARK    9  A    between atoms: C_32  and  O_33 
ROOT
HETATM    1  C   UNK N   1      24.926  17.515   4.251  0.00  0.00     0.270 C 
HETATM    2  O   UNK N   1      25.716  17.991   3.453  0.00  0.00    -0.267 OA
HETATM    3  N   UNK N   1      25.355  16.999   5.432  0.00  0.00    -0.155 N 
HETATM    4  C   UNK N   1      26.727  16.965   5.782  0.00  0.00     0.688 A 
HETATM    5  N   UNK N   1      27.158  17.279   7.030  0.00  0.00    -0.189 N 
ATOM      6  HN  UNK N   1      26.598  17.452   7.865  1.00  0.00     0.184 HD
HETATM    7  C   UNK N   1      28.494  17.309   6.907  0.00  0.00     0.079 A 
HETATM    8  C   UNK N   1      29.444  17.558   7.889  0.00  0.00     0.069 A 
HETATM    9  C   UNK N   1      30.799  17.496   7.500  0.00  0.00     0.081 A 
HETATM   10  C   UNK N   1      31.139  17.270   6.142  0.00  0.00     0.040 A 
HETATM   11  C   UNK N   1      28.849  17.016   5.624  0.00  0.00     0.079 A 
HETATM   12  C   UNK N   1      30.160  17.016   5.190  0.00  0.00     0.035 A 
HETATM   13  N   UNK N   1      27.755  16.762   4.911  0.00  0.00    -0.181 N 
HETATM   14  H   UNK N   1      24.693  16.639   6.064  0.00  0.00     0.187 HD
ENDROOT
BRANCH  13  15
HETATM   15  C   UNK N   1      27.742  16.326   3.513  0.00  0.00     0.150 C 
BRANCH  15  16
HETATM   16  C   UNK N   1      27.514  14.826   3.406  0.00  0.00     0.047 C 
BRANCH  16  17
HETATM   17  C   UNK N   1      26.332  14.541   2.503  0.00  0.00     0.165 C 
BRANCH  17  18
HETATM   18  O   UNK N   1      26.147  15.602   1.618  0.00  0.00    -0.401 OA
HETATM   19  H   UNK N   1      26.669  16.415   1.701  0.00  0.00     0.209 HD
ENDBRANCH  17  18
ENDBRANCH  16  17
ENDBRANCH  15  16
ENDBRANCH  13  15
BRANCH   1  20
HETATM   20  C   UNK N   1      23.503  17.651   3.967  0.00  0.00     0.035 A 
HETATM   21  C   UNK N   1      22.730  16.502   3.770  0.00  0.00     0.017 A 
HETATM   22  C   UNK N   1      21.390  16.611   3.414  0.00  0.00     0.003 A 
HETATM   23  C   UNK N   1      20.831  17.872   3.202  0.00  0.00     0.036 A 
HETATM   24  C   UNK N   1      21.606  19.031   3.369  0.00  0.00     0.103 A 
HETATM   25  C   UNK N   1      22.942  18.913   3.771  0.00  0.00     0.053 A 
BRANCH  24  26
HETATM   26  N   UNK N   1      21.056  20.305   3.075  0.00  0.00    -0.116 N 
HETATM   27  O   UNK N   1      21.489  20.987   2.037  0.00  0.00    -0.532 OA
HETATM   28  O   UNK N   1      20.256  20.800   3.812  0.00  0.00    -0.532 OA
ENDBRANCH  24  26
ENDBRANCH   1  20
BRANCH   9  29
HETATM   29  O   UNK N   1      31.749  17.479   8.461  0.00  0.00    -0.278 OA
BRANCH  29  30
HETATM   30  C   UNK N   1      32.652  16.461   8.577  0.00  0.00     0.271 C 
HETATM   31  O   UNK N   1      32.313  15.358   8.991  0.00  0.00    -0.264 OA
BRANCH  30  32
HETATM   32  C   UNK N   1      34.104  16.747   8.348  0.00  0.00     0.037 C 
HETATM   33  C   UNK N   1      34.354  18.237   8.157  0.00  0.00     0.025 C 
HETATM   34  C   UNK N   1      34.548  16.030   7.086  0.00  0.00     0.025 C 
HETATM   35  C   UNK N   1      34.915  16.253   9.523  0.00  0.00     0.025 C 
ENDBRANCH  30  32
ENDBRANCH  29  30
ENDBRANCH   9  29
TORSDOF 9
ENDMDL
MODEL 4
REMARK VINA RESULT:      -7.0      2.533      9.837
REMARK  9 active torsions:
REMARK  status: ('A' for Active; 'I' for Inactive)
REMARK    1  A    between atoms: N_2  and  C_4 
REMARK    2  A    between atoms: C_9  and  C_10 
REMARK       I    between atoms: C_10  and  N_12 
REMARK       I    between atoms: N_12  and  C_13 
REMARK    3  A    between atoms: C_18  and  O_19 
REMARK    4  A    between atoms: O_19  and  C_20 
REMARK    5  A    between atoms: C_20  and  C_22 
REMARK    6  A    between atoms: N_29  and  C_30 
REMARK    7  A    between atoms: C_30  and  C_31 
REMARK    8  A    between atoms: C_31  and  C_32 
REMARK    9  A    between atoms: C_32  and  O_33 
ROOT
HETATM    1  C   UNK N   1      34.547  14.431  11.084  0.00  0.00     0.270 C 
HETATM    2  O   UNK N   1      35.337  14.973  11.838  0.00  0.00    -0.267 OA
HETATM    3  N   UNK N   1      34.248  13.112  11.220  0.00  0.00    -0.155 N 
HETATM    4  C   UNK N   1      34.848  12.305  12.217  0.00  0.00     0.688 A 
HETATM    5  N   UNK N   1      34.132  11.407  12.941  0.00  0.00    -0.189 N 
ATOM      6  HN  UNK N   1      33.165  11.114  12.803  1.00  0.00     0.184 HD
HETATM    7  C   UNK N   1      34.999  10.993  13.879  0.00  0.00     0.079 A 
HETATM    8  C   UNK N   1      34.799  10.051  14.879  0.00  0.00     0.069 A 
HETATM    9  C   UNK N   1      35.894   9.772  15.724  0.00  0.00     0.081 A 
HETATM   10  C   UNK N   1      37.104  10.500  15.584  0.00  0.00     0.040 A 
HETATM   11  C   UNK N   1      36.196  11.624  13.716  0.00  0.00     0.079 A 
HETATM   12  C   UNK N   1      37.267  11.430  14.566  0.00  0.00     0.035 A 
HETATM   13  N   UNK N   1      36.132  12.425  12.656  0.00  0.00    -0.181 N 
HETATM   14  H   UNK N   1      33.592  12.706  10.609  0.00  0.00     0.187 HD
ENDROOT
BRANCH  13  15
HETATM   15  C   UNK N   1      37.251  13.201  12.117  0.00  0.00     0.150 C 
BRANCH  15  16
HETATM   16  C   UNK N   1      37.972  12.436  11.018  0.00  0.00     0.047 C 
BRANCH  16  17
HETATM   17  C   UNK N   1      37.674  13.055   9.669  0.00  0.00     0.165 C 
BRANCH  17  18
HETATM   18  O   UNK N   1      36.552  12.446   9.107  0.00  0.00    -0.401 OA
HETATM   19  H   UNK N   1      36.032  12.897   8.423  0.00  0.00     0.209 HD
ENDBRANCH  17  18
ENDBRANCH  16  17
ENDBRANCH  15  16
ENDBRANCH  13  15
BRANCH   1  20
HETATM   20  C   UNK N   1      33.826  15.267  10.133  0.00  0.00     0.035 A 
HETATM   21  C   UNK N   1      32.524  14.915   9.761  0.00  0.00     0.017 A 
HETATM   22  C   UNK N   1      31.850  15.650   8.791  0.00  0.00     0.003 A 
HETATM   23  C   UNK N   1      32.497  16.708   8.151  0.00  0.00     0.036 A 
HETATM   24  C   UNK N   1      33.813  17.052   8.498  0.00  0.00     0.103 A 
HETATM   25  C   UNK N   1      34.468  16.334   9.506  0.00  0.00     0.053 A 
BRANCH  24  26
HETATM   26  N   UNK N   1      34.493  18.075   7.789  0.00  0.00    -0.116 N 
HETATM   27  O   UNK N   1      35.045  19.075   8.442  0.00  0.00    -0.532 OA
HETATM   28  O   UNK N   1      34.499  18.078   6.594  0.00  0.00    -0.532 OA
ENDBRANCH  24  26
ENDBRANCH   1  20
BRANCH   9  29
HETATM   29  O   UNK N   1      35.829   8.693  16.536  0.00  0.00    -0.278 OA
BRANCH  29  30
HETATM   30  C   UNK N   1      36.386   8.683  17.783  0.00  0.00     0.271 C 
HETATM   31  O   UNK N   1      37.457   8.123  17.993  0.00  0.00    -0.264 OA
BRANCH  30  32
HETATM   32  C   UNK N   1      35.599   9.225  18.936  0.00  0.00     0.037 C 
HETATM   33  C   UNK N   1      35.911  10.695  19.180  0.00  0.00     0.025 C 
HETATM   34  C   UNK N   1      35.972   8.451  20.187  0.00  0.00     0.025 C 
HETATM   35  C   UNK N   1      34.121   9.068  18.665  0.00  0.00     0.025 C 
ENDBRANCH  30  32
ENDBRANCH  29  30
ENDBRANCH   9  29
TORSDOF 9
ENDMDL
MODEL 5
REMARK VINA RESULT:      -7.0      3.049      9.870
REMARK  9 active torsions:
REMARK  status: ('A' for Active; 'I' for Inactive)
REMARK    1  A    between atoms: N_2  and  C_4 
REMARK    2  A    between atoms: C_9  and  C_10 
REMARK       I    between atoms: C_10  and  N_12 
REMARK       I    between atoms: N_12  and  C_13 
REMARK    3  A    between atoms: C_18  and  O_19 
REMARK    4  A    between atoms: O_19  and  C_20 
REMARK    5  A    between atoms: C_20  and  C_22 
REMARK    6  A    between atoms: N_29  and  C_30 
REMARK    7  A    between atoms: C_30  and  C_31 
REMARK    8  A    between atoms: C_31  and  C_32 
REMARK    9  A    between atoms: C_32  and  O_33 
ROOT
HETATM    1  C   UNK N   1      34.528  14.438  11.023  0.00  0.00     0.270 C 
HETATM    2  O   UNK N   1      35.271  14.981  11.822  0.00  0.00    -0.267 OA
HETATM    3  N   UNK N   1      34.282  13.104  11.096  0.00  0.00    -0.155 N 
HETATM    4  C   UNK N   1      34.886  12.282  12.078  0.00  0.00     0.688 A 
HETATM    5  N   UNK N   1      34.189  11.325  12.743  0.00  0.00    -0.189 N 
ATOM      6  HN  UNK N   1      33.240  10.998  12.563  1.00  0.00     0.184 HD
HETATM    7  C   UNK N   1      35.045  10.910  13.691  0.00  0.00     0.079 A 
HETATM    8  C   UNK N   1      34.857   9.919  14.645  0.00  0.00     0.069 A 
HETATM    9  C   UNK N   1      35.937   9.651  15.512  0.00  0.00     0.081 A 
HETATM   10  C   UNK N   1      37.118  10.435  15.439  0.00  0.00     0.040 A 
HETATM   11  C   UNK N   1      36.218  11.596  13.590  0.00  0.00     0.079 A 
HETATM   12  C   UNK N   1      37.271  11.412  14.465  0.00  0.00     0.035 A 
HETATM   13  N   UNK N   1      36.151  12.437  12.561  0.00  0.00    -0.181 N 
HETATM   14  H   UNK N   1      33.663  12.697  10.449  0.00  0.00     0.187 HD
ENDROOT
BRANCH  13  15
HETATM   15  C   UNK N   1      37.251  13.281  12.090  0.00  0.00     0.150 C 
BRANCH  15  16
HETATM   16  C   UNK N   1      37.879  12.711  10.827  0.00  0.00     0.047 C 
BRANCH  16  17
HETATM   17  C   UNK N   1      37.998  13.790   9.770  0.00  0.00     0.165 C 
BRANCH  17  18
HETATM   18  O   UNK N   1      37.861  15.046  10.360  0.00  0.00    -0.401 OA
HETATM   19  H   UNK N   1      37.106  15.245  10.935  0.00  0.00     0.209 HD
ENDBRANCH  17  18
ENDBRANCH  16  17
ENDBRANCH  15  16
ENDBRANCH  13  15
BRANCH   1  20
HETATM   20  C   UNK N   1      33.800  15.282  10.084  0.00  0.00     0.035 A 
HETATM   21  C   UNK N   1      32.490  14.942   9.730  0.00  0.00     0.017 A 
HETATM   22  C   UNK N   1      31.808  15.685   8.772  0.00  0.00     0.003 A 
HETATM   23  C   UNK N   1      32.454  16.738   8.125  0.00  0.00     0.036 A 
HETATM   24  C   UNK N   1      33.778  17.070   8.452  0.00  0.00     0.103 A 
HETATM   25  C   UNK N   1      34.442  16.345   9.450  0.00  0.00     0.053 A 
BRANCH  24  26
HETATM   26  N   UNK N   1      34.456  18.090   7.736  0.00  0.00    -0.116 N 
HETATM   27  O   UNK N   1      35.015  19.090   8.382  0.00  0.00    -0.532 OA
HETATM   28  O   UNK N   1      34.453  18.089   6.541  0.00  0.00    -0.532 OA
ENDBRANCH  24  26
ENDBRANCH   1  20
BRANCH   9  29
HETATM   29  O   UNK N   1      35.894   8.539  16.277  0.00  0.00    -0.278 OA
BRANCH  29  30
HETATM   30  C   UNK N   1      36.719   7.471  16.061  0.00  0.00     0.271 C 
HETATM   31  O   UNK N   1      36.516   6.691  15.137  0.00  0.00    -0.264 OA
BRANCH  30  32
HETATM   32  C   UNK N   1      37.788   7.163  17.064  0.00  0.00     0.037 C 
HETATM   33  C   UNK N   1      37.607   7.977  18.338  0.00  0.00     0.025 C 
HETATM   34  C   UNK N   1      39.135   7.521  16.464  0.00  0.00     0.025 C 
HETATM   35  C   UNK N   1      37.760   5.691  17.406  0.00  0.00     0.025 C 
ENDBRANCH  30  32
ENDBRANCH  29  30
ENDBRANCH   9  29
TORSDOF 9
ENDMDL
MODEL 6
REMARK VINA RESULT:      -6.9      7.052     13.250
REMARK  9 active torsions:
REMARK  status: ('A' for Active; 'I' for Inactive)
REMARK    1  A    between atoms: N_2  and  C_4 
REMARK    2  A    between atoms: C_9  and  C_10 
REMARK       I    between atoms: C_10  and  N_12 
REMARK       I    between atoms: N_12  and  C_13 
REMARK    3  A    between atoms: C_18  and  O_19 
REMARK    4  A    between atoms: O_19  and  C_20 
REMARK    5  A    between atoms: C_20  and  C_22 
REMARK    6  A    between atoms: N_29  and  C_30 
REMARK    7  A    between atoms: C_30  and  C_31 
REMARK    8  A    between atoms: C_31  and  C_32 
REMARK    9  A    between atoms: C_32  and  O_33 
ROOT
HETATM    1  C   UNK N   1      27.330  17.888   4.689  0.00  0.00     0.270 C 
HETATM    2  O   UNK N   1      28.037  18.493   3.902  0.00  0.00    -0.267 OA
HETATM    3  N   UNK N   1      27.875  17.166   5.702  0.00  0.00    -0.155 N 
HETATM    4  C   UNK N   1      29.276  17.060   5.879  0.00  0.00     0.688 A 
HETATM    5  N   UNK N   1      29.854  17.142   7.105  0.00  0.00    -0.189 N 
ATOM      6  HN  UNK N   1      29.397  17.167   8.017  1.00  0.00     0.184 HD
HETATM    7  C   UNK N   1      31.168  17.183   6.834  0.00  0.00     0.079 A 
HETATM    8  C   UNK N   1      32.229  17.246   7.727  0.00  0.00     0.069 A 
HETATM    9  C   UNK N   1      33.529  17.244   7.179  0.00  0.00     0.081 A 
HETATM   10  C   UNK N   1      33.707  17.261   5.772  0.00  0.00     0.040 A 
HETATM   11  C   UNK N   1      31.367  17.121   5.487  0.00  0.00     0.079 A 
HETATM   12  C   UNK N   1      32.620  17.190   4.911  0.00  0.00     0.035 A 
HETATM   13  N   UNK N   1      30.193  17.008   4.873  0.00  0.00    -0.181 N 
HETATM   14  H   UNK N   1      27.279  16.704   6.334  0.00  0.00     0.187 HD
ENDROOT
BRANCH  13  15
HETATM   15  C   UNK N   1      30.010  16.829   3.430  0.00  0.00     0.150 C 
BRANCH  15  16
HETATM   16  C   UNK N   1      30.001  15.355   3.056  0.00  0.00     0.047 C 
BRANCH  16  17
HETATM   17  C   UNK N   1      28.789  15.041   2.204  0.00  0.00     0.165 C 
BRANCH  17  18
HETATM   18  O   UNK N   1      27.639  15.540   2.815  0.00  0.00    -0.401 OA
HETATM   19  H   UNK N   1      27.443  16.490   2.804  0.00  0.00     0.209 HD
ENDBRANCH  17  18
ENDBRANCH  16  17
ENDBRANCH  15  16
ENDBRANCH  13  15
BRANCH   1  20
HETATM   20  C   UNK N   1      25.889  18.084   4.602  0.00  0.00     0.035 A 
HETATM   21  C   UNK N   1      25.031  17.079   5.062  0.00  0.00     0.017 A 
HETATM   22  C   UNK N   1      23.654  17.208   4.909  0.00  0.00     0.003 A 
HETATM   23  C   UNK N   1      23.133  18.320   4.248  0.00  0.00     0.036 A 
HETATM   24  C   UNK N   1      23.987  19.321   3.757  0.00  0.00     0.103 A 
HETATM   25  C   UNK N   1      25.368  19.204   3.954  0.00  0.00     0.053 A 
BRANCH  24  26
HETATM   26  N   UNK N   1      23.458  20.409   3.016  0.00  0.00    -0.116 N 
HETATM   27  O   UNK N   1      22.174  20.684   3.073  0.00  0.00    -0.532 OA
HETATM   28  O   UNK N   1      24.161  21.029   2.273  0.00  0.00    -0.532 OA
ENDBRANCH  24  26
ENDBRANCH   1  20
BRANCH   9  29
HETATM   29  O   UNK N   1      34.581  17.048   8.005  0.00  0.00    -0.278 OA
BRANCH  29  30
HETATM   30  C   UNK N   1      34.980  15.801   8.396  0.00  0.00     0.271 C 
HETATM   31  O   UNK N   1      35.117  14.896   7.580  0.00  0.00    -0.264 OA
BRANCH  30  32
HETATM   32  C   UNK N   1      35.096  15.500   9.858  0.00  0.00     0.037 C 
HETATM   33  C   UNK N   1      36.230  14.522  10.137  0.00  0.00     0.025 C 
HETATM   34  C   UNK N   1      33.801  14.865  10.329  0.00  0.00     0.025 C 
HETATM   35  C   UNK N   1      35.342  16.779  10.626  0.00  0.00     0.025 C 
ENDBRANCH  30  32
ENDBRANCH  29  30
ENDBRANCH   9  29
TORSDOF 9
ENDMDL
MODEL 7
REMARK VINA RESULT:      -6.8      9.725     14.256
REMARK  9 active torsions:
REMARK  status: ('A' for Active; 'I' for Inactive)
REMARK    1  A    between atoms: N_2  and  C_4 
REMARK    2  A    between atoms: C_9  and  C_10 
REMARK       I    between atoms: C_10  and  N_12 
REMARK       I    between atoms: N_12  and  C_13 
REMARK    3  A    between atoms: C_18  and  O_19 
REMARK    4  A    between atoms: O_19  and  C_20 
REMARK    5  A    between atoms: C_20  and  C_22 
REMARK    6  A    between atoms: N_29  and  C_30 
REMARK    7  A    between atoms: C_30  and  C_31 
REMARK    8  A    between atoms: C_31  and  C_32 
REMARK    9  A    between atoms: C_32  and  O_33 
ROOT
HETATM    1  C   UNK N   1      25.519  17.503   4.720  0.00  0.00     0.270 C 
HETATM    2  O   UNK N   1      25.758  16.966   5.788  0.00  0.00    -0.267 OA
HETATM    3  N   UNK N   1      26.527  17.908   3.904  0.00  0.00    -0.155 N 
HETATM    4  C   UNK N   1      27.889  17.751   4.258  0.00  0.00     0.688 A 
HETATM    5  N   UNK N   1      28.820  17.330   3.364  0.00  0.00    -0.189 N 
ATOM      6  HN  UNK N   1      28.712  17.194   2.359  1.00  0.00     0.184 HD
HETATM    7  C   UNK N   1      29.916  17.136   4.115  0.00  0.00     0.079 A 
HETATM    8  C   UNK N   1      31.177  16.725   3.706  0.00  0.00     0.069 A 
HETATM    9  C   UNK N   1      32.174  16.631   4.700  0.00  0.00     0.081 A 
HETATM   10  C   UNK N   1      31.847  16.872   6.059  0.00  0.00     0.040 A 
HETATM   11  C   UNK N   1      29.647  17.438   5.416  0.00  0.00     0.079 A 
HETATM   12  C   UNK N   1      30.575  17.290   6.428  0.00  0.00     0.035 A 
HETATM   13  N   UNK N   1      28.389  17.860   5.521  0.00  0.00    -0.181 N 
HETATM   14  H   UNK N   1      26.304  18.321   3.039  0.00  0.00     0.187 HD
ENDROOT
BRANCH  13  15
HETATM   15  C   UNK N   1      27.765  18.355   6.750  0.00  0.00     0.150 C 
BRANCH  15  16
HETATM   16  C   UNK N   1      27.894  19.866   6.862  0.00  0.00     0.047 C 
BRANCH  16  17
HETATM   17  C   UNK N   1      26.596  20.532   6.456  0.00  0.00     0.165 C 
BRANCH  17  18
HETATM   18  O   UNK N   1      26.634  20.855   5.100  0.00  0.00    -0.401 OA
HETATM   19  H   UNK N   1      26.221  20.277   4.440  0.00  0.00     0.209 HD
ENDBRANCH  17  18
ENDBRANCH  16  17
ENDBRANCH  15  16
ENDBRANCH  13  15
BRANCH   1  20
HETATM   20  C   UNK N   1      24.132  17.561   4.280  0.00  0.00     0.035 A 
HETATM   21  C   UNK N   1      23.494  16.388   3.861  0.00  0.00     0.017 A 
HETATM   22  C   UNK N   1      22.199  16.436   3.357  0.00  0.00     0.003 A 
HETATM   23  C   UNK N   1      21.555  17.665   3.219  0.00  0.00     0.036 A 
HETATM   24  C   UNK N   1      22.196  18.852   3.611  0.00  0.00     0.103 A 
HETATM   25  C   UNK N   1      23.483  18.790   4.158  0.00  0.00     0.053 A 
BRANCH  24  26
HETATM   26  N   UNK N   1      21.568  20.106   3.395  0.00  0.00    -0.116 N 
HETATM   27  O   UNK N   1      22.197  21.054   2.736  0.00  0.00    -0.532 OA
HETATM   28  O   UNK N   1      20.500  20.335   3.880  0.00  0.00    -0.532 OA
ENDBRANCH  24  26
ENDBRANCH   1  20
BRANCH   9  29
HETATM   29  O   UNK N   1      33.462  16.485   4.316  0.00  0.00    -0.278 OA
BRANCH  29  30
HETATM   30  C   UNK N   1      34.299  15.578   4.900  0.00  0.00     0.271 C 
HETATM   31  O   UNK N   1      35.061  15.909   5.803  0.00  0.00    -0.264 OA
BRANCH  30  32
HETATM   32  C   UNK N   1      34.400  14.201   4.319  0.00  0.00     0.037 C 
HETATM   33  C   UNK N   1      33.387  13.256   4.949  0.00  0.00     0.025 C 
HETATM   34  C   UNK N   1      35.789  13.655   4.596  0.00  0.00     0.025 C 
HETATM   35  C   UNK N   1      34.167  14.258   2.827  0.00  0.00     0.025 C 
ENDBRANCH  30  32
ENDBRANCH  29  30
ENDBRANCH   9  29
TORSDOF 9
ENDMDL
MODEL 8
REMARK VINA RESULT:      -6.8      2.901      9.824
REMARK  9 active torsions:
REMARK  status: ('A' for Active; 'I' for Inactive)
REMARK    1  A    between atoms: N_2  and  C_4 
REMARK    2  A    between atoms: C_9  and  C_10 
REMARK       I    between atoms: C_10  and  N_12 
REMARK       I    between atoms: N_12  and  C_13 
REMARK    3  A    between atoms: C_18  and  O_19 
REMARK    4  A    between atoms: O_19  and  C_20 
REMARK    5  A    between atoms: C_20  and  C_22 
REMARK    6  A    between atoms: N_29  and  C_30 
REMARK    7  A    between atoms: C_30  and  C_31 
REMARK    8  A    between atoms: C_31  and  C_32 
REMARK    9  A    between atoms: C_32  and  O_33 
ROOT
HETATM    1  C   UNK N   1      34.063  14.886   7.983  0.00  0.00     0.270 C 
HETATM    2  O   UNK N   1      35.175  14.470   7.704  0.00  0.00    -0.267 OA
HETATM    3  N   UNK N   1      33.562  14.746   9.238  0.00  0.00    -0.155 N 
HETATM    4  C   UNK N   1      34.287  14.097  10.267  0.00  0.00     0.688 A 
HETATM    5  N   UNK N   1      34.332  14.586  11.533  0.00  0.00    -0.189 N 
ATOM      6  HN  UNK N   1      33.797  15.359  11.929  1.00  0.00     0.184 HD
HETATM    7  C   UNK N   1      35.245  13.812  12.140  0.00  0.00     0.079 A 
HETATM    8  C   UNK N   1      35.671  13.858  13.461  0.00  0.00     0.069 A 
HETATM    9  C   UNK N   1      36.627  12.901  13.860  0.00  0.00     0.081 A 
HETATM   10  C   UNK N   1      37.171  12.001  12.907  0.00  0.00     0.040 A 
HETATM   11  C   UNK N   1      35.726  12.886  11.263  0.00  0.00     0.079 A 
HETATM   12  C   UNK N   1      36.714  11.981  11.597  0.00  0.00     0.035 A 
HETATM   13  N   UNK N   1      35.110  13.026  10.092  0.00  0.00    -0.181 N 
HETATM   14  H   UNK N   1      32.670  15.108   9.439  0.00  0.00     0.187 HD
ENDROOT
BRANCH  13  15
HETATM   15  C   UNK N   1      35.301  12.155   8.930  0.00  0.00     0.150 C 
BRANCH  15  16
HETATM   16  C   UNK N   1      34.497  10.871   9.068  0.00  0.00     0.047 C 
BRANCH  16  17
HETATM   17  C   UNK N   1      33.102  11.066   8.511  0.00  0.00     0.165 C 
BRANCH  17  18
HETATM   18  O   UNK N   1      32.185  11.161   9.556  0.00  0.00    -0.401 OA
HETATM   19  H   UNK N   1      32.402  10.827  10.440  0.00  0.00     0.209 HD
ENDBRANCH  17  18
ENDBRANCH  16  17
ENDBRANCH  15  16
ENDBRANCH  13  15
BRANCH   1  20
HETATM   20  C   UNK N   1      33.353  15.665   6.977  0.00  0.00     0.035 A 
HETATM   21  C   UNK N   1      34.066  16.217   5.907  0.00  0.00     0.017 A 
HETATM   22  C   UNK N   1      33.423  17.035   4.984  0.00  0.00     0.003 A 
HETATM   23  C   UNK N   1      32.074  17.347   5.158  0.00  0.00     0.036 A 
HETATM   24  C   UNK N   1      31.356  16.821   6.244  0.00  0.00     0.103 A 
HETATM   25  C   UNK N   1      32.001  15.963   7.143  0.00  0.00     0.053 A 
BRANCH  24  26
HETATM   26  N   UNK N   1      30.008  17.205   6.460  0.00  0.00    -0.116 N 
HETATM   27  O   UNK N   1      29.356  17.874   5.536  0.00  0.00    -0.532 OA
HETATM   28  O   UNK N   1      29.484  16.993   7.514  0.00  0.00    -0.532 OA
ENDBRANCH  24  26
ENDBRANCH   1  20
BRANCH   9  29
HETATM   29  O   UNK N   1      36.878  12.744  15.178  0.00  0.00    -0.278 OA
BRANCH  29  30
HETATM   30  C   UNK N   1      35.890  12.473  16.082  0.00  0.00     0.271 C 
HETATM   31  O   UNK N   1      35.343  13.373  16.711  0.00  0.00    -0.264 OA
BRANCH  30  32
HETATM   32  C   UNK N   1      35.587  11.046  16.423  0.00  0.00     0.037 C 
HETATM   33  C   UNK N   1      35.191  10.895  17.885  0.00  0.00     0.025 C 
HETATM   34  C   UNK N   1      36.834  10.214  16.184  0.00  0.00     0.025 C 
HETATM   35  C   UNK N   1      34.464  10.539  15.547  0.00  0.00     0.025 C 
ENDBRANCH  30  32
ENDBRANCH  29  30
ENDBRANCH   9  29
TORSDOF 9
ENDMDL
MODEL 9
REMARK VINA RESULT:      -6.6      3.916     10.376
REMARK  9 active torsions:
REMARK  status: ('A' for Active; 'I' for Inactive)
REMARK    1  A    between atoms: N_2  and  C_4 
REMARK    2  A    between atoms: C_9  and  C_10 
REMARK       I    between atoms: C_10  and  N_12 
REMARK       I    between atoms: N_12  and  C_13 
REMARK    3  A    between atoms: C_18  and  O_19 
REMARK    4  A    between atoms: O_19  and  C_20 
REMARK    5  A    between atoms: C_20  and  C_22 
REMARK    6  A    between atoms: N_29  and  C_30 
REMARK    7  A    between atoms: C_30  and  C_31 
REMARK    8  A    between atoms: C_31  and  C_32 
REMARK    9  A    between atoms: C_32  and  O_33 
ROOT
HETATM    1  C   UNK N   1      31.573  16.964   7.872  0.00  0.00     0.270 C 
HETATM    2  O   UNK N   1      32.627  17.439   7.486  0.00  0.00    -0.267 OA
HETATM    3  N   UNK N   1      31.557  15.960   8.788  0.00  0.00    -0.155 N 
HETATM    4  C   UNK N   1      32.748  15.406   9.316  0.00  0.00     0.688 A 
HETATM    5  N   UNK N   1      32.882  15.115  10.635  0.00  0.00    -0.189 N 
ATOM      6  HN  UNK N   1      32.166  15.134  11.361  1.00  0.00     0.184 HD
HETATM    7  C   UNK N   1      34.180  14.795  10.759  0.00  0.00     0.079 A 
HETATM    8  C   UNK N   1      34.862  14.390  11.899  0.00  0.00     0.069 A 
HETATM    9  C   UNK N   1      36.229  14.078  11.751  0.00  0.00     0.081 A 
HETATM   10  C   UNK N   1      36.868  14.260  10.497  0.00  0.00     0.040 A 
HETATM   11  C   UNK N   1      34.799  14.887   9.548  0.00  0.00     0.079 A 
HETATM   12  C   UNK N   1      36.150  14.659   9.378  0.00  0.00     0.035 A 
HETATM   13  N   UNK N   1      33.909  15.234   8.623  0.00  0.00    -0.181 N 
HETATM   14  H   UNK N   1      30.691  15.609   9.095  0.00  0.00     0.187 HD
ENDROOT
BRANCH  13  15
HETATM   15  C   UNK N   1      34.184  15.348   7.189  0.00  0.00     0.150 C 
BRANCH  15  16
HETATM   16  C   UNK N   1      33.752  14.094   6.445  0.00  0.00     0.047 C 
BRANCH  16  17
HETATM   17  C   UNK N   1      34.954  13.216   6.162  0.00  0.00     0.165 C 
BRANCH  17  18
HETATM   18  O   UNK N   1      35.084  13.021   4.787  0.00  0.00    -0.401 OA
HETATM   19  H   UNK N   1      34.332  13.166   4.192  0.00  0.00     0.209 HD
ENDBRANCH  17  18
ENDBRANCH  16  17
ENDBRANCH  15  16
ENDBRANCH  13  15
BRANCH   1  20
HETATM   20  C   UNK N   1      30.337  17.600   7.438  0.00  0.00     0.035 A 
HETATM   21  C   UNK N   1      29.522  18.231   8.384  0.00  0.00     0.017 A 
HETATM   22  C   UNK N   1      28.296  18.770   8.005  0.00  0.00     0.003 A 
HETATM   23  C   UNK N   1      27.858  18.632   6.688  0.00  0.00     0.036 A 
HETATM   24  C   UNK N   1      28.656  17.976   5.737  0.00  0.00     0.103 A 
HETATM   25  C   UNK N   1      29.907  17.476   6.117  0.00  0.00     0.053 A 
BRANCH  24  26
HETATM   26  N   UNK N   1      28.171  17.768   4.421  0.00  0.00    -0.116 N 
HETATM   27  O   UNK N   1      26.949  18.136   4.102  0.00  0.00    -0.532 OA
HETATM   28  O   UNK N   1      28.839  17.186   3.618  0.00  0.00    -0.532 OA
ENDBRANCH  24  26
ENDBRANCH   1  20
BRANCH   9  29
HETATM   29  O   UNK N   1      36.863  13.444  12.762  0.00  0.00    -0.278 OA
BRANCH  29  30
HETATM   30  C   UNK N   1      36.519  13.631  14.071  0.00  0.00     0.271 C 
HETATM   31  O   UNK N   1      36.721  14.703  14.631  0.00  0.00    -0.264 OA
BRANCH  30  32
HETATM   32  C   UNK N   1      36.039  12.460  14.872  0.00  0.00     0.037 C 
HETATM   33  C   UNK N   1      34.686  11.966  14.378  0.00  0.00     0.025 C 
HETATM   34  C   UNK N   1      35.883  12.890  16.319  0.00  0.00     0.025 C 
HETATM   35  C   UNK N   1      37.043  11.334  14.783  0.00  0.00     0.025 C 
ENDBRANCH  30  32
ENDBRANCH  29  30
ENDBRANCH   9  29
TORSDOF 9
ENDMDL
