MODEL 1
REMARK VINA RESULT:      -7.0      0.000      0.000
REMARK  3 active torsions:
REMARK  status: ('A' for Active; 'I' for Inactive)
REMARK    1  A    between atoms: N_7  and  C_9 
REMARK    2  A    between atoms: C_11  and  C_17 
REMARK    3  A    between atoms: C_14  and  O_15 
ROOT
HETATM    1  C   UNK N   1      35.562  12.284  13.093  0.00  0.00     0.081 A 
HETATM    2  C   UNK N   1      35.628  12.486  14.476  0.00  0.00     0.045 A 
HETATM    3  C   UNK N   1      34.882  11.744  15.390  0.00  0.00    -0.024 A 
HETATM    4  C   UNK N   1      34.016  10.758  14.913  0.00  0.00     0.015 A 
HETATM    5  C   UNK N   1      33.905  10.533  13.542  0.00  0.00     0.040 A 
HETATM    6  C   UNK N   1      34.664  11.282  12.618  0.00  0.00     0.095 A 
ENDROOT
BRANCH   1   7
HETATM    7  N   UNK N   1      36.344  13.105  12.170  0.00  0.00    -0.247 N 
HETATM    8  S   UNK N   1      35.770  14.488  11.129  0.00  0.00     0.328 S 
HETATM    9  N   UNK N   1      36.190  13.292   9.899  0.00  0.00    -0.235 N 
HETATM   10  O   UNK N   1      34.563  13.886  10.391  0.00  0.00    -0.182 OA
HETATM   11  O   UNK N   1      34.527  14.564  12.012  0.00  0.00    -0.182 OA
HETATM   12  C   UNK N   1      37.163  12.439  10.248  0.00  0.00     0.251 C 
HETATM   13  H   UNK N   1      35.743  13.255   9.022  0.00  0.00     0.183 HD
HETATM   14  O   UNK N   1      37.585  11.587   9.488  0.00  0.00    -0.271 OA
HETATM   15  C   UNK N   1      37.547  12.523  11.650  0.00  0.00     0.247 C 
ENDBRANCH   1   7
BRANCH   6  16
HETATM   16  O   UNK N   1      34.547  11.037  11.288  0.00  0.00    -0.354 OA
HETATM   17  C   UNK N   1      34.583   9.776  10.737  0.00  0.00     0.210 C 
ENDBRANCH   6  16
BRANCH   3  18
HETATM   18  C   UNK N   1      35.038  12.009  16.840  0.00  0.00    -0.026 A 
HETATM   19  C   UNK N   1      34.981  13.328  17.324  0.00  0.00     0.012 A 
HETATM   20  C   UNK N   1      35.140  13.594  18.685  0.00  0.00     0.001 A 
HETATM   21  C   UNK N   1      35.367  12.544  19.577  0.00  0.00     0.000 A 
HETATM   22  C   UNK N   1      35.427  11.228  19.108  0.00  0.00     0.001 A 
HETATM   23  C   UNK N   1      35.260  10.960  17.745  0.00  0.00     0.012 A 
ENDBRANCH   3  18
TORSDOF 3
ENDMDL
MODEL 2
REMARK VINA RESULT:      -7.0      6.484      8.800
REMARK  3 active torsions:
REMARK  status: ('A' for Active; 'I' for Inactive)
REMARK    1  A    between atoms: N_7  and  C_9 
REMARK    2  A    between atoms: C_11  and  C_17 
REMARK    3  A    between atoms: C_14  and  O_15 
ROOT
HETATM    1  C   UNK N   1      33.922  15.394   7.608  0.00  0.00     0.081 A 
HETATM    2  C   UNK N   1      32.699  15.932   8.025  0.00  0.00     0.045 A 
HETATM    3  C   UNK N   1      32.019  16.919   7.314  0.00  0.00    -0.024 A 
HETATM    4  C   UNK N   1      32.580  17.407   6.132  0.00  0.00     0.015 A 
HETATM    5  C   UNK N   1      33.805  16.913   5.687  0.00  0.00     0.040 A 
HETATM    6  C   UNK N   1      34.491  15.912   6.406  0.00  0.00     0.095 A 
ENDROOT
BRANCH   1   7
HETATM    7  N   UNK N   1      34.613  14.380   8.402  0.00  0.00    -0.247 N 
HETATM    8  S   UNK N   1      34.260  12.593   8.502  0.00  0.00     0.328 S 
HETATM    9  N   UNK N   1      33.839  13.112  10.137  0.00  0.00    -0.235 N 
HETATM   10  O   UNK N   1      32.754  12.556   8.811  0.00  0.00    -0.182 OA
HETATM   11  O   UNK N   1      33.457  12.736   7.211  0.00  0.00    -0.182 OA
HETATM   12  C   UNK N   1      34.514  14.180  10.583  0.00  0.00     0.251 C 
HETATM   13  H   UNK N   1      33.158  12.650  10.680  0.00  0.00     0.183 HD
HETATM   14  O   UNK N   1      34.358  14.626  11.706  0.00  0.00    -0.271 OA
HETATM   15  C   UNK N   1      35.317  14.840   9.564  0.00  0.00     0.247 C 
ENDBRANCH   1   7
BRANCH   6  16
HETATM   16  O   UNK N   1      35.676  15.438   5.946  0.00  0.00    -0.354 OA
HETATM   17  C   UNK N   1      35.792  14.345   5.116  0.00  0.00     0.210 C 
ENDBRANCH   6  16
BRANCH   3  18
HETATM   18  C   UNK N   1      30.714  17.409   7.818  0.00  0.00    -0.026 A 
HETATM   19  C   UNK N   1      30.661  18.188   8.988  0.00  0.00     0.012 A 
HETATM   20  C   UNK N   1      29.439  18.645   9.482  0.00  0.00     0.001 A 
HETATM   21  C   UNK N   1      28.254  18.321   8.818  0.00  0.00     0.000 A 
HETATM   22  C   UNK N   1      28.294  17.546   7.654  0.00  0.00     0.001 A 
HETATM   23  C   UNK N   1      29.519  17.094   7.153  0.00  0.00     0.012 A 
ENDBRANCH   3  18
TORSDOF 3
ENDMDL
MODEL 3
REMARK VINA RESULT:      -6.9      1.792      2.689
REMARK  3 active torsions:
REMARK  status: ('A' for Active; 'I' for Inactive)
REMARK    1  A    between atoms: N_7  and  C_9 
REMARK    2  A    between atoms: C_11  and  C_17 
REMARK    3  A    between atoms: C_14  and  O_15 
ROOT
HETATM    1  C   UNK N   1      35.449  12.592  12.114  0.00  0.00     0.081 A 
HETATM    2  C   UNK N   1      35.741  13.282  13.297  0.00  0.00     0.045 A 
HETATM    3  C   UNK N   1      35.333  12.843  14.554  0.00  0.00    -0.024 A 
HETATM    4  C   UNK N   1      34.588  11.666  14.650  0.00  0.00     0.015 A 
HETATM    5  C   UNK N   1      34.258  10.955  13.498  0.00  0.00     0.040 A 
HETATM    6  C   UNK N   1      34.675  11.398  12.225  0.00  0.00     0.095 A 
ENDROOT
BRANCH   1   7
HETATM    7  N   UNK N   1      35.874  13.105  10.814  0.00  0.00    -0.247 N 
HETATM    8  S   UNK N   1      37.414  12.740   9.906  0.00  0.00     0.328 S 
HETATM    9  N   UNK N   1      37.645  14.449  10.287  0.00  0.00    -0.235 N 
HETATM   10  O   UNK N   1      38.505  13.014  10.954  0.00  0.00    -0.182 OA
HETATM   11  O   UNK N   1      37.590  11.521  10.809  0.00  0.00    -0.182 OA
HETATM   12  C   UNK N   1      36.515  15.161  10.400  0.00  0.00     0.251 C 
HETATM   13  H   UNK N   1      38.538  14.848  10.406  0.00  0.00     0.183 HD
HETATM   14  O   UNK N   1      36.521  16.359  10.620  0.00  0.00    -0.271 OA
HETATM   15  C   UNK N   1      35.304  14.354  10.395  0.00  0.00     0.247 C 
ENDBRANCH   1   7
BRANCH   6  16
HETATM   16  O   UNK N   1      34.352  10.682  11.118  0.00  0.00    -0.354 OA
HETATM   17  C   UNK N   1      34.634   9.343  10.965  0.00  0.00     0.210 C 
ENDBRANCH   6  16
BRANCH   3  18
HETATM   18  C   UNK N   1      35.713  13.625  15.755  0.00  0.00    -0.026 A 
HETATM   19  C   UNK N   1      35.014  13.444  16.962  0.00  0.00     0.012 A 
HETATM   20  C   UNK N   1      35.352  14.182  18.097  0.00  0.00     0.001 A 
HETATM   21  C   UNK N   1      36.386  15.118  18.036  0.00  0.00     0.000 A 
HETATM   22  C   UNK N   1      37.088  15.308  16.841  0.00  0.00     0.001 A 
HETATM   23  C   UNK N   1      36.756  14.563  15.705  0.00  0.00     0.012 A 
ENDBRANCH   3  18
TORSDOF 3
ENDMDL
MODEL 4
REMARK VINA RESULT:      -6.6      6.150      8.450
REMARK  3 active torsions:
REMARK  status: ('A' for Active; 'I' for Inactive)
REMARK    1  A    between atoms: N_7  and  C_9 
REMARK    2  A    between atoms: C_11  and  C_17 
REMARK    3  A    between atoms: C_14  and  O_15 
ROOT
HETATM    1  C   UNK N   1      34.021  15.538   8.997  0.00  0.00     0.081 A 
HETATM    2  C   UNK N   1      32.769  16.161   8.933  0.00  0.00     0.045 A 
HETATM    3  C   UNK N   1      32.259  16.725   7.766  0.00  0.00    -0.024 A 
HETATM    4  C   UNK N   1      33.028  16.682   6.602  0.00  0.00     0.015 A 
HETATM    5  C   UNK N   1      34.289  16.087   6.622  0.00  0.00     0.040 A 
HETATM    6  C   UNK N   1      34.803  15.512   7.803  0.00  0.00     0.095 A 
ENDROOT
BRANCH   1   7
HETATM    7  N   UNK N   1      34.527  14.984  10.251  0.00  0.00    -0.247 N 
HETATM    8  S   UNK N   1      35.607  15.786  11.483  0.00  0.00     0.328 S 
HETATM    9  N   UNK N   1      36.675  14.516  10.876  0.00  0.00    -0.235 N 
HETATM   10  O   UNK N   1      36.781  16.297  10.632  0.00  0.00    -0.182 OA
HETATM   11  O   UNK N   1      35.246  17.126  10.846  0.00  0.00    -0.182 OA
HETATM   12  C   UNK N   1      36.050  13.416  10.432  0.00  0.00     0.251 C 
HETATM   13  H   UNK N   1      37.655  14.610  10.864  0.00  0.00     0.183 HD
HETATM   14  O   UNK N   1      36.657  12.444  10.022  0.00  0.00    -0.271 OA
HETATM   15  C   UNK N   1      34.604  13.554  10.341  0.00  0.00     0.247 C 
ENDBRANCH   1   7
BRANCH   6  16
HETATM   16  O   UNK N   1      36.028  14.929   7.796  0.00  0.00    -0.354 OA
HETATM   17  C   UNK N   1      36.467  14.086   6.799  0.00  0.00     0.210 C 
ENDBRANCH   6  16
BRANCH   3  18
HETATM   18  C   UNK N   1      30.910  17.339   7.786  0.00  0.00    -0.026 A 
HETATM   19  C   UNK N   1      30.051  17.184   6.683  0.00  0.00     0.012 A 
HETATM   20  C   UNK N   1      28.784  17.768   6.681  0.00  0.00     0.001 A 
HETATM   21  C   UNK N   1      28.363  18.522   7.779  0.00  0.00     0.000 A 
HETATM   22  C   UNK N   1      29.208  18.685   8.881  0.00  0.00     0.001 A 
HETATM   23  C   UNK N   1      30.476  18.093   8.887  0.00  0.00     0.012 A 
ENDBRANCH   3  18
TORSDOF 3
ENDMDL
MODEL 5
REMARK VINA RESULT:      -6.6     10.038     12.255
REMARK  3 active torsions:
REMARK  status: ('A' for Active; 'I' for Inactive)
REMARK    1  A    between atoms: N_7  and  C_9 
REMARK    2  A    between atoms: C_11  and  C_17 
REMARK    3  A    between atoms: C_14  and  O_15 
ROOT
HETATM    1  C   UNK N   1      30.598  16.850   5.702  0.00  0.00     0.081 A 
HETATM    2  C   UNK N   1      29.515  17.362   4.978  0.00  0.00     0.045 A 
HETATM    3  C   UNK N   1      28.500  18.120   5.558  0.00  0.00    -0.024 A 
HETATM    4  C   UNK N   1      28.551  18.379   6.929  0.00  0.00     0.015 A 
HETATM    5  C   UNK N   1      29.601  17.875   7.695  0.00  0.00     0.040 A 
HETATM    6  C   UNK N   1      30.630  17.110   7.106  0.00  0.00     0.095 A 
ENDROOT
BRANCH   1   7
HETATM    7  N   UNK N   1      31.624  16.036   5.055  0.00  0.00    -0.247 N 
HETATM    8  S   UNK N   1      31.863  14.231   5.157  0.00  0.00     0.328 S 
HETATM    9  N   UNK N   1      33.312  14.809   5.986  0.00  0.00    -0.235 N 
HETATM   10  O   UNK N   1      31.874  13.970   6.673  0.00  0.00    -0.182 OA
HETATM   11  O   UNK N   1      30.432  14.128   5.681  0.00  0.00    -0.182 OA
HETATM   12  C   UNK N   1      33.753  16.009   5.583  0.00  0.00     0.251 C 
HETATM   13  H   UNK N   1      33.762  14.289   6.690  0.00  0.00     0.183 HD
HETATM   14  O   UNK N   1      34.763  16.517   6.035  0.00  0.00    -0.271 OA
HETATM   15  C   UNK N   1      32.840  16.704   4.687  0.00  0.00     0.247 C 
ENDBRANCH   1   7
BRANCH   6  16
HETATM   16  O   UNK N   1      31.648  16.640   7.869  0.00  0.00    -0.354 OA
HETATM   17  C   UNK N   1      32.505  17.449   8.583  0.00  0.00     0.210 C 
ENDBRANCH   6  16
BRANCH   3  18
HETATM   18  C   UNK N   1      27.407  18.645   4.706  0.00  0.00    -0.026 A 
HETATM   19  C   UNK N   1      27.489  19.947   4.182  0.00  0.00     0.012 A 
HETATM   20  C   UNK N   1      26.461  20.460   3.389  0.00  0.00     0.001 A 
HETATM   21  C   UNK N   1      25.335  19.680   3.119  0.00  0.00     0.000 A 
HETATM   22  C   UNK N   1      25.241  18.384   3.636  0.00  0.00     0.001 A 
HETATM   23  C   UNK N   1      26.275  17.866   4.424  0.00  0.00     0.012 A 
ENDBRANCH   3  18
TORSDOF 3
ENDMDL
MODEL 6
REMARK VINA RESULT:      -6.5      9.570     11.550
REMARK  3 active torsions:
REMARK  status: ('A' for Active; 'I' for Inactive)
REMARK    1  A    between atoms: N_7  and  C_9 
REMARK    2  A    between atoms: C_11  and  C_17 
REMARK    3  A    between atoms: C_14  and  O_15 
ROOT
HETATM    1  C   UNK N   1      31.225  16.872   6.874  0.00  0.00     0.081 A 
HETATM    2  C   UNK N   1      30.208  17.550   6.191  0.00  0.00     0.045 A 
HETATM    3  C   UNK N   1      29.195  18.253   6.838  0.00  0.00    -0.024 A 
HETATM    4  C   UNK N   1      29.178  18.282   8.234  0.00  0.00     0.015 A 
HETATM    5  C   UNK N   1      30.160  17.607   8.957  0.00  0.00     0.040 A 
HETATM    6  C   UNK N   1      31.188  16.898   8.301  0.00  0.00     0.095 A 
ENDROOT
BRANCH   1   7
HETATM    7  N   UNK N   1      32.252  16.124   6.153  0.00  0.00    -0.247 N 
HETATM    8  S   UNK N   1      33.864  16.722   5.543  0.00  0.00     0.328 S 
HETATM    9  N   UNK N   1      33.028  16.398   4.021  0.00  0.00    -0.235 N 
HETATM   10  O   UNK N   1      33.485  17.981   4.746  0.00  0.00    -0.182 OA
HETATM   11  O   UNK N   1      33.716  17.913   6.487  0.00  0.00    -0.182 OA
HETATM   12  C   UNK N   1      32.105  15.427   4.079  0.00  0.00     0.251 C 
HETATM   13  H   UNK N   1      33.225  16.893   3.193  0.00  0.00     0.183 HD
HETATM   14  O   UNK N   1      31.478  15.067   3.099  0.00  0.00    -0.271 OA
HETATM   15  C   UNK N   1      31.817  14.964   5.428  0.00  0.00     0.247 C 
ENDBRANCH   1   7
BRANCH   6  16
HETATM   16  O   UNK N   1      32.140  16.258   9.025  0.00  0.00    -0.354 OA
HETATM   17  C   UNK N   1      32.076  14.924   9.363  0.00  0.00     0.210 C 
ENDBRANCH   6  16
BRANCH   3  18
HETATM   18  C   UNK N   1      28.175  18.965   6.032  0.00  0.00    -0.026 A 
HETATM   19  C   UNK N   1      27.989  18.629   4.679  0.00  0.00     0.012 A 
HETATM   20  C   UNK N   1      27.043  19.300   3.904  0.00  0.00     0.001 A 
HETATM   21  C   UNK N   1      26.277  20.322   4.469  0.00  0.00     0.000 A 
HETATM   22  C   UNK N   1      26.454  20.666   5.813  0.00  0.00     0.001 A 
HETATM   23  C   UNK N   1      27.396  19.989   6.593  0.00  0.00     0.012 A 
ENDBRANCH   3  18
TORSDOF 3
ENDMDL
MODEL 7
REMARK VINA RESULT:      -6.4     21.837     24.317
REMARK  3 active torsions:
REMARK  status: ('A' for Active; 'I' for Inactive)
REMARK    1  A    between atoms: N_7  and  C_9 
REMARK    2  A    between atoms: C_11  and  C_17 
REMARK    3  A    between atoms: C_14  and  O_15 
ROOT
HETATM    1  C   UNK N   1      28.753  27.676  -4.267  0.00  0.00     0.081 A 
HETATM    2  C   UNK N   1      28.914  26.285  -4.291  0.00  0.00     0.045 A 
HETATM    3  C   UNK N   1      30.089  25.648  -3.901  0.00  0.00    -0.024 A 
HETATM    4  C   UNK N   1      31.169  26.424  -3.473  0.00  0.00     0.015 A 
HETATM    5  C   UNK N   1      31.061  27.813  -3.449  0.00  0.00     0.040 A 
HETATM    6  C   UNK N   1      29.869  28.458  -3.840  0.00  0.00     0.095 A 
ENDROOT
BRANCH   1   7
HETATM    7  N   UNK N   1      27.510  28.302  -4.712  0.00  0.00    -0.247 N 
HETATM    8  S   UNK N   1      26.065  28.778  -3.707  0.00  0.00     0.328 S 
HETATM    9  N   UNK N   1      25.377  27.483  -4.690  0.00  0.00    -0.235 N 
HETATM   10  O   UNK N   1      25.747  27.491  -2.928  0.00  0.00    -0.182 OA
HETATM   11  O   UNK N   1      26.960  28.679  -2.474  0.00  0.00    -0.182 OA
HETATM   12  C   UNK N   1      25.943  27.327  -5.896  0.00  0.00     0.251 C 
HETATM   13  H   UNK N   1      24.635  26.917  -4.377  0.00  0.00     0.183 HD
HETATM   14  O   UNK N   1      25.547  26.501  -6.698  0.00  0.00    -0.271 OA
HETATM   15  C   UNK N   1      27.151  28.116  -6.089  0.00  0.00     0.247 C 
ENDBRANCH   1   7
BRANCH   6  16
HETATM   16  O   UNK N   1      29.783  29.811  -3.797  0.00  0.00    -0.354 OA
HETATM   17  C   UNK N   1      29.928  30.549  -2.643  0.00  0.00     0.210 C 
ENDBRANCH   6  16
BRANCH   3  18
HETATM   18  C   UNK N   1      30.159  24.167  -3.933  0.00  0.00    -0.026 A 
HETATM   19  C   UNK N   1      30.724  23.466  -2.853  0.00  0.00     0.012 A 
HETATM   20  C   UNK N   1      30.808  22.074  -2.875  0.00  0.00     0.001 A 
HETATM   21  C   UNK N   1      30.337  21.365  -3.982  0.00  0.00     0.000 A 
HETATM   22  C   UNK N   1      29.774  22.051  -5.063  0.00  0.00     0.001 A 
HETATM   23  C   UNK N   1      29.681  23.446  -5.038  0.00  0.00     0.012 A 
ENDBRANCH   3  18
TORSDOF 3
ENDMDL
MODEL 8
REMARK VINA RESULT:      -6.4      2.809      4.261
REMARK  3 active torsions:
REMARK  status: ('A' for Active; 'I' for Inactive)
REMARK    1  A    between atoms: N_7  and  C_9 
REMARK    2  A    between atoms: C_11  and  C_17 
REMARK    3  A    between atoms: C_14  and  O_15 
ROOT
HETATM    1  C   UNK N   1      36.118  12.370  15.809  0.00  0.00     0.081 A 
HETATM    2  C   UNK N   1      35.703  11.380  16.708  0.00  0.00     0.045 A 
HETATM    3  C   UNK N   1      35.279  11.660  18.005  0.00  0.00    -0.024 A 
HETATM    4  C   UNK N   1      35.272  12.985  18.443  0.00  0.00     0.015 A 
HETATM    5  C   UNK N   1      35.693  14.003  17.588  0.00  0.00     0.040 A 
HETATM    6  C   UNK N   1      36.119  13.720  16.274  0.00  0.00     0.095 A 
ENDROOT
BRANCH   1   7
HETATM    7  N   UNK N   1      36.581  12.027  14.466  0.00  0.00    -0.247 N 
HETATM    8  S   UNK N   1      35.598  11.883  12.937  0.00  0.00     0.328 S 
HETATM    9  N   UNK N   1      36.093  10.204  13.178  0.00  0.00    -0.235 N 
HETATM   10  O   UNK N   1      34.457  10.937  13.348  0.00  0.00    -0.182 OA
HETATM   11  O   UNK N   1      34.494  12.671  13.638  0.00  0.00    -0.182 OA
HETATM   12  C   UNK N   1      37.260  10.045  13.818  0.00  0.00     0.251 C 
HETATM   13  H   UNK N   1      35.552   9.443  12.866  0.00  0.00     0.183 HD
HETATM   14  O   UNK N   1      37.747   8.948  14.019  0.00  0.00    -0.271 OA
HETATM   15  C   UNK N   1      37.800  11.276  14.377  0.00  0.00     0.247 C 
ENDBRANCH   1   7
BRANCH   6  16
HETATM   16  O   UNK N   1      36.513  14.728  15.456  0.00  0.00    -0.354 OA
HETATM   17  C   UNK N   1      37.418  15.700  15.822  0.00  0.00     0.210 C 
ENDBRANCH   6  16
BRANCH   3  18
HETATM   18  C   UNK N   1      34.831  10.549  18.878  0.00  0.00    -0.026 A 
HETATM   19  C   UNK N   1      34.357   9.354  18.307  0.00  0.00     0.012 A 
HETATM   20  C   UNK N   1      33.919   8.305  19.116  0.00  0.00     0.001 A 
HETATM   21  C   UNK N   1      33.940   8.441  20.505  0.00  0.00     0.000 A 
HETATM   22  C   UNK N   1      34.407   9.625  21.085  0.00  0.00     0.001 A 
HETATM   23  C   UNK N   1      34.855  10.674  20.275  0.00  0.00     0.012 A 
ENDBRANCH   3  18
TORSDOF 3
ENDMDL
MODEL 9
REMARK VINA RESULT:      -6.4     17.217     20.000
REMARK  3 active torsions:
REMARK  status: ('A' for Active; 'I' for Inactive)
REMARK    1  A    between atoms: N_7  and  C_9 
REMARK    2  A    between atoms: C_11  and  C_17 
REMARK    3  A    between atoms: C_14  and  O_15 
ROOT
HETATM    1  C   UNK N   1      43.701  23.702   1.225  0.00  0.00     0.081 A 
HETATM    2  C   UNK N   1      42.671  24.346   0.530  0.00  0.00     0.045 A 
HETATM    3  C   UNK N   1      41.326  24.016   0.683  0.00  0.00    -0.024 A 
HETATM    4  C   UNK N   1      40.979  22.988   1.562  0.00  0.00     0.015 A 
HETATM    5  C   UNK N   1      41.973  22.307   2.263  0.00  0.00     0.040 A 
HETATM    6  C   UNK N   1      43.334  22.645   2.110  0.00  0.00     0.095 A 
ENDROOT
BRANCH   1   7
HETATM    7  N   UNK N   1      45.100  24.065   1.011  0.00  0.00    -0.247 N 
HETATM    8  S   UNK N   1      46.107  25.271   1.937  0.00  0.00     0.328 S 
HETATM    9  N   UNK N   1      46.005  26.059   0.360  0.00  0.00    -0.235 N 
HETATM   10  O   UNK N   1      45.234  26.537   1.916  0.00  0.00    -0.182 OA
HETATM   11  O   UNK N   1      45.062  25.205   3.049  0.00  0.00    -0.182 OA
HETATM   12  C   UNK N   1      45.874  25.226  -0.682  0.00  0.00     0.251 C 
HETATM   13  H   UNK N   1      46.042  27.038   0.254  0.00  0.00     0.183 HD
HETATM   14  O   UNK N   1      45.832  25.623  -1.831  0.00  0.00    -0.271 OA
HETATM   15  C   UNK N   1      45.631  23.841  -0.303  0.00  0.00     0.247 C 
ENDBRANCH   1   7
BRANCH   6  16
HETATM   16  O   UNK N   1      44.283  21.975   2.812  0.00  0.00    -0.354 OA
HETATM   17  C   UNK N   1      44.313  21.912   4.188  0.00  0.00     0.210 C 
ENDBRANCH   6  16
BRANCH   3  18
HETATM   18  C   UNK N   1      40.301  24.772  -0.074  0.00  0.00    -0.026 A 
HETATM   19  C   UNK N   1      39.439  24.097  -0.958  0.00  0.00     0.012 A 
HETATM   20  C   UNK N   1      38.479  24.798  -1.688  0.00  0.00     0.001 A 
HETATM   21  C   UNK N   1      38.373  26.183  -1.550  0.00  0.00     0.000 A 
HETATM   22  C   UNK N   1      39.225  26.866  -0.676  0.00  0.00     0.001 A 
HETATM   23  C   UNK N   1      40.183  26.164   0.063  0.00  0.00     0.012 A 
ENDBRANCH   3  18
TORSDOF 3
ENDMDL
