REMARK  3 active torsions:
REMARK  status: ('A' for Active; 'I' for Inactive)
REMARK    1  A    between atoms: N_7  and  C_9 
REMARK    2  A    between atoms: C_11  and  C_17 
REMARK    3  A    between atoms: C_14  and  O_15 
ROOT
HETATM    1  C   UNK N   1       1.284   0.877  -0.618  0.00  0.00     0.081 A 
HETATM    2  C   UNK N   1       0.256  -0.058  -0.449  0.00  0.00     0.045 A 
HETATM    3  C   UNK N   1      -1.045   0.296  -0.098  0.00  0.00    -0.024 A 
HETATM    4  C   UNK N   1      -1.346   1.644   0.107  0.00  0.00     0.015 A 
HETATM    5  C   UNK N   1      -0.350   2.609  -0.033  0.00  0.00     0.040 A 
HETATM    6  C   UNK N   1       0.966   2.250  -0.392  0.00  0.00     0.095 A 
ENDROOT
BRANCH   1   7
HETATM    7  N   UNK N   1       2.641   0.456  -0.960  0.00  0.00    -0.247 N 
HETATM    8  S   UNK N   1       3.222  -1.210  -1.421  0.00  0.00     0.328 S 
HETATM    9  N   UNK N   1       4.037  -0.987   0.130  0.00  0.00    -0.235 N 
HETATM   10  O   UNK N   1       2.677  -2.092  -0.285  0.00  0.00    -0.182 OA
HETATM   11  O   UNK N   1       1.767  -1.580  -1.699  0.00  0.00    -0.182 OA
HETATM   12  C   UNK N   1       4.317   0.286   0.444  0.00  0.00     0.251 C 
HETATM   13  H   UNK N   1       4.268  -1.741   0.720  0.00  0.00     0.183 HD
HETATM   14  O   UNK N   1       4.912   0.589   1.462  0.00  0.00    -0.271 OA
HETATM   15  C   UNK N   1       3.714   1.262  -0.452  0.00  0.00     0.247 C 
ENDBRANCH   1   7
BRANCH   6  16
HETATM   16  O   UNK N   1       1.916   3.208  -0.534  0.00  0.00    -0.354 OA
HETATM   17  C   UNK N   1       1.692   4.547  -0.301  0.00  0.00     0.210 C 
ENDBRANCH   6  16
BRANCH   3  18
HETATM   18  C   UNK N   1      -2.076  -0.761   0.031  0.00  0.00    -0.026 A 
HETATM   19  C   UNK N   1      -1.719  -2.113  -0.118  0.00  0.00     0.012 A 
HETATM   20  C   UNK N   1      -2.681  -3.118  -0.013  0.00  0.00     0.001 A 
HETATM   21  C   UNK N   1      -4.014  -2.783   0.233  0.00  0.00     0.000 A 
HETATM   22  C   UNK N   1      -4.382  -1.442   0.382  0.00  0.00     0.001 A 
HETATM   23  C   UNK N   1      -3.417  -0.434   0.285  0.00  0.00     0.012 A 
ENDBRANCH   3  18
TORSDOF 3
