REMARK  1 active torsions:
REMARK  status: ('A' for Active; 'I' for Inactive)
REMARK    1  A    between atoms: C_6  and  N_7 
ROOT
HETATM    1  N   UNK N   1      -1.063  -1.198   0.056  0.00  0.00    -0.250 N 
HETATM    2  S   UNK N   1      -1.397  -2.891   0.608  0.00  0.00     0.328 S 
HETATM    3  N   UNK N   1      -3.071  -2.324   0.477  0.00  0.00    -0.235 N 
HETATM    4  C   UNK N   1      -3.314  -1.097   0.029  0.00  0.00     0.251 A 
HETATM    5  C   UNK N   1      -2.155  -0.309  -0.265  0.00  0.00     0.247 A 
HETATM    6  O   UNK N   1      -4.452  -0.679  -0.117  0.00  0.00    -0.271 OA
HETATM    7  O   UNK N   1      -0.728  -3.039  -0.769  0.00  0.00    -0.182 OA
HETATM    8  O   UNK N   1      -2.221  -3.784  -0.333  0.00  0.00    -0.182 OA
HETATM    9  H   UNK N   1      -3.816  -2.914   0.735  0.00  0.00     0.183 HD
ENDROOT
BRANCH   1  10
HETATM   10  C   UNK N   1       0.274  -0.668   0.065  0.00  0.00     0.047 A 
HETATM   11  C   UNK N   1       0.508   0.693  -0.203  0.00  0.00     0.030 A 
HETATM   12  C   UNK N   1       1.808   1.204  -0.211  0.00  0.00     0.002 A 
HETATM   13  C   UNK N   1       2.893   0.360   0.035  0.00  0.00     0.000 A 
HETATM   14  C   UNK N   1       2.677  -0.993   0.302  0.00  0.00     0.002 A 
HETATM   15  C   UNK N   1       1.376  -1.504   0.325  0.00  0.00     0.030 A 
ENDBRANCH   1  10
TORSDOF 1
