MODEL 1
REMARK VINA RESULT:      -5.5      0.000      0.000
REMARK  1 active torsions:
REMARK  status: ('A' for Active; 'I' for Inactive)
REMARK    1  A    between atoms: C_6  and  N_7 
ROOT
HETATM    1  N   UNK N   1      33.464  16.567   7.033  0.00  0.00    -0.250 N 
HETATM    2  S   UNK N   1      33.477  18.107   7.987  0.00  0.00     0.328 S 
HETATM    3  N   UNK N   1      33.594  16.964   9.336  0.00  0.00    -0.235 N 
HETATM    4  C   UNK N   1      33.676  15.662   9.086  0.00  0.00     0.251 A 
HETATM    5  C   UNK N   1      33.608  15.296   7.704  0.00  0.00     0.247 A 
HETATM    6  O   UNK N   1      33.800  14.842   9.982  0.00  0.00    -0.271 OA
HETATM    7  O   UNK N   1      34.764  18.141   7.145  0.00  0.00    -0.182 OA
HETATM    8  O   UNK N   1      34.717  18.384   8.852  0.00  0.00    -0.182 OA
HETATM    9  H   UNK N   1      33.597  17.292  10.265  0.00  0.00     0.183 HD
ENDROOT
BRANCH   1  10
HETATM   10  C   UNK N   1      33.168  16.571   5.626  0.00  0.00     0.047 A 
HETATM   11  C   UNK N   1      32.182  17.427   5.103  0.00  0.00     0.030 A 
HETATM   12  C   UNK N   1      31.883  17.419   3.738  0.00  0.00     0.002 A 
HETATM   13  C   UNK N   1      32.555  16.546   2.880  0.00  0.00     0.000 A 
HETATM   14  C   UNK N   1      33.535  15.690   3.384  0.00  0.00     0.002 A 
HETATM   15  C   UNK N   1      33.847  15.707   4.747  0.00  0.00     0.030 A 
ENDBRANCH   1  10
TORSDOF 1
ENDMDL
MODEL 2
REMARK VINA RESULT:      -5.4     15.756     17.394
REMARK  1 active torsions:
REMARK  status: ('A' for Active; 'I' for Inactive)
REMARK    1  A    between atoms: C_6  and  N_7 
ROOT
HETATM    1  N   UNK N   1      26.609  26.757  -4.705  0.00  0.00    -0.250 N 
HETATM    2  S   UNK N   1      26.527  25.802  -6.243  0.00  0.00     0.328 S 
HETATM    3  N   UNK N   1      26.502  24.452  -5.095  0.00  0.00    -0.235 N 
HETATM    4  C   UNK N   1      26.489  24.701  -3.790  0.00  0.00     0.251 A 
HETATM    5  C   UNK N   1      26.550  26.085  -3.428  0.00  0.00     0.247 A 
HETATM    6  O   UNK N   1      26.430  23.804  -2.964  0.00  0.00    -0.271 OA
HETATM    7  O   UNK N   1      25.224  26.618  -6.203  0.00  0.00    -0.182 OA
HETATM    8  O   UNK N   1      25.291  24.912  -6.448  0.00  0.00    -0.182 OA
HETATM    9  H   UNK N   1      26.498  23.523  -5.422  0.00  0.00     0.183 HD
ENDROOT
BRANCH   1  10
HETATM   10  C   UNK N   1      26.877  28.170  -4.727  0.00  0.00     0.047 A 
HETATM   11  C   UNK N   1      27.821  28.708  -5.620  0.00  0.00     0.030 A 
HETATM   12  C   UNK N   1      28.093  30.078  -5.628  0.00  0.00     0.002 A 
HETATM   13  C   UNK N   1      27.435  30.928  -4.736  0.00  0.00     0.000 A 
HETATM   14  C   UNK N   1      26.496  30.409  -3.844  0.00  0.00     0.002 A 
HETATM   15  C   UNK N   1      26.211  29.040  -3.843  0.00  0.00     0.030 A 
ENDBRANCH   1  10
TORSDOF 1
ENDMDL
MODEL 3
REMARK VINA RESULT:      -5.4      3.128      4.213
REMARK  1 active torsions:
REMARK  status: ('A' for Active; 'I' for Inactive)
REMARK    1  A    between atoms: C_6  and  N_7 
ROOT
HETATM    1  N   UNK N   1      32.282  17.376   8.066  0.00  0.00    -0.250 N 
HETATM    2  S   UNK N   1      33.215  15.906   7.565  0.00  0.00     0.328 S 
HETATM    3  N   UNK N   1      34.576  17.025   7.758  0.00  0.00    -0.235 N 
HETATM    4  C   UNK N   1      34.351  18.261   8.191  0.00  0.00     0.251 A 
HETATM    5  C   UNK N   1      32.977  18.593   8.416  0.00  0.00     0.247 A 
HETATM    6  O   UNK N   1      35.262  19.053   8.378  0.00  0.00    -0.271 OA
HETATM    7  O   UNK N   1      32.574  15.538   8.914  0.00  0.00    -0.182 OA
HETATM    8  O   UNK N   1      34.252  15.363   8.560  0.00  0.00    -0.182 OA
HETATM    9  H   UNK N   1      35.492  16.733   7.546  0.00  0.00     0.183 HD
ENDROOT
BRANCH   1  10
HETATM   10  C   UNK N   1      30.847  17.403   7.987  0.00  0.00     0.047 A 
HETATM   11  C   UNK N   1      30.080  17.953   9.031  0.00  0.00     0.030 A 
HETATM   12  C   UNK N   1      28.685  17.963   8.961  0.00  0.00     0.002 A 
HETATM   13  C   UNK N   1      28.036  17.413   7.854  0.00  0.00     0.000 A 
HETATM   14  C   UNK N   1      28.782  16.864   6.810  0.00  0.00     0.002 A 
HETATM   15  C   UNK N   1      30.179  16.865   6.870  0.00  0.00     0.030 A 
ENDBRANCH   1  10
TORSDOF 1
ENDMDL
MODEL 4
REMARK VINA RESULT:      -5.4      2.144      2.547
REMARK  1 active torsions:
REMARK  status: ('A' for Active; 'I' for Inactive)
REMARK    1  A    between atoms: C_6  and  N_7 
ROOT
HETATM    1  N   UNK N   1      33.439  16.538   8.009  0.00  0.00    -0.250 N 
HETATM    2  S   UNK N   1      33.709  18.328   8.085  0.00  0.00     0.328 S 
HETATM    3  N   UNK N   1      34.803  17.844   9.392  0.00  0.00    -0.235 N 
HETATM    4  C   UNK N   1      34.972  16.554   9.661  0.00  0.00     0.251 A 
HETATM    5  C   UNK N   1      34.186  15.653   8.873  0.00  0.00     0.247 A 
HETATM    6  O   UNK N   1      35.747  16.173  10.524  0.00  0.00    -0.271 OA
HETATM    7  O   UNK N   1      34.233  17.898   6.704  0.00  0.00    -0.182 OA
HETATM    8  O   UNK N   1      35.140  18.831   7.836  0.00  0.00    -0.182 OA
HETATM    9  H   UNK N   1      35.282  18.526   9.916  0.00  0.00     0.183 HD
ENDROOT
BRANCH   1  10
HETATM   10  C   UNK N   1      32.387  15.983   7.201  0.00  0.00     0.047 A 
HETATM   11  C   UNK N   1      32.577  14.773   6.509  0.00  0.00     0.030 A 
HETATM   12  C   UNK N   1      31.561  14.243   5.710  0.00  0.00     0.002 A 
HETATM   13  C   UNK N   1      30.346  14.920   5.582  0.00  0.00     0.000 A 
HETATM   14  C   UNK N   1      30.143  16.122   6.262  0.00  0.00     0.002 A 
HETATM   15  C   UNK N   1      31.153  16.648   7.073  0.00  0.00     0.030 A 
ENDBRANCH   1  10
TORSDOF 1
ENDMDL
MODEL 5
REMARK VINA RESULT:      -5.3      9.294     11.503
REMARK  1 active torsions:
REMARK  status: ('A' for Active; 'I' for Inactive)
REMARK    1  A    between atoms: C_6  and  N_7 
ROOT
HETATM    1  N   UNK N   1      36.011  12.123  15.412  0.00  0.00    -0.250 N 
HETATM    2  S   UNK N   1      35.485  13.423  14.265  0.00  0.00     0.328 S 
HETATM    3  N   UNK N   1      36.537  12.515  13.166  0.00  0.00    -0.235 N 
HETATM    4  C   UNK N   1      37.117  11.397  13.588  0.00  0.00     0.251 A 
HETATM    5  C   UNK N   1      36.865  11.052  14.955  0.00  0.00     0.247 A 
HETATM    6  O   UNK N   1      37.816  10.717  12.853  0.00  0.00    -0.271 OA
HETATM    7  O   UNK N   1      34.203  12.647  14.611  0.00  0.00    -0.182 OA
HETATM    8  O   UNK N   1      34.729  12.979  13.002  0.00  0.00    -0.182 OA
HETATM    9  H   UNK N   1      36.692  12.838  12.248  0.00  0.00     0.183 HD
ENDROOT
BRANCH   1  10
HETATM   10  C   UNK N   1      35.710  12.210  16.816  0.00  0.00     0.047 A 
HETATM   11  C   UNK N   1      35.418  13.451  17.411  0.00  0.00     0.030 A 
HETATM   12  C   UNK N   1      35.143  13.538  18.778  0.00  0.00     0.002 A 
HETATM   13  C   UNK N   1      35.168  12.388  19.571  0.00  0.00     0.000 A 
HETATM   14  C   UNK N   1      35.456  11.150  18.995  0.00  0.00     0.002 A 
HETATM   15  C   UNK N   1      35.718  11.059  17.624  0.00  0.00     0.030 A 
ENDBRANCH   1  10
TORSDOF 1
ENDMDL
MODEL 6
REMARK VINA RESULT:      -5.3      7.986     10.391
REMARK  1 active torsions:
REMARK  status: ('A' for Active; 'I' for Inactive)
REMARK    1  A    between atoms: C_6  and  N_7 
ROOT
HETATM    1  N   UNK N   1      36.418  12.599  14.022  0.00  0.00    -0.250 N 
HETATM    2  S   UNK N   1      36.098  14.256  13.363  0.00  0.00     0.328 S 
HETATM    3  N   UNK N   1      37.100  13.637  12.039  0.00  0.00    -0.235 N 
HETATM    4  C   UNK N   1      37.530  12.380  12.075  0.00  0.00     0.251 A 
HETATM    5  C   UNK N   1      37.171  11.641  13.248  0.00  0.00     0.247 A 
HETATM    6  O   UNK N   1      38.187  11.898  11.166  0.00  0.00    -0.271 OA
HETATM    7  O   UNK N   1      34.723  13.570  13.416  0.00  0.00    -0.182 OA
HETATM    8  O   UNK N   1      35.365  14.343  12.015  0.00  0.00    -0.182 OA
HETATM    9  H   UNK N   1      37.336  14.220  11.281  0.00  0.00     0.183 HD
ENDROOT
BRANCH   1  10
HETATM   10  C   UNK N   1      36.056  12.259  15.372  0.00  0.00     0.047 A 
HETATM   11  C   UNK N   1      36.086  10.922  15.807  0.00  0.00     0.030 A 
HETATM   12  C   UNK N   1      35.718  10.589  17.113  0.00  0.00     0.002 A 
HETATM   13  C   UNK N   1      35.302  11.586  17.998  0.00  0.00     0.000 A 
HETATM   14  C   UNK N   1      35.266  12.918  17.581  0.00  0.00     0.002 A 
HETATM   15  C   UNK N   1      35.647  13.255  16.279  0.00  0.00     0.030 A 
ENDBRANCH   1  10
TORSDOF 1
ENDMDL
MODEL 7
REMARK VINA RESULT:      -5.2      6.254      8.457
REMARK  1 active torsions:
REMARK  status: ('A' for Active; 'I' for Inactive)
REMARK    1  A    between atoms: C_6  and  N_7 
ROOT
HETATM    1  N   UNK N   1      35.948  13.306  12.061  0.00  0.00    -0.250 N 
HETATM    2  S   UNK N   1      37.074  12.642  10.806  0.00  0.00     0.328 S 
HETATM    3  N   UNK N   1      37.123  14.347  10.325  0.00  0.00    -0.235 N 
HETATM    4  C   UNK N   1      36.457  15.248  11.038  0.00  0.00     0.251 A 
HETATM    5  C   UNK N   1      35.697  14.727  12.134  0.00  0.00     0.247 A 
HETATM    6  O   UNK N   1      36.496  16.439  10.768  0.00  0.00    -0.271 OA
HETATM    7  O   UNK N   1      37.780  12.401  12.152  0.00  0.00    -0.182 OA
HETATM    8  O   UNK N   1      38.512  13.183  10.800  0.00  0.00    -0.182 OA
HETATM    9  H   UNK N   1      37.640  14.624   9.533  0.00  0.00     0.183 HD
ENDROOT
BRANCH   1  10
HETATM   10  C   UNK N   1      35.181  12.429  12.904  0.00  0.00     0.047 A 
HETATM   11  C   UNK N   1      34.997  12.724  14.267  0.00  0.00     0.030 A 
HETATM   12  C   UNK N   1      34.267  11.863  15.089  0.00  0.00     0.002 A 
HETATM   13  C   UNK N   1      33.720  10.690  14.565  0.00  0.00     0.000 A 
HETATM   14  C   UNK N   1      33.894  10.384  13.214  0.00  0.00     0.002 A 
HETATM   15  C   UNK N   1      34.612  11.251  12.385  0.00  0.00     0.030 A 
ENDBRANCH   1  10
TORSDOF 1
ENDMDL
MODEL 8
REMARK VINA RESULT:      -5.2      2.928      3.827
REMARK  1 active torsions:
REMARK  status: ('A' for Active; 'I' for Inactive)
REMARK    1  A    between atoms: C_6  and  N_7 
ROOT
HETATM    1  N   UNK N   1      32.294  16.987   8.309  0.00  0.00    -0.250 N 
HETATM    2  S   UNK N   1      33.610  18.181   7.956  0.00  0.00     0.328 S 
HETATM    3  N   UNK N   1      34.610  16.882   8.629  0.00  0.00    -0.235 N 
HETATM    4  C   UNK N   1      34.042  15.736   8.985  0.00  0.00     0.251 A 
HETATM    5  C   UNK N   1      32.619  15.681   8.832  0.00  0.00     0.247 A 
HETATM    6  O   UNK N   1      34.698  14.799   9.414  0.00  0.00    -0.271 OA
HETATM    7  O   UNK N   1      33.024  17.808   6.584  0.00  0.00    -0.182 OA
HETATM    8  O   UNK N   1      34.704  17.746   6.968  0.00  0.00    -0.182 OA
HETATM    9  H   UNK N   1      35.581  17.010   8.738  0.00  0.00     0.183 HD
ENDROOT
BRANCH   1  10
HETATM   10  C   UNK N   1      30.909  17.363   8.213  0.00  0.00     0.047 A 
HETATM   11  C   UNK N   1      30.076  16.786   7.237  0.00  0.00     0.030 A 
HETATM   12  C   UNK N   1      28.735  17.164   7.132  0.00  0.00     0.002 A 
HETATM   13  C   UNK N   1      28.212  18.132   7.991  0.00  0.00     0.000 A 
HETATM   14  C   UNK N   1      29.026  18.714   8.965  0.00  0.00     0.002 A 
HETATM   15  C   UNK N   1      30.365  18.327   9.081  0.00  0.00     0.030 A 
ENDBRANCH   1  10
TORSDOF 1
ENDMDL
MODEL 9
REMARK VINA RESULT:      -5.1     12.134     13.864
REMARK  1 active torsions:
REMARK  status: ('A' for Active; 'I' for Inactive)
REMARK    1  A    between atoms: C_6  and  N_7 
ROOT
HETATM    1  N   UNK N   1      29.299  23.460  -3.983  0.00  0.00    -0.250 N 
HETATM    2  S   UNK N   1      29.706  22.815  -2.340  0.00  0.00     0.328 S 
HETATM    3  N   UNK N   1      30.313  21.461  -3.310  0.00  0.00    -0.235 N 
HETATM    4  C   UNK N   1      30.269  21.534  -4.636  0.00  0.00     0.251 A 
HETATM    5  C   UNK N   1      29.668  22.720  -5.167  0.00  0.00     0.247 A 
HETATM    6  O   UNK N   1      30.714  20.644  -5.344  0.00  0.00    -0.271 OA
HETATM    7  O   UNK N   1      30.570  24.076  -2.505  0.00  0.00    -0.182 OA
HETATM    8  O   UNK N   1      31.188  22.533  -2.046  0.00  0.00    -0.182 OA
HETATM    9  H   UNK N   1      30.679  20.660  -2.869  0.00  0.00     0.183 HD
ENDROOT
BRANCH   1  10
HETATM   10  C   UNK N   1      28.484  24.636  -4.135  0.00  0.00     0.047 A 
HETATM   11  C   UNK N   1      27.237  24.732  -3.492  0.00  0.00     0.030 A 
HETATM   12  C   UNK N   1      26.438  25.866  -3.653  0.00  0.00     0.002 A 
HETATM   13  C   UNK N   1      26.868  26.915  -4.469  0.00  0.00     0.000 A 
HETATM   14  C   UNK N   1      28.103  26.834  -5.114  0.00  0.00     0.002 A 
HETATM   15  C   UNK N   1      28.911  25.706  -4.943  0.00  0.00     0.030 A 
ENDBRANCH   1  10
TORSDOF 1
ENDMDL
