MODEL 1
REMARK VINA RESULT:      -4.6      0.000      0.000
REMARK  3 active torsions:
REMARK  status: ('A' for Active; 'I' for Inactive)
REMARK    1  A    between atoms: N_2  and  N_3 
REMARK       I    between atoms: N_3  and  C_4 
REMARK    2  A    between atoms: C_4  and  O_6 
REMARK    3  A    between atoms: O_6  and  C_7 
ROOT
HETATM    1  C   UNK N   1      37.224  14.235  10.247  0.00  0.00     0.191 C 
HETATM    2  N   UNK N   1      36.477  15.050  11.178  0.00  0.00    -0.228 N 
HETATM    3  C   UNK N   1      35.937  16.244  10.748  0.00  0.00     0.200 C 
HETATM    4  N   UNK N   1      35.474  17.250  10.416  0.00  0.00    -0.170 NA
ENDROOT
BRANCH   2   5
HETATM    5  N   UNK N   1      36.294  14.703  12.498  0.00  0.00    -0.234 N 
HETATM    6  C   UNK N   1      35.320  13.887  12.959  0.00  0.00     0.380 C 
HETATM    7  O   UNK N   1      34.528  13.354  12.194  0.00  0.00    -0.237 OA
HETATM    8  H   UNK N   1      36.921  15.078  13.157  0.00  0.00     0.193 HD
BRANCH   6   9
HETATM    9  O   UNK N   1      35.189  13.739  14.298  0.00  0.00    -0.293 OA
BRANCH   9  10
HETATM   10  C   UNK N   1      35.427  12.565  14.986  0.00  0.00     0.061 C 
HETATM   11  C   UNK N   1      35.601  12.809  16.471  0.00  0.00     0.046 C 
HETATM   12  C   UNK N   1      36.684  11.884  14.462  0.00  0.00     0.046 C 
HETATM   13  C   UNK N   1      34.231  11.659  14.773  0.00  0.00     0.046 C 
ENDBRANCH   9  10
ENDBRANCH   6   9
ENDBRANCH   2   5
TORSDOF 3
ENDMDL
MODEL 2
REMARK VINA RESULT:      -4.5     19.306     22.149
REMARK  3 active torsions:
REMARK  status: ('A' for Active; 'I' for Inactive)
REMARK    1  A    between atoms: N_2  and  N_3 
REMARK       I    between atoms: N_3  and  C_4 
REMARK    2  A    between atoms: C_4  and  O_6 
REMARK    3  A    between atoms: O_6  and  C_7 
ROOT
HETATM    1  C   UNK N   1      29.316  22.797  -4.921  0.00  0.00     0.191 C 
HETATM    2  N   UNK N   1      29.199  23.653  -3.763  0.00  0.00    -0.228 N 
HETATM    3  C   UNK N   1      29.828  23.292  -2.590  0.00  0.00     0.200 C 
HETATM    4  N   UNK N   1      30.343  23.015  -1.593  0.00  0.00    -0.170 NA
ENDROOT
BRANCH   2   5
HETATM    5  N   UNK N   1      28.461  24.817  -3.764  0.00  0.00    -0.234 N 
HETATM    6  C   UNK N   1      27.164  24.913  -3.399  0.00  0.00     0.380 C 
HETATM    7  O   UNK N   1      26.548  23.937  -2.994  0.00  0.00    -0.237 OA
HETATM    8  H   UNK N   1      28.914  25.641  -4.053  0.00  0.00     0.193 HD
BRANCH   6   9
HETATM    9  O   UNK N   1      26.536  26.099  -3.573  0.00  0.00    -0.293 OA
BRANCH   9  10
HETATM   10  C   UNK N   1      26.165  26.621  -4.796  0.00  0.00     0.061 C 
HETATM   11  C   UNK N   1      27.366  27.060  -5.609  0.00  0.00     0.046 C 
HETATM   12  C   UNK N   1      25.250  27.825  -4.609  0.00  0.00     0.046 C 
HETATM   13  C   UNK N   1      25.428  25.535  -5.553  0.00  0.00     0.046 C 
ENDBRANCH   9  10
ENDBRANCH   6   9
ENDBRANCH   2   5
TORSDOF 3
ENDMDL
MODEL 3
REMARK VINA RESULT:      -4.4     14.746     15.588
REMARK  3 active torsions:
REMARK  status: ('A' for Active; 'I' for Inactive)
REMARK    1  A    between atoms: N_2  and  N_3 
REMARK       I    between atoms: N_3  and  C_4 
REMARK    2  A    between atoms: C_4  and  O_6 
REMARK    3  A    between atoms: O_6  and  C_7 
ROOT
HETATM    1  C   UNK N   1      19.427  16.119   6.563  0.00  0.00     0.191 C 
HETATM    2  N   UNK N   1      19.785  16.277   7.954  0.00  0.00    -0.228 N 
HETATM    3  C   UNK N   1      19.052  17.133   8.748  0.00  0.00     0.200 C 
HETATM    4  N   UNK N   1      18.456  17.845   9.437  0.00  0.00    -0.170 NA
ENDROOT
BRANCH   2   5
HETATM    5  N   UNK N   1      20.853  15.624   8.531  0.00  0.00    -0.234 N 
HETATM    6  C   UNK N   1      20.757  14.557   9.354  0.00  0.00     0.380 C 
HETATM    7  O   UNK N   1      19.672  14.060   9.621  0.00  0.00    -0.237 OA
HETATM    8  H   UNK N   1      21.754  15.961   8.328  0.00  0.00     0.193 HD
BRANCH   6   9
HETATM    9  O   UNK N   1      21.886  14.100   9.945  0.00  0.00    -0.293 OA
BRANCH   9  10
HETATM   10  C   UNK N   1      22.466  12.873   9.691  0.00  0.00     0.061 C 
HETATM   11  C   UNK N   1      22.074  12.334   8.331  0.00  0.00     0.046 C 
HETATM   12  C   UNK N   1      22.048  11.856  10.747  0.00  0.00     0.046 C 
HETATM   13  C   UNK N   1      23.969  13.060   9.733  0.00  0.00     0.046 C 
ENDBRANCH   9  10
ENDBRANCH   6   9
ENDBRANCH   2   5
TORSDOF 3
ENDMDL
MODEL 4
REMARK VINA RESULT:      -4.4      2.874      5.788
REMARK  3 active torsions:
REMARK  status: ('A' for Active; 'I' for Inactive)
REMARK    1  A    between atoms: N_2  and  N_3 
REMARK       I    between atoms: N_3  and  C_4 
REMARK    2  A    between atoms: C_4  and  O_6 
REMARK    3  A    between atoms: O_6  and  C_7 
ROOT
HETATM    1  C   UNK N   1      35.297  12.785  11.466  0.00  0.00     0.191 C 
HETATM    2  N   UNK N   1      35.341  14.159  11.909  0.00  0.00    -0.228 N 
HETATM    3  C   UNK N   1      35.972  14.467  13.097  0.00  0.00     0.200 C 
HETATM    4  N   UNK N   1      36.494  14.754  14.087  0.00  0.00    -0.170 NA
ENDROOT
BRANCH   2   5
HETATM    5  N   UNK N   1      34.755  15.191  11.209  0.00  0.00    -0.234 N 
HETATM    6  C   UNK N   1      35.422  16.210  10.624  0.00  0.00     0.380 C 
HETATM    7  O   UNK N   1      36.644  16.262  10.650  0.00  0.00    -0.237 OA
HETATM    8  H   UNK N   1      33.774  15.186  11.130  0.00  0.00     0.193 HD
BRANCH   6   9
HETATM    9  O   UNK N   1      34.702  17.218  10.080  0.00  0.00    -0.293 OA
BRANCH   9  10
HETATM   10  C   UNK N   1      34.206  17.223   8.791  0.00  0.00     0.061 C 
HETATM   11  C   UNK N   1      32.696  17.111   8.768  0.00  0.00     0.046 C 
HETATM   12  C   UNK N   1      34.783  16.063   7.990  0.00  0.00     0.046 C 
HETATM   13  C   UNK N   1      34.612  18.535   8.150  0.00  0.00     0.046 C 
ENDBRANCH   9  10
ENDBRANCH   6   9
ENDBRANCH   2   5
TORSDOF 3
ENDMDL
MODEL 5
REMARK VINA RESULT:      -4.3      1.673      2.065
REMARK  3 active torsions:
REMARK  status: ('A' for Active; 'I' for Inactive)
REMARK    1  A    between atoms: N_2  and  N_3 
REMARK       I    between atoms: N_3  and  C_4 
REMARK    2  A    between atoms: C_4  and  O_6 
REMARK    3  A    between atoms: O_6  and  C_7 
ROOT
HETATM    1  C   UNK N   1      33.347  15.053   9.132  0.00  0.00     0.191 C 
HETATM    2  N   UNK N   1      34.112  15.502  10.272  0.00  0.00    -0.228 N 
HETATM    3  C   UNK N   1      34.890  16.636  10.159  0.00  0.00     0.200 C 
HETATM    4  N   UNK N   1      35.552  17.581  10.094  0.00  0.00    -0.170 NA
ENDROOT
BRANCH   2   5
HETATM    5  N   UNK N   1      34.124  14.834  11.477  0.00  0.00    -0.234 N 
HETATM    6  C   UNK N   1      34.954  13.814  11.791  0.00  0.00     0.380 C 
HETATM    7  O   UNK N   1      35.807  13.429  11.003  0.00  0.00    -0.237 OA
HETATM    8  H   UNK N   1      33.478  15.120  12.161  0.00  0.00     0.193 HD
BRANCH   6   9
HETATM    9  O   UNK N   1      34.763  13.172  12.966  0.00  0.00    -0.293 OA
BRANCH   9  10
HETATM   10  C   UNK N   1      35.668  13.155  14.009  0.00  0.00     0.061 C 
HETATM   11  C   UNK N   1      36.445  14.451  14.103  0.00  0.00     0.046 C 
HETATM   12  C   UNK N   1      36.662  12.013  13.836  0.00  0.00     0.046 C 
HETATM   13  C   UNK N   1      34.885  12.956  15.291  0.00  0.00     0.046 C 
ENDBRANCH   9  10
ENDBRANCH   6   9
ENDBRANCH   2   5
TORSDOF 3
ENDMDL
MODEL 6
REMARK VINA RESULT:      -4.2      5.666      8.252
REMARK  3 active torsions:
REMARK  status: ('A' for Active; 'I' for Inactive)
REMARK    1  A    between atoms: N_2  and  N_3 
REMARK       I    between atoms: N_3  and  C_4 
REMARK    2  A    between atoms: C_4  and  O_6 
REMARK    3  A    between atoms: O_6  and  C_7 
ROOT
HETATM    1  C   UNK N   1      35.506  14.740   8.088  0.00  0.00     0.191 C 
HETATM    2  N   UNK N   1      34.716  15.875   8.504  0.00  0.00    -0.228 N 
HETATM    3  C   UNK N   1      35.119  16.614   9.597  0.00  0.00     0.200 C 
HETATM    4  N   UNK N   1      35.432  17.251  10.510  0.00  0.00    -0.170 NA
ENDROOT
BRANCH   2   5
HETATM    5  N   UNK N   1      33.550  16.249   7.872  0.00  0.00    -0.234 N 
HETATM    6  C   UNK N   1      33.471  17.122   6.844  0.00  0.00     0.380 C 
HETATM    7  O   UNK N   1      34.476  17.629   6.366  0.00  0.00    -0.237 OA
HETATM    8  H   UNK N   1      32.711  15.850   8.195  0.00  0.00     0.193 HD
BRANCH   6   9
HETATM    9  O   UNK N   1      32.243  17.488   6.409  0.00  0.00    -0.293 OA
BRANCH   9  10
HETATM   10  C   UNK N   1      31.624  16.983   5.282  0.00  0.00     0.061 C 
HETATM   11  C   UNK N   1      31.877  15.499   5.118  0.00  0.00     0.046 C 
HETATM   12  C   UNK N   1      32.126  17.694   4.032  0.00  0.00     0.046 C 
HETATM   13  C   UNK N   1      30.135  17.214   5.435  0.00  0.00     0.046 C 
ENDBRANCH   9  10
ENDBRANCH   6   9
ENDBRANCH   2   5
TORSDOF 3
ENDMDL
MODEL 7
REMARK VINA RESULT:      -4.2      2.815      3.742
REMARK  3 active torsions:
REMARK  status: ('A' for Active; 'I' for Inactive)
REMARK    1  A    between atoms: N_2  and  N_3 
REMARK       I    between atoms: N_3  and  C_4 
REMARK    2  A    between atoms: C_4  and  O_6 
REMARK    3  A    between atoms: O_6  and  C_7 
ROOT
HETATM    1  C   UNK N   1      32.679  16.480   8.573  0.00  0.00     0.191 C 
HETATM    2  N   UNK N   1      34.067  16.802   8.811  0.00  0.00    -0.228 N 
HETATM    3  C   UNK N   1      34.532  18.062   8.497  0.00  0.00     0.200 C 
HETATM    4  N   UNK N   1      34.949  19.110   8.244  0.00  0.00    -0.170 NA
ENDROOT
BRANCH   2   5
HETATM    5  N   UNK N   1      34.970  15.894   9.319  0.00  0.00    -0.234 N 
HETATM    6  C   UNK N   1      35.536  15.965  10.544  0.00  0.00     0.380 C 
HETATM    7  O   UNK N   1      35.241  16.859  11.325  0.00  0.00    -0.237 OA
HETATM    8  H   UNK N   1      35.223  15.136   8.746  0.00  0.00     0.193 HD
BRANCH   6   9
HETATM    9  O   UNK N   1      36.502  15.070  10.857  0.00  0.00    -0.293 OA
BRANCH   9  10
HETATM   10  C   UNK N   1      36.322  13.971  11.673  0.00  0.00     0.061 C 
HETATM   11  C   UNK N   1      36.315  14.353  13.139  0.00  0.00     0.046 C 
HETATM   12  C   UNK N   1      37.431  12.951  11.450  0.00  0.00     0.046 C 
HETATM   13  C   UNK N   1      34.984  13.353  11.320  0.00  0.00     0.046 C 
ENDBRANCH   9  10
ENDBRANCH   6   9
ENDBRANCH   2   5
TORSDOF 3
ENDMDL
MODEL 8
REMARK VINA RESULT:      -4.1     23.127     23.800
REMARK  3 active torsions:
REMARK  status: ('A' for Active; 'I' for Inactive)
REMARK    1  A    between atoms: N_2  and  N_3 
REMARK       I    between atoms: N_3  and  C_4 
REMARK    2  A    between atoms: C_4  and  O_6 
REMARK    3  A    between atoms: O_6  and  C_7 
ROOT
HETATM    1  C   UNK N   1      28.059  26.992  -5.212  0.00  0.00     0.191 C 
HETATM    2  N   UNK N   1      26.689  26.676  -4.877  0.00  0.00    -0.228 N 
HETATM    3  C   UNK N   1      26.082  27.333  -3.827  0.00  0.00     0.200 C 
HETATM    4  N   UNK N   1      25.548  27.867  -2.952  0.00  0.00    -0.170 NA
ENDROOT
BRANCH   2   5
HETATM    5  N   UNK N   1      25.956  25.720  -5.545  0.00  0.00    -0.234 N 
HETATM    6  C   UNK N   1      25.802  24.439  -5.145  0.00  0.00     0.380 C 
HETATM    7  O   UNK N   1      26.297  24.040  -4.100  0.00  0.00    -0.237 OA
HETATM    8  H   UNK N   1      25.509  25.992  -6.379  0.00  0.00     0.193 HD
BRANCH   6   9
HETATM    9  O   UNK N   1      25.157  23.582  -5.971  0.00  0.00    -0.293 OA
BRANCH   9  10
HETATM   10  C   UNK N   1      25.724  22.980  -7.078  0.00  0.00     0.061 C 
HETATM   11  C   UNK N   1      27.197  22.695  -6.872  0.00  0.00     0.046 C 
HETATM   12  C   UNK N   1      25.575  23.871  -8.305  0.00  0.00     0.046 C 
HETATM   13  C   UNK N   1      24.996  21.671  -7.308  0.00  0.00     0.046 C 
ENDBRANCH   9  10
ENDBRANCH   6   9
ENDBRANCH   2   5
TORSDOF 3
ENDMDL
MODEL 9
REMARK VINA RESULT:      -4.1      3.318      4.953
REMARK  3 active torsions:
REMARK  status: ('A' for Active; 'I' for Inactive)
REMARK    1  A    between atoms: N_2  and  N_3 
REMARK       I    between atoms: N_3  and  C_4 
REMARK    2  A    between atoms: C_4  and  O_6 
REMARK    3  A    between atoms: O_6  and  C_7 
ROOT
HETATM    1  C   UNK N   1      31.158  17.462   8.033  0.00  0.00     0.191 C 
HETATM    2  N   UNK N   1      32.578  17.220   8.152  0.00  0.00    -0.228 N 
HETATM    3  C   UNK N   1      33.410  17.557   7.105  0.00  0.00     0.200 C 
HETATM    4  N   UNK N   1      34.132  17.829   6.244  0.00  0.00    -0.170 NA
ENDROOT
BRANCH   2   5
HETATM    5  N   UNK N   1      33.148  16.638   9.263  0.00  0.00    -0.234 N 
HETATM    6  C   UNK N   1      33.199  15.310   9.504  0.00  0.00     0.380 C 
HETATM    7  O   UNK N   1      32.754  14.504   8.699  0.00  0.00    -0.237 OA
HETATM    8  H   UNK N   1      33.549  17.237   9.933  0.00  0.00     0.193 HD
BRANCH   6   9
HETATM    9  O   UNK N   1      33.679  14.894  10.699  0.00  0.00    -0.293 OA
BRANCH   9  10
HETATM   10  C   UNK N   1      35.016  14.710  10.989  0.00  0.00     0.061 C 
HETATM   11  C   UNK N   1      35.683  16.000  11.418  0.00  0.00     0.046 C 
HETATM   12  C   UNK N   1      35.758  14.170   9.773  0.00  0.00     0.046 C 
HETATM   13  C   UNK N   1      35.105  13.709  12.124  0.00  0.00     0.046 C 
ENDBRANCH   9  10
ENDBRANCH   6   9
ENDBRANCH   2   5
TORSDOF 3
ENDMDL
