MODEL 1
REMARK VINA RESULT:     -11.1      0.000      0.000
REMARK  2 active torsions:
REMARK  status: ('A' for Active; 'I' for Inactive)
REMARK    1  A    between atoms: O_11  and  C_12 
REMARK    2  A    between atoms: C_18  and  C_19 
ROOT
HETATM    1  C   UNK N   1      21.486  12.093  11.700  0.00  0.00     0.020 A 
HETATM    2  C   UNK N   1      22.069  12.242  11.340  0.00  0.00     0.048 A 
HETATM    3  C   UNK N   1      22.832  12.238  11.222  0.00  0.00    -0.081 A 
HETATM    4  C   UNK N   1      22.929  11.745  12.080  0.00  0.00     0.043 A 
HETATM    5  C   UNK N   1      23.177  12.514  10.677  0.00  0.00    -0.023 A 
HETATM    6  C   UNK N   1      22.639  12.365  11.030  0.00  0.00     0.035 A 
HETATM    7  C   UNK N   1      21.686  12.467  11.004  0.00  0.00     0.024 A 
HETATM    8  C   UNK N   1      21.722  12.949  10.143  0.00  0.00     0.058 A 
HETATM    9  C   UNK N   1      20.825  13.013  10.175  0.00  0.00     0.046 A 
HETATM   10  C   UNK N   1      21.641  13.396   9.363  0.00  0.00     0.046 A 
HETATM   11  O   UNK N   1      22.549  12.945  10.016  0.00  0.00    -0.370 OA
HETATM   12  C   UNK N   1      22.090  12.710  10.507  0.00  0.00     0.163 A 
HETATM   13  C   UNK N   1      22.859  12.513  10.732  0.00  0.00    -0.029 A 
HETATM   14  C   UNK N   1      23.496  12.725  10.252  0.00  0.00     0.012 A 
HETATM   15  C   UNK N   1      24.265  12.527  10.476  0.00  0.00     0.037 A 
HETATM   16  C   UNK N   1      24.397  12.118  11.180  0.00  0.00     0.065 A 
HETATM   17  O   UNK N   1      25.165  11.921  11.405  0.00  0.00    -0.361 OA
HETATM   18  C   UNK N   1      23.760  11.906  11.660  0.00  0.00     0.037 A 
HETATM   19  C   UNK N   1      22.991  12.103  11.436  0.00  0.00     0.012 A 
HETATM   20  H   UNK N   1      25.316  11.456  12.205  0.00  0.00     0.217 HD
ENDROOT
TORSDOF 2
ENDMDL
MODEL 2
REMARK VINA RESULT:     -10.9      0.683      2.330
REMARK  2 active torsions:
REMARK  status: ('A' for Active; 'I' for Inactive)
REMARK    1  A    between atoms: O_11  and  C_12 
REMARK    2  A    between atoms: C_18  and  C_19 
ROOT
HETATM    1  C   UNK N   1      22.900  11.673  12.036  0.00  0.00     0.020 A 
HETATM    2  C   UNK N   1      22.661  12.037  11.486  0.00  0.00     0.048 A 
HETATM    3  C   UNK N   1      22.108  12.363  11.056  0.00  0.00    -0.081 A 
HETATM    4  C   UNK N   1      21.445  12.035  11.721  0.00  0.00     0.043 A 
HETATM    5  C   UNK N   1      22.193  12.718  10.458  0.00  0.00    -0.023 A 
HETATM    6  C   UNK N   1      22.400  12.374  10.982  0.00  0.00     0.035 A 
HETATM    7  C   UNK N   1      23.207  12.040  11.377  0.00  0.00     0.024 A 
HETATM    8  C   UNK N   1      23.762  12.417  10.652  0.00  0.00     0.058 A 
HETATM    9  C   UNK N   1      24.484  12.079  11.069  0.00  0.00     0.046 A 
HETATM   10  C   UNK N   1      24.360  12.717  10.045  0.00  0.00     0.046 A 
HETATM   11  O   UNK N   1      23.163  12.770  10.187  0.00  0.00    -0.370 OA
HETATM   12  C   UNK N   1      23.209  12.396  10.791  0.00  0.00     0.163 A 
HETATM   13  C   UNK N   1      22.420  12.580  10.641  0.00  0.00    -0.029 A 
HETATM   14  C   UNK N   1      22.218  13.013   9.969  0.00  0.00     0.012 A 
HETATM   15  C   UNK N   1      21.427  13.197   9.818  0.00  0.00     0.037 A 
HETATM   16  C   UNK N   1      20.839  12.947  10.341  0.00  0.00     0.065 A 
HETATM   17  O   UNK N   1      20.050  13.130  10.191  0.00  0.00    -0.361 OA
HETATM   18  C   UNK N   1      21.041  12.513  11.013  0.00  0.00     0.037 A 
HETATM   19  C   UNK N   1      21.832  12.330  11.163  0.00  0.00     0.012 A 
HETATM   20  H   UNK N   1      19.381  12.846  10.784  0.00  0.00     0.217 HD
ENDROOT
TORSDOF 2
ENDMDL
MODEL 3
REMARK VINA RESULT:     -10.4     13.636     14.436
REMARK  2 active torsions:
REMARK  status: ('A' for Active; 'I' for Inactive)
REMARK    1  A    between atoms: O_11  and  C_12 
REMARK    2  A    between atoms: C_18  and  C_19 
ROOT
HETATM    1  C   UNK N   1      35.081  13.354  16.668  0.00  0.00     0.020 A 
HETATM    2  C   UNK N   1      35.141  12.944  17.235  0.00  0.00     0.048 A 
HETATM    3  C   UNK N   1      35.179  12.812  17.995  0.00  0.00    -0.081 A 
HETATM    4  C   UNK N   1      35.085  13.792  18.137  0.00  0.00     0.043 A 
HETATM    5  C   UNK N   1      35.251  12.192  18.312  0.00  0.00    -0.023 A 
HETATM    6  C   UNK N   1      35.194  12.592  17.791  0.00  0.00     0.035 A 
HETATM    7  C   UNK N   1      35.167  12.560  16.833  0.00  0.00     0.024 A 
HETATM    8  C   UNK N   1      35.265  11.578  16.825  0.00  0.00     0.058 A 
HETATM    9  C   UNK N   1      35.233  11.611  15.926  0.00  0.00     0.046 A 
HETATM   10  C   UNK N   1      35.351  10.687  16.702  0.00  0.00     0.046 A 
HETATM   11  O   UNK N   1      35.306  11.435  17.648  0.00  0.00    -0.370 OA
HETATM   12  C   UNK N   1      35.236  11.994  17.213  0.00  0.00     0.163 A 
HETATM   13  C   UNK N   1      35.235  12.253  17.996  0.00  0.00    -0.029 A 
HETATM   14  C   UNK N   1      35.310  11.707  18.610  0.00  0.00     0.012 A 
HETATM   15  C   UNK N   1      35.309  11.965  19.394  0.00  0.00     0.037 A 
HETATM   16  C   UNK N   1      35.234  12.769  19.563  0.00  0.00     0.065 A 
HETATM   17  O   UNK N   1      35.233  13.027  20.346  0.00  0.00    -0.361 OA
HETATM   18  C   UNK N   1      35.159  13.315  18.949  0.00  0.00     0.037 A 
HETATM   19  C   UNK N   1      35.160  13.057  18.165  0.00  0.00     0.012 A 
HETATM   20  H   UNK N   1      35.147  13.941  20.539  0.00  0.00     0.217 HD
ENDROOT
TORSDOF 2
ENDMDL
MODEL 4
REMARK VINA RESULT:     -10.3      0.967      1.995
REMARK  2 active torsions:
REMARK  status: ('A' for Active; 'I' for Inactive)
REMARK    1  A    between atoms: O_11  and  C_12 
REMARK    2  A    between atoms: C_18  and  C_19 
ROOT
HETATM    1  C   UNK N   1      21.799  12.068  11.232  0.00  0.00     0.020 A 
HETATM    2  C   UNK N   1      22.494  12.103  11.141  0.00  0.00     0.048 A 
HETATM    3  C   UNK N   1      23.136  12.189  10.721  0.00  0.00    -0.081 A 
HETATM    4  C   UNK N   1      22.557  12.301   9.920  0.00  0.00     0.043 A 
HETATM    5  C   UNK N   1      23.798  12.171  10.951  0.00  0.00    -0.023 A 
HETATM    6  C   UNK N   1      23.141  12.141  11.017  0.00  0.00     0.035 A 
HETATM    7  C   UNK N   1      22.470  12.014  11.690  0.00  0.00     0.024 A 
HETATM    8  C   UNK N   1      23.148  11.919  12.402  0.00  0.00     0.058 A 
HETATM    9  C   UNK N   1      22.474  11.806  12.988  0.00  0.00     0.046 A 
HETATM   10  C   UNK N   1      23.679  11.819  13.126  0.00  0.00     0.046 A 
HETATM   11  O   UNK N   1      23.843  12.013  11.947  0.00  0.00    -0.370 OA
HETATM   12  C   UNK N   1      23.139  12.009  11.839  0.00  0.00     0.163 A 
HETATM   13  C   UNK N   1      23.526  12.136  11.123  0.00  0.00    -0.029 A 
HETATM   14  C   UNK N   1      24.350  12.164  11.098  0.00  0.00     0.012 A 
HETATM   15  C   UNK N   1      24.738  12.290  10.380  0.00  0.00     0.037 A 
HETATM   16  C   UNK N   1      24.301  12.389   9.687  0.00  0.00     0.065 A 
HETATM   17  O   UNK N   1      24.688  12.515   8.971  0.00  0.00    -0.361 OA
HETATM   18  C   UNK N   1      23.477  12.361   9.712  0.00  0.00     0.037 A 
HETATM   19  C   UNK N   1      23.089  12.234  10.430  0.00  0.00     0.012 A 
HETATM   20  H   UNK N   1      24.192  12.627   8.183  0.00  0.00     0.217 HD
ENDROOT
TORSDOF 2
ENDMDL
MODEL 5
REMARK VINA RESULT:     -10.2     13.271     14.355
REMARK  2 active torsions:
REMARK  status: ('A' for Active; 'I' for Inactive)
REMARK    1  A    between atoms: O_11  and  C_12 
REMARK    2  A    between atoms: C_18  and  C_19 
ROOT
HETATM    1  C   UNK N   1      35.223  13.221  19.054  0.00  0.00     0.020 A 
HETATM    2  C   UNK N   1      35.199  12.872  18.445  0.00  0.00     0.048 A 
HETATM    3  C   UNK N   1      35.114  12.816  17.680  0.00  0.00    -0.081 A 
HETATM    4  C   UNK N   1      34.968  13.800  17.658  0.00  0.00     0.043 A 
HETATM    5  C   UNK N   1      35.152  12.234  17.292  0.00  0.00    -0.023 A 
HETATM    6  C   UNK N   1      35.170  12.578  17.855  0.00  0.00     0.035 A 
HETATM    7  C   UNK N   1      35.304  12.452  18.796  0.00  0.00     0.024 A 
HETATM    8  C   UNK N   1      35.432  11.480  18.686  0.00  0.00     0.058 A 
HETATM    9  C   UNK N   1      35.549  11.424  19.577  0.00  0.00     0.046 A 
HETATM   10  C   UNK N   1      35.565  10.587  18.700  0.00  0.00     0.046 A 
HETATM   11  O   UNK N   1      35.340  11.419  17.857  0.00  0.00    -0.370 OA
HETATM   12  C   UNK N   1      35.326  11.930  18.353  0.00  0.00     0.163 A 
HETATM   13  C   UNK N   1      35.187  12.263  17.612  0.00  0.00    -0.029 A 
HETATM   14  C   UNK N   1      35.175  11.783  16.940  0.00  0.00     0.012 A 
HETATM   15  C   UNK N   1      35.036  12.116  16.198  0.00  0.00     0.037 A 
HETATM   16  C   UNK N   1      34.909  12.929  16.128  0.00  0.00     0.065 A 
HETATM   17  O   UNK N   1      34.770  13.261  15.386  0.00  0.00    -0.361 OA
HETATM   18  C   UNK N   1      34.920  13.408  16.799  0.00  0.00     0.037 A 
HETATM   19  C   UNK N   1      35.060  13.075  17.542  0.00  0.00     0.012 A 
HETATM   20  H   UNK N   1      34.625  14.184  15.306  0.00  0.00     0.217 HD
ENDROOT
TORSDOF 2
ENDMDL
MODEL 6
REMARK VINA RESULT:      -9.6     21.895     22.869
REMARK  2 active torsions:
REMARK  status: ('A' for Active; 'I' for Inactive)
REMARK    1  A    between atoms: O_11  and  C_12 
REMARK    2  A    between atoms: C_18  and  C_19 
ROOT
HETATM    1  C   UNK N   1      25.667  26.638  -6.597  0.00  0.00     0.020 A 
HETATM    2  C   UNK N   1      25.908  27.134  -6.163  0.00  0.00     0.048 A 
HETATM    3  C   UNK N   1      25.892  27.561  -5.520  0.00  0.00    -0.081 A 
HETATM    4  C   UNK N   1      25.074  27.064  -5.249  0.00  0.00     0.043 A 
HETATM    5  C   UNK N   1      26.344  28.063  -5.335  0.00  0.00    -0.023 A 
HETATM    6  C   UNK N   1      26.104  27.593  -5.731  0.00  0.00     0.035 A 
HETATM    7  C   UNK N   1      26.285  27.169  -6.572  0.00  0.00     0.024 A 
HETATM    8  C   UNK N   1      27.083  27.729  -6.725  0.00  0.00     0.058 A 
HETATM    9  C   UNK N   1      27.201  27.295  -7.505  0.00  0.00     0.046 A 
HETATM   10  C   UNK N   1      27.825  28.184  -6.966  0.00  0.00     0.046 A 
HETATM   11  O   UNK N   1      27.066  28.191  -6.028  0.00  0.00    -0.370 OA
HETATM   12  C   UNK N   1      26.682  27.669  -6.324  0.00  0.00     0.163 A 
HETATM   13  C   UNK N   1      26.346  27.882  -5.602  0.00  0.00    -0.029 A 
HETATM   14  C   UNK N   1      26.689  28.479  -5.148  0.00  0.00     0.012 A 
HETATM   15  C   UNK N   1      26.353  28.693  -4.425  0.00  0.00     0.037 A 
HETATM   16  C   UNK N   1      25.673  28.309  -4.157  0.00  0.00     0.065 A 
HETATM   17  O   UNK N   1      25.337  28.522  -3.435  0.00  0.00    -0.361 OA
HETATM   18  C   UNK N   1      25.330  27.712  -4.612  0.00  0.00     0.037 A 
HETATM   19  C   UNK N   1      25.666  27.499  -5.335  0.00  0.00     0.012 A 
HETATM   20  H   UNK N   1      24.565  28.087  -3.130  0.00  0.00     0.217 HD
ENDROOT
TORSDOF 2
ENDMDL
MODEL 7
REMARK VINA RESULT:      -9.5     13.786     14.298
REMARK  2 active torsions:
REMARK  status: ('A' for Active; 'I' for Inactive)
REMARK    1  A    between atoms: O_11  and  C_12 
REMARK    2  A    between atoms: C_18  and  C_19 
ROOT
HETATM    1  C   UNK N   1      35.271  13.338  16.468  0.00  0.00     0.020 A 
HETATM    2  C   UNK N   1      35.273  12.795  16.913  0.00  0.00     0.048 A 
HETATM    3  C   UNK N   1      35.295  12.044  17.091  0.00  0.00    -0.081 A 
HETATM    4  C   UNK N   1      35.348  11.848  16.118  0.00  0.00     0.043 A 
HETATM    5  C   UNK N   1      35.277  11.762  17.732  0.00  0.00    -0.023 A 
HETATM    6  C   UNK N   1      35.277  12.260  17.300  0.00  0.00     0.035 A 
HETATM    7  C   UNK N   1      35.239  13.218  17.274  0.00  0.00     0.024 A 
HETATM    8  C   UNK N   1      35.190  13.281  18.257  0.00  0.00     0.058 A 
HETATM    9  C   UNK N   1      35.158  14.176  18.170  0.00  0.00     0.046 A 
HETATM   10  C   UNK N   1      35.142  13.453  19.143  0.00  0.00     0.046 A 
HETATM   11  O   UNK N   1      35.214  12.467  18.451  0.00  0.00    -0.370 OA
HETATM   12  C   UNK N   1      35.225  12.870  17.864  0.00  0.00     0.163 A 
HETATM   13  C   UNK N   1      35.268  12.075  17.652  0.00  0.00    -0.029 A 
HETATM   14  C   UNK N   1      35.264  11.492  18.237  0.00  0.00     0.012 A 
HETATM   15  C   UNK N   1      35.307  10.695  18.025  0.00  0.00     0.037 A 
HETATM   16  C   UNK N   1      35.352  10.482  17.229  0.00  0.00     0.065 A 
HETATM   17  O   UNK N   1      35.395   9.686  17.018  0.00  0.00    -0.361 OA
HETATM   18  C   UNK N   1      35.356  11.065  16.645  0.00  0.00     0.037 A 
HETATM   19  C   UNK N   1      35.314  11.861  16.857  0.00  0.00     0.012 A 
HETATM   20  H   UNK N   1      35.447   9.443  16.114  0.00  0.00     0.217 HD
ENDROOT
TORSDOF 2
ENDMDL
MODEL 8
REMARK VINA RESULT:      -9.4     21.912     22.727
REMARK  2 active torsions:
REMARK  status: ('A' for Active; 'I' for Inactive)
REMARK    1  A    between atoms: O_11  and  C_12 
REMARK    2  A    between atoms: C_18  and  C_19 
ROOT
HETATM    1  C   UNK N   1      27.124  28.085  -6.486  0.00  0.00     0.020 A 
HETATM    2  C   UNK N   1      26.709  28.058  -5.921  0.00  0.00     0.048 A 
HETATM    3  C   UNK N   1      26.458  28.299  -5.231  0.00  0.00    -0.081 A 
HETATM    4  C   UNK N   1      27.149  29.014  -5.267  0.00  0.00     0.043 A 
HETATM    5  C   UNK N   1      25.939  28.023  -4.851  0.00  0.00    -0.023 A 
HETATM    6  C   UNK N   1      26.338  28.064  -5.375  0.00  0.00     0.035 A 
HETATM    7  C   UNK N   1      26.509  27.627  -6.211  0.00  0.00     0.024 A 
HETATM    8  C   UNK N   1      25.789  26.969  -6.058  0.00  0.00     0.058 A 
HETATM    9  C   UNK N   1      25.996  26.602  -6.853  0.00  0.00     0.046 A 
HETATM   10  C   UNK N   1      25.160  26.322  -6.020  0.00  0.00     0.046 A 
HETATM   11  O   UNK N   1      25.517  27.230  -5.311  0.00  0.00    -0.370 OA
HETATM   12  C   UNK N   1      26.016  27.415  -5.785  0.00  0.00     0.163 A 
HETATM   13  C   UNK N   1      26.047  27.926  -5.139  0.00  0.00    -0.029 A 
HETATM   14  C   UNK N   1      25.522  27.829  -4.510  0.00  0.00     0.012 A 
HETATM   15  C   UNK N   1      25.554  28.341  -3.863  0.00  0.00     0.037 A 
HETATM   16  C   UNK N   1      26.110  28.950  -3.846  0.00  0.00     0.065 A 
HETATM   17  O   UNK N   1      26.141  29.462  -3.200  0.00  0.00    -0.361 OA
HETATM   18  C   UNK N   1      26.635  29.048  -4.475  0.00  0.00     0.037 A 
HETATM   19  C   UNK N   1      26.604  28.536  -5.122  0.00  0.00     0.012 A 
HETATM   20  H   UNK N   1      26.773  30.154  -3.180  0.00  0.00     0.217 HD
ENDROOT
TORSDOF 2
ENDMDL
MODEL 9
REMARK VINA RESULT:      -9.2     13.942     14.294
REMARK  2 active torsions:
REMARK  status: ('A' for Active; 'I' for Inactive)
REMARK    1  A    between atoms: O_11  and  C_12 
REMARK    2  A    between atoms: C_18  and  C_19 
ROOT
HETATM    1  C   UNK N   1      35.196  11.804  16.864  0.00  0.00     0.020 A 
HETATM    2  C   UNK N   1      35.501  12.373  16.588  0.00  0.00     0.048 A 
HETATM    3  C   UNK N   1      35.886  12.757  16.041  0.00  0.00    -0.081 A 
HETATM    4  C   UNK N   1      35.904  11.917  15.509  0.00  0.00     0.043 A 
HETATM    5  C   UNK N   1      36.078  13.431  16.054  0.00  0.00    -0.023 A 
HETATM    6  C   UNK N   1      35.797  12.886  16.297  0.00  0.00     0.035 A 
HETATM    7  C   UNK N   1      35.321  12.581  17.072  0.00  0.00     0.024 A 
HETATM    8  C   UNK N   1      35.370  13.470  17.499  0.00  0.00     0.058 A 
HETATM    9  C   UNK N   1      34.920  13.127  18.199  0.00  0.00     0.046 A 
HETATM   10  C   UNK N   1      35.358  14.236  17.977  0.00  0.00     0.046 A 
HETATM   11  O   UNK N   1      35.788  13.887  16.906  0.00  0.00    -0.370 OA
HETATM   12  C   UNK N   1      35.541  13.228  17.012  0.00  0.00     0.163 A 
HETATM   13  C   UNK N   1      35.917  13.265  16.280  0.00  0.00    -0.029 A 
HETATM   14  C   UNK N   1      36.253  13.975  16.025  0.00  0.00     0.012 A 
HETATM   15  C   UNK N   1      36.630  14.013  15.291  0.00  0.00     0.037 A 
HETATM   16  C   UNK N   1      36.671  13.342  14.813  0.00  0.00     0.065 A 
HETATM   17  O   UNK N   1      37.047  13.380  14.081  0.00  0.00    -0.361 OA
HETATM   18  C   UNK N   1      36.335  12.632  15.068  0.00  0.00     0.037 A 
HETATM   19  C   UNK N   1      35.958  12.594  15.801  0.00  0.00     0.012 A 
HETATM   20  H   UNK N   1      37.093  12.617  13.537  0.00  0.00     0.217 HD
ENDROOT
TORSDOF 2
ENDMDL
