REMARK  2 active torsions:
REMARK  status: ('A' for Active; 'I' for Inactive)
REMARK    1  A    between atoms: O_11  and  C_12 
REMARK    2  A    between atoms: C_18  and  C_19 
ROOT
HETATM    1  C   UNK N   1       1.205   0.894   0.000  0.00  0.00     0.020 A 
HETATM    2  C   UNK N   1       0.655   0.458   0.000  0.00  0.00     0.048 A 
HETATM    3  C   UNK N   1      -0.099   0.292   0.000  0.00  0.00    -0.081 A 
HETATM    4  C   UNK N   1      -0.281   1.270   0.000  0.00  0.00     0.043 A 
HETATM    5  C   UNK N   1      -0.391  -0.345   0.000  0.00  0.00    -0.023 A 
HETATM    6  C   UNK N   1       0.114   0.080   0.000  0.00  0.00     0.035 A 
HETATM    7  C   UNK N   1       1.073   0.090   0.000  0.00  0.00     0.024 A 
HETATM    8  C   UNK N   1       1.121  -0.896   0.000  0.00  0.00     0.058 A 
HETATM    9  C   UNK N   1       2.018  -0.823   0.000  0.00  0.00     0.046 A 
HETATM   10  C   UNK N   1       1.280  -1.785   0.000  0.00  0.00     0.046 A 
HETATM   11  O   UNK N   1       0.304  -1.076   0.000  0.00  0.00    -0.370 OA
HETATM   12  C   UNK N   1       0.716  -0.495   0.000  0.00  0.00     0.163 A 
HETATM   13  C   UNK N   1      -0.077  -0.270   0.000  0.00  0.00    -0.029 A 
HETATM   14  C   UNK N   1      -0.669  -0.845   0.000  0.00  0.00     0.012 A 
HETATM   15  C   UNK N   1      -1.463  -0.620   0.000  0.00  0.00     0.037 A 
HETATM   16  C   UNK N   1      -1.665   0.180   0.000  0.00  0.00     0.065 A 
HETATM   17  O   UNK N   1      -2.458   0.405   0.000  0.00  0.00    -0.361 OA
HETATM   18  C   UNK N   1      -1.073   0.755   0.000  0.00  0.00     0.037 A 
HETATM   19  C   UNK N   1      -0.279   0.530   0.000  0.00  0.00     0.012 A 
HETATM   20  H   UNK N   1      -2.688   1.314   0.000  0.00  0.00     0.217 HD
ENDROOT
TORSDOF 2
