REMARK  4 active torsions:
REMARK  status: ('A' for Active; 'I' for Inactive)
REMARK    1  A    between atoms: N_6  and  C_7 
REMARK    2  A    between atoms: C_8  and  C_7 
REMARK    3  A    between atoms: C_10  and  O_11 
REMARK    4  A    between atoms: C_13  and  N_14 
ROOT
HETATM    1  C   UNK N   1       0.398   0.773  -0.185  0.00  0.00     0.181 C 
HETATM    2  O   UNK N   1       1.310  -0.118   0.442  0.00  0.00    -0.356 OA
HETATM    3  C   UNK N   1      -0.878  -0.010  -0.509  0.00  0.00     0.153 C 
HETATM    4  C   UNK N   1      -0.287  -1.342  -0.792  0.00  0.00     0.088 C 
HETATM    5  C   UNK N   1       0.714  -1.401   0.352  0.00  0.00     0.235 C 
ENDROOT
BRANCH   5   6
HETATM    6  N   UNK N   1       1.674  -2.502   0.157  0.00  0.00    -0.282 N 
HETATM    7  C   UNK N   1       3.008  -2.253   0.023  0.00  0.00     0.110 A 
HETATM    8  C   UNK N   1       3.917  -3.304  -0.122  0.00  0.00     0.022 A 
HETATM    9  C   UNK N   1       5.372  -3.012  -0.265  0.00  0.00     0.056 C 
HETATM   10  C   UNK N   1       3.436  -4.618  -0.121  0.00  0.00     0.256 A 
HETATM   11  O   UNK N   1       4.201  -5.560  -0.236  0.00  0.00    -0.267 OA
HETATM   12  N   UNK N   1       2.098  -4.847   0.013  0.00  0.00    -0.275 N 
HETATM   13  C   UNK N   1       1.215  -3.810   0.151  0.00  0.00     0.331 A 
HETATM   14  H   UNK N   1       1.763  -5.772   0.009  0.00  0.00     0.173 HD
HETATM   15  O   UNK N   1       0.029  -4.054   0.284  0.00  0.00    -0.246 OA
ENDBRANCH   5   6
BRANCH   1  16
HETATM   16  C   UNK N   1       0.130   2.013   0.684  0.00  0.00     0.306 C 
BRANCH  16  17
HETATM   17  N   UNK N   1      -0.900   2.856   0.085  0.00  0.00     0.091 N 
HETATM   18  C   UNK N   1      -2.154   2.623   0.800  0.00  0.00     0.272 C 
HETATM   19  C   UNK N   1      -3.280   3.373   0.102  0.00  0.00     0.030 C 
HETATM   20  C   UNK N   1      -2.971   4.866   0.125  0.00  0.00     0.003 C 
HETATM   21  C   UNK N   1      -1.572   5.143  -0.432  0.00  0.00     0.030 C 
HETATM   22  C   UNK N   1      -0.537   4.258   0.269  0.00  0.00     0.272 C 
ENDBRANCH  16  17
ENDBRANCH   1  16
BRANCH   3  23
HETATM   23  O   UNK N   1      -1.711  -0.138   0.610  0.00  0.00    -0.393 OA
HETATM   24  H   UNK N   1      -2.076   0.317   1.385  0.00  0.00     0.210 HD
ENDBRANCH   3  23
TORSDOF 4
