MODEL 1
REMARK VINA RESULT:      -6.9      0.000      0.000
REMARK  4 active torsions:
REMARK  status: ('A' for Active; 'I' for Inactive)
REMARK    1  A    between atoms: N_6  and  C_7 
REMARK    2  A    between atoms: C_8  and  C_7 
REMARK    3  A    between atoms: C_10  and  O_11 
REMARK    4  A    between atoms: C_13  and  N_14 
ROOT
HETATM    1  C   UNK N   1      35.791  13.207  12.231  0.00  0.00     0.181 C 
HETATM    2  O   UNK N   1      35.242  14.477  11.907  0.00  0.00    -0.356 OA
HETATM    3  C   UNK N   1      36.799  12.837  11.139  0.00  0.00     0.153 C 
HETATM    4  C   UNK N   1      36.144  13.475   9.969  0.00  0.00     0.088 C 
HETATM    5  C   UNK N   1      35.740  14.791  10.617  0.00  0.00     0.235 C 
ENDROOT
BRANCH   5   6
HETATM    6  N   UNK N   1      34.791  15.529   9.765  0.00  0.00    -0.282 N 
HETATM    7  C   UNK N   1      33.887  14.868   8.987  0.00  0.00     0.110 A 
HETATM    8  C   UNK N   1      32.964  15.574   8.212  0.00  0.00     0.022 A 
HETATM    9  C   UNK N   1      31.983  14.834   7.368  0.00  0.00     0.056 C 
HETATM   10  C   UNK N   1      32.978  16.973   8.253  0.00  0.00     0.256 A 
HETATM   11  O   UNK N   1      32.181  17.622   7.597  0.00  0.00    -0.267 OA
HETATM   12  N   UNK N   1      33.890  17.617   9.037  0.00  0.00    -0.275 N 
HETATM   13  C   UNK N   1      34.792  16.915   9.790  0.00  0.00     0.331 A 
HETATM   14  H   UNK N   1      33.899  18.600   9.060  0.00  0.00     0.173 HD
HETATM   15  O   UNK N   1      35.582  17.524  10.490  0.00  0.00    -0.246 OA
ENDBRANCH   5   6
BRANCH   1  16
HETATM   16  C   UNK N   1      36.410  13.200  13.638  0.00  0.00     0.306 C 
BRANCH  16  17
HETATM   17  N   UNK N   1      35.540  12.510  14.586  0.00  0.00     0.091 N 
HETATM   18  C   UNK N   1      34.775  11.501  13.854  0.00  0.00     0.272 C 
HETATM   19  C   UNK N   1      33.751  10.870  14.787  0.00  0.00     0.030 C 
HETATM   20  C   UNK N   1      34.481  10.192  15.941  0.00  0.00     0.003 C 
HETATM   21  C   UNK N   1      35.453  11.162  16.617  0.00  0.00     0.030 C 
HETATM   22  C   UNK N   1      36.363  11.816  15.572  0.00  0.00     0.272 C 
ENDBRANCH  16  17
ENDBRANCH   1  16
BRANCH   3  23
HETATM   23  O   UNK N   1      38.036  13.465  11.335  0.00  0.00    -0.393 OA
HETATM   24  H   UNK N   1      38.727  13.673  11.982  0.00  0.00     0.210 HD
ENDBRANCH   3  23
TORSDOF 4
ENDMDL
MODEL 2
REMARK VINA RESULT:      -6.7     12.357     15.254
REMARK  4 active torsions:
REMARK  status: ('A' for Active; 'I' for Inactive)
REMARK    1  A    between atoms: N_6  and  C_7 
REMARK    2  A    between atoms: C_8  and  C_7 
REMARK    3  A    between atoms: C_10  and  O_11 
REMARK    4  A    between atoms: C_13  and  N_14 
ROOT
HETATM    1  C   UNK N   1      23.041  18.499   3.966  0.00  0.00     0.181 C 
HETATM    2  O   UNK N   1      22.852  18.176   5.336  0.00  0.00    -0.356 OA
HETATM    3  C   UNK N   1      21.678  18.878   3.379  0.00  0.00     0.153 C 
HETATM    4  C   UNK N   1      20.806  17.980   4.176  0.00  0.00     0.088 C 
HETATM    5  C   UNK N   1      21.450  18.180   5.540  0.00  0.00     0.235 C 
ENDROOT
BRANCH   5   6
HETATM    6  N   UNK N   1      20.974  17.169   6.501  0.00  0.00    -0.282 N 
HETATM    7  C   UNK N   1      21.052  15.838   6.214  0.00  0.00     0.110 A 
HETATM    8  C   UNK N   1      20.636  14.884   7.146  0.00  0.00     0.022 A 
HETATM    9  C   UNK N   1      20.731  13.433   6.815  0.00  0.00     0.056 C 
HETATM   10  C   UNK N   1      20.144  15.317   8.382  0.00  0.00     0.256 A 
HETATM   11  O   UNK N   1      19.781  14.512   9.223  0.00  0.00    -0.267 OA
HETATM   12  N   UNK N   1      20.073  16.652   8.650  0.00  0.00    -0.275 N 
HETATM   13  C   UNK N   1      20.480  17.580   7.729  0.00  0.00     0.331 A 
HETATM   14  H   UNK N   1      19.722  16.953   9.519  0.00  0.00     0.173 HD
HETATM   15  O   UNK N   1      20.416  18.763   8.010  0.00  0.00    -0.246 OA
ENDBRANCH   5   6
BRANCH   1  16
HETATM   16  C   UNK N   1      24.095  19.605   3.785  0.00  0.00     0.306 C 
BRANCH  16  17
HETATM   17  N   UNK N   1      25.318  19.283   4.513  0.00  0.00     0.091 N 
HETATM   18  C   UNK N   1      26.195  18.525   3.620  0.00  0.00     0.272 C 
HETATM   19  C   UNK N   1      27.412  18.044   4.397  0.00  0.00     0.030 C 
HETATM   20  C   UNK N   1      28.175  19.255   4.925  0.00  0.00     0.003 C 
HETATM   21  C   UNK N   1      27.244  20.190   5.702  0.00  0.00     0.030 C 
HETATM   22  C   UNK N   1      26.005  20.521   4.865  0.00  0.00     0.272 C 
ENDBRANCH  16  17
ENDBRANCH   1  16
BRANCH   3  23
HETATM   23  O   UNK N   1      21.328  20.200   3.683  0.00  0.00    -0.393 OA
HETATM   24  H   UNK N   1      21.058  20.808   4.389  0.00  0.00     0.210 HD
ENDBRANCH   3  23
TORSDOF 4
ENDMDL
MODEL 3
REMARK VINA RESULT:      -6.7      2.076      7.639
REMARK  4 active torsions:
REMARK  status: ('A' for Active; 'I' for Inactive)
REMARK    1  A    between atoms: N_6  and  C_7 
REMARK    2  A    between atoms: C_8  and  C_7 
REMARK    3  A    between atoms: C_10  and  O_11 
REMARK    4  A    between atoms: C_13  and  N_14 
ROOT
HETATM    1  C   UNK N   1      34.682  14.752  11.191  0.00  0.00     0.181 C 
HETATM    2  O   UNK N   1      35.056  13.497  11.743  0.00  0.00    -0.356 OA
HETATM    3  C   UNK N   1      35.776  15.765  11.543  0.00  0.00     0.153 C 
HETATM    4  C   UNK N   1      36.188  15.236  12.867  0.00  0.00     0.088 C 
HETATM    5  C   UNK N   1      36.206  13.753  12.531  0.00  0.00     0.235 C 
ENDROOT
BRANCH   5   6
HETATM    6  N   UNK N   1      36.297  12.935  13.754  0.00  0.00    -0.282 N 
HETATM    7  C   UNK N   1      35.664  13.317  14.900  0.00  0.00     0.110 A 
HETATM    8  C   UNK N   1      35.721  12.517  16.044  0.00  0.00     0.022 A 
HETATM    9  C   UNK N   1      35.021  12.950  17.287  0.00  0.00     0.056 C 
HETATM   10  C   UNK N   1      36.434  11.314  15.993  0.00  0.00     0.256 A 
HETATM   11  O   UNK N   1      36.497  10.587  16.969  0.00  0.00    -0.267 OA
HETATM   12  N   UNK N   1      37.061  10.950  14.837  0.00  0.00    -0.275 N 
HETATM   13  C   UNK N   1      37.002  11.742  13.722  0.00  0.00     0.331 A 
HETATM   14  H   UNK N   1      37.565  10.106  14.806  0.00  0.00     0.173 HD
HETATM   15  O   UNK N   1      37.562  11.377  12.704  0.00  0.00    -0.246 OA
ENDBRANCH   5   6
BRANCH   1  16
HETATM   16  C   UNK N   1      34.429  14.652   9.678  0.00  0.00     0.306 C 
BRANCH  16  17
HETATM   17  N   UNK N   1      33.876  15.899   9.159  0.00  0.00     0.091 N 
HETATM   18  C   UNK N   1      34.580  16.231   7.921  0.00  0.00     0.272 C 
HETATM   19  C   UNK N   1      34.131  17.603   7.438  0.00  0.00     0.030 C 
HETATM   20  C   UNK N   1      32.633  17.564   7.156  0.00  0.00     0.003 C 
HETATM   21  C   UNK N   1      31.863  17.025   8.365  0.00  0.00     0.030 C 
HETATM   22  C   UNK N   1      32.468  15.697   8.829  0.00  0.00     0.272 C 
ENDBRANCH  16  17
ENDBRANCH   1  16
BRANCH   3  23
HETATM   23  O   UNK N   1      36.875  15.668  10.680  0.00  0.00    -0.393 OA
HETATM   24  H   UNK N   1      37.662  15.149  10.450  0.00  0.00     0.210 HD
ENDBRANCH   3  23
TORSDOF 4
ENDMDL
MODEL 4
REMARK VINA RESULT:      -6.5      3.191      5.225
REMARK  4 active torsions:
REMARK  status: ('A' for Active; 'I' for Inactive)
REMARK    1  A    between atoms: N_6  and  C_7 
REMARK    2  A    between atoms: C_8  and  C_7 
REMARK    3  A    between atoms: C_10  and  O_11 
REMARK    4  A    between atoms: C_13  and  N_14 
ROOT
HETATM    1  C   UNK N   1      34.271  16.679   8.819  0.00  0.00     0.181 C 
HETATM    2  O   UNK N   1      32.893  16.808   9.142  0.00  0.00    -0.356 OA
HETATM    3  C   UNK N   1      34.616  17.758   7.788  0.00  0.00     0.153 C 
HETATM    4  C   UNK N   1      33.326  17.824   7.056  0.00  0.00     0.088 C 
HETATM    5  C   UNK N   1      32.380  17.779   8.246  0.00  0.00     0.235 C 
ENDROOT
BRANCH   5   6
HETATM    6  N   UNK N   1      30.995  17.528   7.810  0.00  0.00    -0.282 N 
HETATM    7  C   UNK N   1      30.731  16.705   6.754  0.00  0.00     0.110 A 
HETATM    8  C   UNK N   1      29.414  16.440   6.371  0.00  0.00     0.022 A 
HETATM    9  C   UNK N   1      29.145  15.537   5.215  0.00  0.00     0.056 C 
HETATM   10  C   UNK N   1      28.369  17.028   7.092  0.00  0.00     0.256 A 
HETATM   11  O   UNK N   1      27.208  16.811   6.792  0.00  0.00    -0.267 OA
HETATM   12  N   UNK N   1      28.653  17.848   8.144  0.00  0.00    -0.275 N 
HETATM   13  C   UNK N   1      29.947  18.105   8.510  0.00  0.00     0.331 A 
HETATM   14  H   UNK N   1      27.915  18.263   8.647  0.00  0.00     0.173 HD
HETATM   15  O   UNK N   1      30.161  18.830   9.465  0.00  0.00    -0.246 OA
ENDBRANCH   5   6
BRANCH   1  16
HETATM   16  C   UNK N   1      35.156  16.751  10.074  0.00  0.00     0.306 C 
BRANCH  16  17
HETATM   17  N   UNK N   1      35.369  15.422  10.638  0.00  0.00     0.091 N 
HETATM   18  C   UNK N   1      36.428  14.766   9.872  0.00  0.00     0.272 C 
HETATM   19  C   UNK N   1      36.568  13.323  10.339  0.00  0.00     0.030 C 
HETATM   20  C   UNK N   1      36.950  13.314  11.815  0.00  0.00     0.003 C 
HETATM   21  C   UNK N   1      35.977  14.163  12.637  0.00  0.00     0.030 C 
HETATM   22  C   UNK N   1      35.834  15.556  12.015  0.00  0.00     0.272 C 
ENDBRANCH  16  17
ENDBRANCH   1  16
BRANCH   3  23
HETATM   23  O   UNK N   1      34.833  19.005   8.389  0.00  0.00    -0.393 OA
HETATM   24  H   UNK N   1      34.574  19.940   8.397  0.00  0.00     0.210 HD
ENDBRANCH   3  23
TORSDOF 4
ENDMDL
MODEL 5
REMARK VINA RESULT:      -6.3      2.851      7.701
REMARK  4 active torsions:
REMARK  status: ('A' for Active; 'I' for Inactive)
REMARK    1  A    between atoms: N_6  and  C_7 
REMARK    2  A    between atoms: C_8  and  C_7 
REMARK    3  A    between atoms: C_10  and  O_11 
REMARK    4  A    between atoms: C_13  and  N_14 
ROOT
HETATM    1  C   UNK N   1      32.796  16.978   8.437  0.00  0.00     0.181 C 
HETATM    2  O   UNK N   1      33.436  15.719   8.596  0.00  0.00    -0.356 OA
HETATM    3  C   UNK N   1      33.881  18.031   8.194  0.00  0.00     0.153 C 
HETATM    4  C   UNK N   1      34.972  17.459   9.023  0.00  0.00     0.088 C 
HETATM    5  C   UNK N   1      34.825  15.998   8.627  0.00  0.00     0.235 C 
ENDROOT
BRANCH   5   6
HETATM    6  N   UNK N   1      35.597  15.126   9.531  0.00  0.00    -0.282 N 
HETATM    7  C   UNK N   1      35.512  15.269  10.884  0.00  0.00     0.110 A 
HETATM    8  C   UNK N   1      36.215  14.413  11.736  0.00  0.00     0.022 A 
HETATM    9  C   UNK N   1      36.108  14.583  13.213  0.00  0.00     0.056 C 
HETATM   10  C   UNK N   1      37.005  13.403  11.176  0.00  0.00     0.256 A 
HETATM   11  O   UNK N   1      37.626  12.633  11.889  0.00  0.00    -0.267 OA
HETATM   12  N   UNK N   1      37.079  13.277   9.820  0.00  0.00    -0.275 N 
HETATM   13  C   UNK N   1      36.388  14.122   8.994  0.00  0.00     0.331 A 
HETATM   14  H   UNK N   1      37.639  12.568   9.430  0.00  0.00     0.173 HD
HETATM   15  O   UNK N   1      36.466  13.969   7.788  0.00  0.00    -0.246 OA
ENDBRANCH   5   6
BRANCH   1  16
HETATM   16  C   UNK N   1      31.743  16.940   7.318  0.00  0.00     0.306 C 
BRANCH  16  17
HETATM   17  N   UNK N   1      30.402  17.143   7.857  0.00  0.00     0.091 N 
HETATM   18  C   UNK N   1      30.461  18.231   8.833  0.00  0.00     0.272 C 
HETATM   19  C   UNK N   1      29.111  18.364   9.523  0.00  0.00     0.030 C 
HETATM   20  C   UNK N   1      28.051  18.697   8.479  0.00  0.00     0.003 C 
HETATM   21  C   UNK N   1      28.086  17.693   7.324  0.00  0.00     0.030 C 
HETATM   22  C   UNK N   1      29.511  17.561   6.779  0.00  0.00     0.272 C 
ENDBRANCH  16  17
ENDBRANCH   1  16
BRANCH   3  23
HETATM   23  O   UNK N   1      34.313  18.038   6.861  0.00  0.00    -0.393 OA
HETATM   24  H   UNK N   1      34.862  17.586   6.202  0.00  0.00     0.210 HD
ENDBRANCH   3  23
TORSDOF 4
ENDMDL
MODEL 6
REMARK VINA RESULT:      -6.3      2.562      8.036
REMARK  4 active torsions:
REMARK  status: ('A' for Active; 'I' for Inactive)
REMARK    1  A    between atoms: N_6  and  C_7 
REMARK    2  A    between atoms: C_8  and  C_7 
REMARK    3  A    between atoms: C_10  and  O_11 
REMARK    4  A    between atoms: C_13  and  N_14 
ROOT
HETATM    1  C   UNK N   1      33.616  16.239   7.445  0.00  0.00     0.181 C 
HETATM    2  O   UNK N   1      34.756  16.048   8.271  0.00  0.00    -0.356 OA
HETATM    3  C   UNK N   1      32.378  16.245   8.347  0.00  0.00     0.153 C 
HETATM    4  C   UNK N   1      32.822  15.282   9.386  0.00  0.00     0.088 C 
HETATM    5  C   UNK N   1      34.249  15.776   9.566  0.00  0.00     0.235 C 
ENDROOT
BRANCH   5   6
HETATM    6  N   UNK N   1      35.049  14.809  10.339  0.00  0.00    -0.282 N 
HETATM    7  C   UNK N   1      34.647  13.512  10.468  0.00  0.00     0.110 A 
HETATM    8  C   UNK N   1      35.429  12.591  11.168  0.00  0.00     0.022 A 
HETATM    9  C   UNK N   1      34.974  11.177  11.297  0.00  0.00     0.056 C 
HETATM   10  C   UNK N   1      36.637  13.020  11.730  0.00  0.00     0.256 A 
HETATM   11  O   UNK N   1      37.350  12.241  12.340  0.00  0.00    -0.267 OA
HETATM   12  N   UNK N   1      37.022  14.321  11.592  0.00  0.00    -0.275 N 
HETATM   13  C   UNK N   1      36.246  15.217  10.906  0.00  0.00     0.331 A 
HETATM   14  H   UNK N   1      37.869  14.620  11.992  0.00  0.00     0.173 HD
HETATM   15  O   UNK N   1      36.630  16.367  10.790  0.00  0.00    -0.246 OA
ENDBRANCH   5   6
BRANCH   1  16
HETATM   16  C   UNK N   1      33.739  17.514   6.596  0.00  0.00     0.306 C 
BRANCH  16  17
HETATM   17  N   UNK N   1      33.509  17.224   5.184  0.00  0.00     0.091 N 
HETATM   18  C   UNK N   1      33.809  15.812   4.953  0.00  0.00     0.272 C 
HETATM   19  C   UNK N   1      33.725  15.515   3.462  0.00  0.00     0.030 C 
HETATM   20  C   UNK N   1      32.308  15.802   2.978  0.00  0.00     0.003 C 
HETATM   21  C   UNK N   1      31.869  17.214   3.378  0.00  0.00     0.030 C 
HETATM   22  C   UNK N   1      32.097  17.435   4.876  0.00  0.00     0.272 C 
ENDBRANCH  16  17
ENDBRANCH   1  16
BRANCH   3  23
HETATM   23  O   UNK N   1      32.187  17.488   8.965  0.00  0.00    -0.393 OA
HETATM   24  H   UNK N   1      31.987  18.426   8.818  0.00  0.00     0.210 HD
ENDBRANCH   3  23
TORSDOF 4
ENDMDL
MODEL 7
REMARK VINA RESULT:      -6.2      3.957      9.297
REMARK  4 active torsions:
REMARK  status: ('A' for Active; 'I' for Inactive)
REMARK    1  A    between atoms: N_6  and  C_7 
REMARK    2  A    between atoms: C_8  and  C_7 
REMARK    3  A    between atoms: C_10  and  O_11 
REMARK    4  A    between atoms: C_13  and  N_14 
ROOT
HETATM    1  C   UNK N   1      30.435  17.072   6.285  0.00  0.00     0.181 C 
HETATM    2  O   UNK N   1      30.902  17.074   7.627  0.00  0.00    -0.356 OA
HETATM    3  C   UNK N   1      30.924  15.783   5.618  0.00  0.00     0.153 C 
HETATM    4  C   UNK N   1      32.220  15.615   6.322  0.00  0.00     0.088 C 
HETATM    5  C   UNK N   1      31.766  15.955   7.733  0.00  0.00     0.235 C 
ENDROOT
BRANCH   5   6
HETATM    6  N   UNK N   1      32.921  16.165   8.624  0.00  0.00    -0.282 N 
HETATM    7  C   UNK N   1      33.277  15.222   9.543  0.00  0.00     0.110 A 
HETATM    8  C   UNK N   1      34.397  15.410  10.357  0.00  0.00     0.022 A 
HETATM    9  C   UNK N   1      34.772  14.367  11.354  0.00  0.00     0.056 C 
HETATM   10  C   UNK N   1      35.152  16.579  10.208  0.00  0.00     0.256 A 
HETATM   11  O   UNK N   1      36.140  16.772  10.895  0.00  0.00    -0.267 OA
HETATM   12  N   UNK N   1      34.779  17.511   9.284  0.00  0.00    -0.275 N 
HETATM   13  C   UNK N   1      33.678  17.319   8.494  0.00  0.00     0.331 A 
HETATM   14  H   UNK N   1      35.309  18.333   9.186  0.00  0.00     0.173 HD
HETATM   15  O   UNK N   1      33.385  18.166   7.669  0.00  0.00    -0.246 OA
ENDBRANCH   5   6
BRANCH   1  16
HETATM   16  C   UNK N   1      28.908  17.235   6.216  0.00  0.00     0.306 C 
BRANCH  16  17
HETATM   17  N   UNK N   1      28.547  18.573   5.757  0.00  0.00     0.091 N 
HETATM   18  C   UNK N   1      27.617  18.436   4.637  0.00  0.00     0.272 C 
HETATM   19  C   UNK N   1      27.341  19.808   4.039  0.00  0.00     0.030 C 
HETATM   20  C   UNK N   1      26.703  20.694   5.103  0.00  0.00     0.003 C 
HETATM   21  C   UNK N   1      27.546  20.708   6.380  0.00  0.00     0.030 C 
HETATM   22  C   UNK N   1      27.851  19.276   6.830  0.00  0.00     0.272 C 
ENDBRANCH  16  17
ENDBRANCH   1  16
BRANCH   3  23
HETATM   23  O   UNK N   1      30.114  14.687   5.943  0.00  0.00    -0.393 OA
HETATM   24  H   UNK N   1      30.069  13.720   5.995  0.00  0.00     0.210 HD
ENDBRANCH   3  23
TORSDOF 4
ENDMDL
MODEL 8
REMARK VINA RESULT:      -6.2      4.807      9.824
REMARK  4 active torsions:
REMARK  status: ('A' for Active; 'I' for Inactive)
REMARK    1  A    between atoms: N_6  and  C_7 
REMARK    2  A    between atoms: C_8  and  C_7 
REMARK    3  A    between atoms: C_10  and  O_11 
REMARK    4  A    between atoms: C_13  and  N_14 
ROOT
HETATM    1  C   UNK N   1      29.379  17.078   6.192  0.00  0.00     0.181 C 
HETATM    2  O   UNK N   1      30.019  16.943   7.453  0.00  0.00    -0.356 OA
HETATM    3  C   UNK N   1      30.015  16.068   5.231  0.00  0.00     0.153 C 
HETATM    4  C   UNK N   1      31.404  16.070   5.754  0.00  0.00     0.088 C 
HETATM    5  C   UNK N   1      31.094  16.044   7.243  0.00  0.00     0.235 C 
ENDROOT
BRANCH   5   6
HETATM    6  N   UNK N   1      32.298  16.343   8.038  0.00  0.00    -0.282 N 
HETATM    7  C   UNK N   1      33.038  17.462   7.796  0.00  0.00     0.110 A 
HETATM    8  C   UNK N   1      34.155  17.760   8.580  0.00  0.00     0.022 A 
HETATM    9  C   UNK N   1      34.950  18.990   8.302  0.00  0.00     0.056 C 
HETATM   10  C   UNK N   1      34.500  16.892   9.623  0.00  0.00     0.256 A 
HETATM   11  O   UNK N   1      35.463  17.125  10.333  0.00  0.00    -0.267 OA
HETATM   12  N   UNK N   1      33.748  15.777   9.848  0.00  0.00    -0.275 N 
HETATM   13  C   UNK N   1      32.657  15.492   9.073  0.00  0.00     0.331 A 
HETATM   14  H   UNK N   1      33.996  15.167  10.580  0.00  0.00     0.173 HD
HETATM   15  O   UNK N   1      32.001  14.495   9.314  0.00  0.00    -0.246 OA
ENDBRANCH   5   6
BRANCH   1  16
HETATM   16  C   UNK N   1      27.855  16.907   6.310  0.00  0.00     0.306 C 
BRANCH  16  17
HETATM   17  N   UNK N   1      27.156  18.036   5.703  0.00  0.00     0.091 N 
HETATM   18  C   UNK N   1      28.032  19.205   5.770  0.00  0.00     0.272 C 
HETATM   19  C   UNK N   1      27.274  20.432   5.284  0.00  0.00     0.030 C 
HETATM   20  C   UNK N   1      26.855  20.215   3.835  0.00  0.00     0.003 C 
HETATM   21  C   UNK N   1      26.103  18.891   3.676  0.00  0.00     0.030 C 
HETATM   22  C   UNK N   1      26.910  17.745   4.294  0.00  0.00     0.272 C 
ENDBRANCH  16  17
ENDBRANCH   1  16
BRANCH   3  23
HETATM   23  O   UNK N   1      29.492  14.780   5.404  0.00  0.00    -0.393 OA
HETATM   24  H   UNK N   1      29.679  13.831   5.338  0.00  0.00     0.210 HD
ENDBRANCH   3  23
TORSDOF 4
ENDMDL
MODEL 9
REMARK VINA RESULT:      -6.1      2.063      7.257
REMARK  4 active torsions:
REMARK  status: ('A' for Active; 'I' for Inactive)
REMARK    1  A    between atoms: N_6  and  C_7 
REMARK    2  A    between atoms: C_8  and  C_7 
REMARK    3  A    between atoms: C_10  and  O_11 
REMARK    4  A    between atoms: C_13  and  N_14 
ROOT
HETATM    1  C   UNK N   1      35.534  14.433  10.112  0.00  0.00     0.181 C 
HETATM    2  O   UNK N   1      34.875  14.174  11.343  0.00  0.00    -0.356 OA
HETATM    3  C   UNK N   1      36.632  13.380   9.935  0.00  0.00     0.153 C 
HETATM    4  C   UNK N   1      37.015  13.179  11.355  0.00  0.00     0.088 C 
HETATM    5  C   UNK N   1      35.624  13.147  11.969  0.00  0.00     0.235 C 
ENDROOT
BRANCH   5   6
HETATM    6  N   UNK N   1      35.693  13.256  13.437  0.00  0.00    -0.282 N 
HETATM    7  C   UNK N   1      36.481  14.195  14.033  0.00  0.00     0.110 A 
HETATM    8  C   UNK N   1      36.512  14.320  15.425  0.00  0.00     0.022 A 
HETATM    9  C   UNK N   1      37.379  15.354  16.058  0.00  0.00     0.056 C 
HETATM   10  C   UNK N   1      35.714  13.468  16.197  0.00  0.00     0.256 A 
HETATM   11  O   UNK N   1      35.708  13.554  17.412  0.00  0.00    -0.267 OA
HETATM   12  N   UNK N   1      34.933  12.534  15.582  0.00  0.00    -0.275 N 
HETATM   13  C   UNK N   1      34.913  12.418  14.218  0.00  0.00     0.331 A 
HETATM   14  H   UNK N   1      34.376  11.934  16.128  0.00  0.00     0.173 HD
HETATM   15  O   UNK N   1      34.190  11.582  13.704  0.00  0.00    -0.246 OA
ENDBRANCH   5   6
BRANCH   1  16
HETATM   16  C   UNK N   1      34.544  14.464   8.935  0.00  0.00     0.306 C 
BRANCH  16  17
HETATM   17  N   UNK N   1      33.735  15.678   8.967  0.00  0.00     0.091 N 
HETATM   18  C   UNK N   1      34.359  16.666   8.087  0.00  0.00     0.272 C 
HETATM   19  C   UNK N   1      33.623  17.993   8.217  0.00  0.00     0.030 C 
HETATM   20  C   UNK N   1      32.173  17.800   7.789  0.00  0.00     0.003 C 
HETATM   21  C   UNK N   1      31.531  16.633   8.544  0.00  0.00     0.030 C 
HETATM   22  C   UNK N   1      32.408  15.383   8.434  0.00  0.00     0.272 C 
ENDBRANCH  16  17
ENDBRANCH   1  16
BRANCH   3  23
HETATM   23  O   UNK N   1      36.121  12.168   9.452  0.00  0.00    -0.393 OA
HETATM   24  H   UNK N   1      36.217  11.478   8.777  0.00  0.00     0.210 HD
ENDBRANCH   3  23
TORSDOF 4
ENDMDL
