MODEL 1
REMARK VINA RESULT:      -7.8      0.000      0.000
REMARK  6 active torsions:
REMARK  status: ('A' for Active; 'I' for Inactive)
REMARK    1  A    between atoms: N_6  and  C_7 
REMARK    2  A    between atoms: C_7  and  C_8 
REMARK    3  A    between atoms: C_8  and  O_9 
REMARK    4  A    between atoms: O_9  and  C_10 
REMARK    5  A    between atoms: C_15  and  C_16 
REMARK    6  A    between atoms: C_26  and  C_27 
ROOT
HETATM    1  C   UNK N   1      27.407  18.251   4.652  0.00  0.00     0.007 A 
HETATM    2  C   UNK N   1      28.350  17.733   3.745  0.00  0.00     0.132 A 
HETATM    3  C   UNK N   1      27.773  18.358   6.014  0.00  0.00     0.103 A 
HETATM    4  N   UNK N   1      29.001  17.943   6.437  0.00  0.00    -0.349 N 
ATOM      5  HN  UNK N   1      29.256  17.995   7.423  1.00  0.00     0.167 HD
HETATM    6  C   UNK N   1      29.873  17.460   5.521  0.00  0.00     0.139 A 
HETATM    7  N   UNK N   1      29.560  17.371   4.230  0.00  0.00    -0.250 N 
HETATM    8  N   UNK N   1      30.585  16.888   3.549  0.00  0.00    -0.303 N 
ATOM      9  HN  UNK N   1      30.614  16.725   2.542  1.00  0.00     0.186 HD
HETATM   10  C   UNK N   1      31.593  16.648   4.430  0.00  0.00     0.123 A 
HETATM   11  C   UNK N   1      31.152  17.001   5.708  0.00  0.00     0.037 A 
ENDROOT
BRANCH   1  12
HETATM   12  C   UNK N   1      26.094  18.736   4.188  0.00  0.00    -0.023 A 
HETATM   13  C   UNK N   1      25.987  19.894   3.402  0.00  0.00     0.015 A 
HETATM   14  C   UNK N   1      24.729  20.383   3.032  0.00  0.00     0.037 A 
HETATM   15  C   UNK N   1      23.569  19.745   3.482  0.00  0.00     0.068 A 
HETATM   16  C   UNK N   1      23.680  18.580   4.257  0.00  0.00     0.037 A 
HETATM   17  C   UNK N   1      24.931  18.071   4.591  0.00  0.00     0.015 A 
BRANCH  15  18
HETATM   18  O   UNK N   1      22.359  20.276   3.188  0.00  0.00    -0.349 OA
BRANCH  18  19
HETATM   19  C   UNK N   1      21.194  19.541   3.282  0.00  0.00     0.206 C 
BRANCH  19  20
HETATM   20  C   UNK N   1      20.631  19.217   1.908  0.00  0.00     0.299 C 
BRANCH  20  21
HETATM   21  N   UNK N   1      19.934  17.938   1.923  0.00  0.00     0.090 N 
HETATM   22  C   UNK N   1      20.085  17.296   0.604  0.00  0.00     0.272 C 
HETATM   23  C   UNK N   1      19.795  15.800   0.685  0.00  0.00     0.030 C 
HETATM   24  C   UNK N   1      20.803  15.109   1.609  0.00  0.00     0.003 C 
HETATM   25  C   UNK N   1      21.474  16.074   2.590  0.00  0.00     0.030 C 
HETATM   26  C   UNK N   1      20.482  17.149   3.041  0.00  0.00     0.272 C 
ENDBRANCH  20  21
ENDBRANCH  19  20
ENDBRANCH  18  19
ENDBRANCH  15  18
ENDBRANCH   1  12
BRANCH  11  27
HETATM   27  C   UNK N   1      31.887  16.867   6.980  0.00  0.00    -0.018 A 
HETATM   28  C   UNK N   1      32.871  17.796   7.331  0.00  0.00     0.029 A 
HETATM   29  C   UNK N   1      33.586  17.625   8.519  0.00  0.00     0.088 A 
HETATM   30  N   UNK N   1      33.331  16.558   9.323  0.00  0.00    -0.375 N 
HETATM   31  C   UNK N   1      32.379  15.640   9.003  0.00  0.00     0.088 A 
ATOM     32  HN  UNK N   1      33.865  16.442  10.185  1.00  0.00     0.164 HD
HETATM   33  C   UNK N   1      31.641  15.780   7.829  0.00  0.00     0.029 A 
ENDBRANCH  11  27
TORSDOF 6
ENDMDL
MODEL 2
REMARK VINA RESULT:      -7.8      6.319     11.548
REMARK  6 active torsions:
REMARK  status: ('A' for Active; 'I' for Inactive)
REMARK    1  A    between atoms: N_6  and  C_7 
REMARK    2  A    between atoms: C_7  and  C_8 
REMARK    3  A    between atoms: C_8  and  O_9 
REMARK    4  A    between atoms: O_9  and  C_10 
REMARK    5  A    between atoms: C_15  and  C_16 
REMARK    6  A    between atoms: C_26  and  C_27 
ROOT
HETATM    1  C   UNK N   1      35.407  14.618  11.549  0.00  0.00     0.007 A 
HETATM    2  C   UNK N   1      36.180  15.342  12.477  0.00  0.00     0.132 A 
HETATM    3  C   UNK N   1      34.920  13.345  11.928  0.00  0.00     0.103 A 
HETATM    4  N   UNK N   1      35.218  12.825  13.152  0.00  0.00    -0.349 N 
ATOM      5  HN  UNK N   1      34.890  11.896  13.415  1.00  0.00     0.167 HD
HETATM    6  C   UNK N   1      35.958  13.567  14.009  0.00  0.00     0.139 A 
HETATM    7  N   UNK N   1      36.407  14.777  13.684  0.00  0.00    -0.250 N 
HETATM    8  N   UNK N   1      37.083  15.295  14.696  0.00  0.00    -0.303 N 
ATOM      9  HN  UNK N   1      37.528  16.213  14.715  1.00  0.00     0.186 HD
HETATM   10  C   UNK N   1      37.078  14.386  15.707  0.00  0.00     0.123 A 
HETATM   11  C   UNK N   1      36.366  13.261  15.282  0.00  0.00     0.037 A 
ENDROOT
BRANCH   1  12
HETATM   12  C   UNK N   1      35.053  15.197  10.240  0.00  0.00    -0.023 A 
HETATM   13  C   UNK N   1      34.944  16.586  10.067  0.00  0.00     0.015 A 
HETATM   14  C   UNK N   1      34.535  17.116   8.840  0.00  0.00     0.037 A 
HETATM   15  C   UNK N   1      34.187  16.262   7.788  0.00  0.00     0.068 A 
HETATM   16  C   UNK N   1      34.310  14.874   7.959  0.00  0.00     0.037 A 
HETATM   17  C   UNK N   1      34.755  14.348   9.168  0.00  0.00     0.015 A 
BRANCH  15  18
HETATM   18  O   UNK N   1      33.712  16.784   6.634  0.00  0.00    -0.349 OA
BRANCH  18  19
HETATM   19  C   UNK N   1      32.527  17.491   6.581  0.00  0.00     0.206 C 
BRANCH  19  20
HETATM   20  C   UNK N   1      31.336  16.564   6.406  0.00  0.00     0.299 C 
BRANCH  20  21
HETATM   21  N   UNK N   1      30.419  16.679   7.532  0.00  0.00     0.090 N 
HETATM   22  C   UNK N   1      30.864  17.787   8.397  0.00  0.00     0.272 C 
HETATM   23  C   UNK N   1      29.735  18.257   9.310  0.00  0.00     0.030 C 
HETATM   24  C   UNK N   1      28.570  18.809   8.481  0.00  0.00     0.003 C 
HETATM   25  C   UNK N   1      28.572  18.301   7.036  0.00  0.00     0.030 C 
HETATM   26  C   UNK N   1      29.063  16.852   6.983  0.00  0.00     0.272 C 
ENDBRANCH  20  21
ENDBRANCH  19  20
ENDBRANCH  18  19
ENDBRANCH  15  18
ENDBRANCH   1  12
BRANCH  11  27
HETATM   27  C   UNK N   1      36.142  12.006  16.025  0.00  0.00    -0.018 A 
HETATM   28  C   UNK N   1      35.302  11.985  17.142  0.00  0.00     0.029 A 
HETATM   29  C   UNK N   1      35.140  10.796  17.858  0.00  0.00     0.088 A 
HETATM   30  N   UNK N   1      35.801   9.671  17.474  0.00  0.00    -0.375 N 
HETATM   31  C   UNK N   1      36.624   9.667  16.391  0.00  0.00     0.088 A 
ATOM     32  HN  UNK N   1      35.678   8.811  18.010  1.00  0.00     0.164 HD
HETATM   33  C   UNK N   1      36.807  10.833  15.648  0.00  0.00     0.029 A 
ENDBRANCH  11  27
TORSDOF 6
ENDMDL
MODEL 3
REMARK VINA RESULT:      -7.7      1.429      2.040
REMARK  6 active torsions:
REMARK  status: ('A' for Active; 'I' for Inactive)
REMARK    1  A    between atoms: N_6  and  C_7 
REMARK    2  A    between atoms: C_7  and  C_8 
REMARK    3  A    between atoms: C_8  and  O_9 
REMARK    4  A    between atoms: O_9  and  C_10 
REMARK    5  A    between atoms: C_15  and  C_16 
REMARK    6  A    between atoms: C_26  and  C_27 
ROOT
HETATM    1  C   UNK N   1      27.125  18.629   4.727  0.00  0.00     0.007 A 
HETATM    2  C   UNK N   1      27.406  18.829   6.091  0.00  0.00     0.132 A 
HETATM    3  C   UNK N   1      28.028  17.855   3.961  0.00  0.00     0.103 A 
HETATM    4  N   UNK N   1      29.155  17.340   4.529  0.00  0.00    -0.349 N 
ATOM      5  HN  UNK N   1      29.820  16.804   3.972  1.00  0.00     0.167 HD
HETATM    6  C   UNK N   1      29.372  17.555   5.848  0.00  0.00     0.139 A 
HETATM    7  N   UNK N   1      28.525  18.261   6.594  0.00  0.00    -0.250 N 
HETATM    8  N   UNK N   1      28.955  18.307   7.844  0.00  0.00    -0.303 N 
ATOM      9  HN  UNK N   1      28.492  18.778   8.622  1.00  0.00     0.186 HD
HETATM   10  C   UNK N   1      30.124  17.616   7.907  0.00  0.00     0.123 A 
HETATM   11  C   UNK N   1      30.416  17.131   6.629  0.00  0.00     0.037 A 
ENDROOT
BRANCH   1  12
HETATM   12  C   UNK N   1      25.886  19.153   4.121  0.00  0.00    -0.023 A 
HETATM   13  C   UNK N   1      25.918  20.234   3.227  0.00  0.00     0.015 A 
HETATM   14  C   UNK N   1      24.728  20.766   2.720  0.00  0.00     0.037 A 
HETATM   15  C   UNK N   1      23.497  20.251   3.135  0.00  0.00     0.068 A 
HETATM   16  C   UNK N   1      23.469  19.161   4.019  0.00  0.00     0.037 A 
HETATM   17  C   UNK N   1      24.652  18.606   4.493  0.00  0.00     0.015 A 
BRANCH  15  18
HETATM   18  O   UNK N   1      22.352  20.829   2.702  0.00  0.00    -0.349 OA
BRANCH  18  19
HETATM   19  C   UNK N   1      21.400  20.128   1.989  0.00  0.00     0.206 C 
BRANCH  19  20
HETATM   20  C   UNK N   1      20.220  19.745   2.868  0.00  0.00     0.299 C 
BRANCH  20  21
HETATM   21  N   UNK N   1      19.643  18.479   2.438  0.00  0.00     0.090 N 
HETATM   22  C   UNK N   1      20.230  18.104   1.138  0.00  0.00     0.272 C 
HETATM   23  C   UNK N   1      20.035  16.616   0.858  0.00  0.00     0.030 C 
HETATM   24  C   UNK N   1      20.763  15.773   1.909  0.00  0.00     0.003 C 
HETATM   25  C   UNK N   1      21.036  16.540   3.206  0.00  0.00     0.030 C 
HETATM   26  C   UNK N   1      19.881  17.497   3.511  0.00  0.00     0.272 C 
ENDBRANCH  20  21
ENDBRANCH  19  20
ENDBRANCH  18  19
ENDBRANCH  15  18
ENDBRANCH   1  12
BRANCH  11  27
HETATM   27  C   UNK N   1      31.607  16.367   6.209  0.00  0.00    -0.018 A 
HETATM   28  C   UNK N   1      32.707  17.023   5.650  0.00  0.00     0.029 A 
HETATM   29  C   UNK N   1      33.806  16.275   5.217  0.00  0.00     0.088 A 
HETATM   30  N   UNK N   1      33.798  14.920   5.331  0.00  0.00    -0.375 N 
HETATM   31  C   UNK N   1      32.739  14.259   5.870  0.00  0.00     0.088 A 
ATOM     32  HN  UNK N   1      34.605  14.386   5.005  1.00  0.00     0.164 HD
HETATM   33  C   UNK N   1      31.627  14.971   6.319  0.00  0.00     0.029 A 
ENDBRANCH  11  27
TORSDOF 6
ENDMDL
MODEL 4
REMARK VINA RESULT:      -7.7      5.427     12.870
REMARK  6 active torsions:
REMARK  status: ('A' for Active; 'I' for Inactive)
REMARK    1  A    between atoms: N_6  and  C_7 
REMARK    2  A    between atoms: C_7  and  C_8 
REMARK    3  A    between atoms: C_8  and  O_9 
REMARK    4  A    between atoms: O_9  and  C_10 
REMARK    5  A    between atoms: C_15  and  C_16 
REMARK    6  A    between atoms: C_26  and  C_27 
ROOT
HETATM    1  C   UNK N   1      32.992  16.389   8.232  0.00  0.00     0.007 A 
HETATM    2  C   UNK N   1      33.578  16.852   7.039  0.00  0.00     0.132 A 
HETATM    3  C   UNK N   1      31.586  16.237   8.275  0.00  0.00     0.103 A 
HETATM    4  N   UNK N   1      30.820  16.560   7.195  0.00  0.00    -0.349 N 
ATOM      5  HN  UNK N   1      29.805  16.476   7.235  1.00  0.00     0.167 HD
HETATM    6  C   UNK N   1      31.436  16.993   6.070  0.00  0.00     0.139 A 
HETATM    7  N   UNK N   1      32.759  17.122   5.998  0.00  0.00    -0.250 N 
HETATM    8  N   UNK N   1      33.107  17.541   4.792  0.00  0.00    -0.303 N 
ATOM      9  HN  UNK N   1      34.058  17.717   4.468  1.00  0.00     0.186 HD
HETATM   10  C   UNK N   1      31.970  17.698   4.064  0.00  0.00     0.123 A 
HETATM   11  C   UNK N   1      30.880  17.360   4.871  0.00  0.00     0.037 A 
ENDROOT
BRANCH   1  12
HETATM   12  C   UNK N   1      33.824  16.002   9.387  0.00  0.00    -0.023 A 
HETATM   13  C   UNK N   1      34.831  16.852   9.871  0.00  0.00     0.015 A 
HETATM   14  C   UNK N   1      35.659  16.439  10.920  0.00  0.00     0.037 A 
HETATM   15  C   UNK N   1      35.518  15.159  11.463  0.00  0.00     0.068 A 
HETATM   16  C   UNK N   1      34.502  14.317  10.985  0.00  0.00     0.037 A 
HETATM   17  C   UNK N   1      33.652  14.741   9.969  0.00  0.00     0.015 A 
BRANCH  15  18
HETATM   18  O   UNK N   1      36.380  14.741  12.419  0.00  0.00    -0.349 OA
BRANCH  18  19
HETATM   19  C   UNK N   1      36.206  13.549  13.093  0.00  0.00     0.206 C 
BRANCH  19  20
HETATM   20  C   UNK N   1      36.055  13.776  14.589  0.00  0.00     0.299 C 
BRANCH  20  21
HETATM   21  N   UNK N   1      34.968  12.969  15.128  0.00  0.00     0.090 N 
HETATM   22  C   UNK N   1      34.545  11.994  14.106  0.00  0.00     0.272 C 
HETATM   23  C   UNK N   1      33.761  10.846  14.735  0.00  0.00     0.030 C 
HETATM   24  C   UNK N   1      34.642  10.071  15.720  0.00  0.00     0.003 C 
HETATM   25  C   UNK N   1      35.838  10.886  16.220  0.00  0.00     0.030 C 
HETATM   26  C   UNK N   1      35.448  12.358  16.379  0.00  0.00     0.272 C 
ENDBRANCH  20  21
ENDBRANCH  19  20
ENDBRANCH  18  19
ENDBRANCH  15  18
ENDBRANCH   1  12
BRANCH  11  27
HETATM   27  C   UNK N   1      29.449  17.424   4.521  0.00  0.00    -0.018 A 
HETATM   28  C   UNK N   1      28.869  16.432   3.724  0.00  0.00     0.029 A 
HETATM   29  C   UNK N   1      27.522  16.537   3.367  0.00  0.00     0.088 A 
HETATM   30  N   UNK N   1      26.784  17.600   3.786  0.00  0.00    -0.375 N 
HETATM   31  C   UNK N   1      27.326  18.578   4.561  0.00  0.00     0.088 A 
ATOM     32  HN  UNK N   1      25.804  17.667   3.513  1.00  0.00     0.164 HD
HETATM   33  C   UNK N   1      28.665  18.505   4.943  0.00  0.00     0.029 A 
ENDBRANCH  11  27
TORSDOF 6
ENDMDL
MODEL 5
REMARK VINA RESULT:      -7.6     10.513     17.029
REMARK  6 active torsions:
REMARK  status: ('A' for Active; 'I' for Inactive)
REMARK    1  A    between atoms: N_6  and  C_7 
REMARK    2  A    between atoms: C_7  and  C_8 
REMARK    3  A    between atoms: C_8  and  O_9 
REMARK    4  A    between atoms: O_9  and  C_10 
REMARK    5  A    between atoms: C_15  and  C_16 
REMARK    6  A    between atoms: C_26  and  C_27 
ROOT
HETATM    1  C   UNK N   1      35.217  12.622  15.032  0.00  0.00     0.007 A 
HETATM    2  C   UNK N   1      35.884  13.796  14.634  0.00  0.00     0.132 A 
HETATM    3  C   UNK N   1      34.509  11.886  14.052  0.00  0.00     0.103 A 
HETATM    4  N   UNK N   1      34.456  12.322  12.762  0.00  0.00    -0.349 N 
ATOM      5  HN  UNK N   1      33.924  11.807  12.061  1.00  0.00     0.167 HD
HETATM    6  C   UNK N   1      35.123  13.453  12.431  0.00  0.00     0.139 A 
HETATM    7  N   UNK N   1      35.815  14.149  13.331  0.00  0.00    -0.250 N 
HETATM    8  N   UNK N   1      36.385  15.193  12.752  0.00  0.00    -0.303 N 
ATOM      9  HN  UNK N   1      36.975  15.887  13.212  1.00  0.00     0.186 HD
HETATM   10  C   UNK N   1      36.043  15.177  11.437  0.00  0.00     0.123 A 
HETATM   11  C   UNK N   1      35.222  14.069  11.210  0.00  0.00     0.037 A 
ENDROOT
BRANCH   1  12
HETATM   12  C   UNK N   1      35.307  12.130  16.419  0.00  0.00    -0.023 A 
HETATM   13  C   UNK N   1      35.415  10.758  16.695  0.00  0.00     0.015 A 
HETATM   14  C   UNK N   1      35.426  10.302  18.017  0.00  0.00     0.037 A 
HETATM   15  C   UNK N   1      35.283  11.208  19.072  0.00  0.00     0.068 A 
HETATM   16  C   UNK N   1      35.189  12.580  18.794  0.00  0.00     0.037 A 
HETATM   17  C   UNK N   1      35.219  13.038  17.481  0.00  0.00     0.015 A 
BRANCH  15  18
HETATM   18  O   UNK N   1      35.210  10.746  20.343  0.00  0.00    -0.349 OA
BRANCH  18  19
HETATM   19  C   UNK N   1      34.447   9.646  20.680  0.00  0.00     0.206 C 
BRANCH  19  20
HETATM   20  C   UNK N   1      33.551   9.938  21.873  0.00  0.00     0.299 C 
BRANCH  20  21
HETATM   21  N   UNK N   1      32.201   9.441  21.641  0.00  0.00     0.090 N 
HETATM   22  C   UNK N   1      32.106   8.949  20.254  0.00  0.00     0.272 C 
HETATM   23  C   UNK N   1      30.909   8.017  20.084  0.00  0.00     0.030 C 
HETATM   24  C   UNK N   1      31.070   6.773  20.964  0.00  0.00     0.003 C 
HETATM   25  C   UNK N   1      32.042   6.986  22.128  0.00  0.00     0.030 C 
HETATM   26  C   UNK N   1      31.925   8.416  22.662  0.00  0.00     0.272 C 
ENDBRANCH  20  21
ENDBRANCH  19  20
ENDBRANCH  18  19
ENDBRANCH  15  18
ENDBRANCH   1  12
BRANCH  11  27
HETATM   27  C   UNK N   1      34.573  13.675   9.945  0.00  0.00    -0.018 A 
HETATM   28  C   UNK N   1      35.091  12.626   9.180  0.00  0.00     0.029 A 
HETATM   29  C   UNK N   1      34.487  12.299   7.962  0.00  0.00     0.088 A 
HETATM   30  N   UNK N   1      33.410  13.004   7.523  0.00  0.00    -0.375 N 
HETATM   31  C   UNK N   1      32.889  14.029   8.249  0.00  0.00     0.088 A 
ATOM     32  HN  UNK N   1      32.983  12.758   6.629  1.00  0.00     0.164 HD
HETATM   33  C   UNK N   1      33.460  14.380   9.471  0.00  0.00     0.029 A 
ENDBRANCH  11  27
TORSDOF 6
ENDMDL
MODEL 6
REMARK VINA RESULT:      -7.4      7.430     14.972
REMARK  6 active torsions:
REMARK  status: ('A' for Active; 'I' for Inactive)
REMARK    1  A    between atoms: N_6  and  C_7 
REMARK    2  A    between atoms: C_7  and  C_8 
REMARK    3  A    between atoms: C_8  and  O_9 
REMARK    4  A    between atoms: O_9  and  C_10 
REMARK    5  A    between atoms: C_15  and  C_16 
REMARK    6  A    between atoms: C_26  and  C_27 
ROOT
HETATM    1  C   UNK N   1      34.791  15.087  10.941  0.00  0.00     0.007 A 
HETATM    2  C   UNK N   1      35.321  16.298  10.457  0.00  0.00     0.132 A 
HETATM    3  C   UNK N   1      33.536  14.659  10.448  0.00  0.00     0.103 A 
HETATM    4  N   UNK N   1      32.849  15.416   9.547  0.00  0.00    -0.349 N 
ATOM      5  HN  UNK N   1      31.933  15.121   9.211  1.00  0.00     0.167 HD
HETATM    6  C   UNK N   1      33.410  16.568   9.107  0.00  0.00     0.139 A 
HETATM    7  N   UNK N   1      34.600  16.980   9.540  0.00  0.00    -0.250 N 
HETATM    8  N   UNK N   1      34.927  18.116   8.946  0.00  0.00    -0.303 N 
ATOM      9  HN  UNK N   1      35.787  18.644   9.092  1.00  0.00     0.186 HD
HETATM   10  C   UNK N   1      33.910  18.455   8.109  0.00  0.00     0.123 A 
HETATM   11  C   UNK N   1      32.918  17.476   8.204  0.00  0.00     0.037 A 
ENDROOT
BRANCH   1  12
HETATM   12  C   UNK N   1      35.551  14.248  11.886  0.00  0.00    -0.023 A 
HETATM   13  C   UNK N   1      35.773  12.886  11.629  0.00  0.00     0.015 A 
HETATM   14  C   UNK N   1      36.431  12.088  12.569  0.00  0.00     0.037 A 
HETATM   15  C   UNK N   1      36.834  12.633  13.792  0.00  0.00     0.068 A 
HETATM   16  C   UNK N   1      36.624  13.998  14.041  0.00  0.00     0.037 A 
HETATM   17  C   UNK N   1      36.004  14.802  13.089  0.00  0.00     0.015 A 
BRANCH  15  18
HETATM   18  O   UNK N   1      37.395  11.831  14.728  0.00  0.00    -0.349 OA
BRANCH  18  19
HETATM   19  C   UNK N   1      36.648  10.937  15.470  0.00  0.00     0.206 C 
BRANCH  19  20
HETATM   20  C   UNK N   1      35.892  11.641  16.586  0.00  0.00     0.299 C 
BRANCH  20  21
HETATM   21  N   UNK N   1      36.068  10.940  17.851  0.00  0.00     0.090 N 
HETATM   22  C   UNK N   1      35.303  11.645  18.897  0.00  0.00     0.272 C 
HETATM   23  C   UNK N   1      35.064  10.741  20.104  0.00  0.00     0.030 C 
HETATM   24  C   UNK N   1      34.217   9.528  19.705  0.00  0.00     0.003 C 
HETATM   25  C   UNK N   1      34.263   9.235  18.203  0.00  0.00     0.030 C 
HETATM   26  C   UNK N   1      35.654   9.541  17.644  0.00  0.00     0.272 C 
ENDBRANCH  20  21
ENDBRANCH  19  20
ENDBRANCH  18  19
ENDBRANCH  15  18
ENDBRANCH   1  12
BRANCH  11  27
HETATM   27  C   UNK N   1      31.613  17.449   7.517  0.00  0.00    -0.018 A 
HETATM   28  C   UNK N   1      30.439  17.752   8.212  0.00  0.00     0.029 A 
HETATM   29  C   UNK N   1      29.209  17.676   7.553  0.00  0.00     0.088 A 
HETATM   30  N   UNK N   1      29.156  17.301   6.246  0.00  0.00    -0.375 N 
HETATM   31  C   UNK N   1      30.285  17.000   5.549  0.00  0.00     0.088 A 
ATOM     32  HN  UNK N   1      28.251  17.244   5.779  1.00  0.00     0.164 HD
HETATM   33  C   UNK N   1      31.530  17.070   6.171  0.00  0.00     0.029 A 
ENDBRANCH  11  27
TORSDOF 6
ENDMDL
MODEL 7
REMARK VINA RESULT:      -7.4     11.333     17.663
REMARK  6 active torsions:
REMARK  status: ('A' for Active; 'I' for Inactive)
REMARK    1  A    between atoms: N_6  and  C_7 
REMARK    2  A    between atoms: C_7  and  C_8 
REMARK    3  A    between atoms: C_8  and  O_9 
REMARK    4  A    between atoms: O_9  and  C_10 
REMARK    5  A    between atoms: C_15  and  C_16 
REMARK    6  A    between atoms: C_26  and  C_27 
ROOT
HETATM    1  C   UNK N   1      36.077  12.018  15.836  0.00  0.00     0.007 A 
HETATM    2  C   UNK N   1      37.087  11.695  14.911  0.00  0.00     0.132 A 
HETATM    3  C   UNK N   1      35.066  12.924  15.439  0.00  0.00     0.103 A 
HETATM    4  N   UNK N   1      35.089  13.489  14.199  0.00  0.00    -0.349 N 
ATOM      5  HN  UNK N   1      34.376  14.163  13.921  1.00  0.00     0.167 HD
HETATM    6  C   UNK N   1      36.079  13.137  13.345  0.00  0.00     0.139 A 
HETATM    7  N   UNK N   1      37.028  12.268  13.688  0.00  0.00    -0.250 N 
HETATM    8  N   UNK N   1      37.858  12.083  12.675  0.00  0.00    -0.303 N 
ATOM      9  HN  UNK N   1      38.670  11.465  12.669  1.00  0.00     0.186 HD
HETATM   10  C   UNK N   1      37.438  12.864  11.645  0.00  0.00     0.123 A 
HETATM   11  C   UNK N   1      36.298  13.560  12.058  0.00  0.00     0.037 A 
ENDROOT
BRANCH   1  12
HETATM   12  C   UNK N   1      36.029  11.377  17.163  0.00  0.00    -0.023 A 
HETATM   13  C   UNK N   1      36.506  10.071  17.355  0.00  0.00     0.015 A 
HETATM   14  C   UNK N   1      36.386   9.451  18.602  0.00  0.00     0.037 A 
HETATM   15  C   UNK N   1      35.749  10.112  19.656  0.00  0.00     0.068 A 
HETATM   16  C   UNK N   1      35.285  11.423  19.466  0.00  0.00     0.037 A 
HETATM   17  C   UNK N   1      35.440  12.056  18.237  0.00  0.00     0.015 A 
BRANCH  15  18
HETATM   18  O   UNK N   1      35.564   9.470  20.833  0.00  0.00    -0.349 OA
BRANCH  18  19
HETATM   19  C   UNK N   1      34.447   8.694  21.078  0.00  0.00     0.206 C 
BRANCH  19  20
HETATM   20  C   UNK N   1      33.495   9.383  22.042  0.00  0.00     0.299 C 
BRANCH  20  21
HETATM   21  N   UNK N   1      32.117   8.991  21.776  0.00  0.00     0.090 N 
HETATM   22  C   UNK N   1      31.971   8.706  20.337  0.00  0.00     0.272 C 
HETATM   23  C   UNK N   1      30.724   7.867  20.068  0.00  0.00     0.030 C 
HETATM   24  C   UNK N   1      30.837   6.504  20.759  0.00  0.00     0.003 C 
HETATM   25  C   UNK N   1      31.839   6.502  21.916  0.00  0.00     0.030 C 
HETATM   26  C   UNK N   1      31.807   7.845  22.650  0.00  0.00     0.272 C 
ENDBRANCH  20  21
ENDBRANCH  19  20
ENDBRANCH  18  19
ENDBRANCH  15  18
ENDBRANCH   1  12
BRANCH  11  27
HETATM   27  C   UNK N   1      35.528  14.558  11.293  0.00  0.00    -0.018 A 
HETATM   28  C   UNK N   1      34.398  14.174  10.565  0.00  0.00     0.029 A 
HETATM   29  C   UNK N   1      33.709  15.128   9.810  0.00  0.00     0.088 A 
HETATM   30  N   UNK N   1      34.142  16.417   9.778  0.00  0.00    -0.375 N 
HETATM   31  C   UNK N   1      35.239  16.814  10.477  0.00  0.00     0.088 A 
ATOM     32  HN  UNK N   1      33.633  17.102   9.218  1.00  0.00     0.164 HD
HETATM   33  C   UNK N   1      35.949  15.893  11.247  0.00  0.00     0.029 A 
ENDBRANCH  11  27
TORSDOF 6
ENDMDL
MODEL 8
REMARK VINA RESULT:      -7.4      3.283      6.599
REMARK  6 active torsions:
REMARK  status: ('A' for Active; 'I' for Inactive)
REMARK    1  A    between atoms: N_6  and  C_7 
REMARK    2  A    between atoms: C_7  and  C_8 
REMARK    3  A    between atoms: C_8  and  O_9 
REMARK    4  A    between atoms: O_9  and  C_10 
REMARK    5  A    between atoms: C_15  and  C_16 
REMARK    6  A    between atoms: C_26  and  C_27 
ROOT
HETATM    1  C   UNK N   1      32.109  16.475   8.688  0.00  0.00     0.007 A 
HETATM    2  C   UNK N   1      33.305  17.186   8.900  0.00  0.00     0.132 A 
HETATM    3  C   UNK N   1      31.926  15.249   9.370  0.00  0.00     0.103 A 
HETATM    4  N   UNK N   1      32.899  14.759  10.189  0.00  0.00    -0.349 N 
ATOM      5  HN  UNK N   1      32.780  13.862  10.660  1.00  0.00     0.167 HD
HETATM    6  C   UNK N   1      34.027  15.487  10.363  0.00  0.00     0.139 A 
HETATM    7  N   UNK N   1      34.212  16.655   9.751  0.00  0.00    -0.250 N 
HETATM    8  N   UNK N   1      35.379  17.169  10.102  0.00  0.00    -0.303 N 
ATOM      9  HN  UNK N   1      35.764  18.058   9.783  1.00  0.00     0.186 HD
HETATM   10  C   UNK N   1      35.972  16.302  10.963  0.00  0.00     0.123 A 
HETATM   11  C   UNK N   1      35.123  15.206  11.138  0.00  0.00     0.037 A 
ENDROOT
BRANCH   1  12
HETATM   12  C   UNK N   1      31.040  17.024   7.834  0.00  0.00    -0.023 A 
HETATM   13  C   UNK N   1      29.973  17.751   8.385  0.00  0.00     0.015 A 
HETATM   14  C   UNK N   1      28.929  18.201   7.570  0.00  0.00     0.037 A 
HETATM   15  C   UNK N   1      28.920  17.890   6.207  0.00  0.00     0.068 A 
HETATM   16  C   UNK N   1      29.994  17.175   5.657  0.00  0.00     0.037 A 
HETATM   17  C   UNK N   1      31.052  16.761   6.459  0.00  0.00     0.015 A 
BRANCH  15  18
HETATM   18  O   UNK N   1      27.862  18.259   5.447  0.00  0.00    -0.349 OA
BRANCH  18  19
HETATM   19  C   UNK N   1      27.118  19.389   5.724  0.00  0.00     0.206 C 
BRANCH  19  20
HETATM   20  C   UNK N   1      26.683  20.093   4.448  0.00  0.00     0.299 C 
BRANCH  20  21
HETATM   21  N   UNK N   1      25.658  19.323   3.756  0.00  0.00     0.090 N 
HETATM   22  C   UNK N   1      24.616  18.936   4.725  0.00  0.00     0.272 C 
HETATM   23  C   UNK N   1      23.324  18.547   4.014  0.00  0.00     0.030 C 
HETATM   24  C   UNK N   1      22.758  19.743   3.240  0.00  0.00     0.003 C 
HETATM   25  C   UNK N   1      23.813  20.808   2.930  0.00  0.00     0.030 C 
HETATM   26  C   UNK N   1      25.164  20.149   2.640  0.00  0.00     0.272 C 
ENDBRANCH  20  21
ENDBRANCH  19  20
ENDBRANCH  18  19
ENDBRANCH  15  18
ENDBRANCH   1  12
BRANCH  11  27
HETATM   27  C   UNK N   1      35.371  13.996  11.946  0.00  0.00    -0.018 A 
HETATM   28  C   UNK N   1      35.280  12.727  11.367  0.00  0.00     0.029 A 
HETATM   29  C   UNK N   1      35.474  11.593  12.161  0.00  0.00     0.088 A 
HETATM   30  N   UNK N   1      35.742  11.726  13.488  0.00  0.00    -0.375 N 
HETATM   31  C   UNK N   1      35.835  12.950  14.074  0.00  0.00     0.088 A 
ATOM     32  HN  UNK N   1      35.876  10.889  14.057  1.00  0.00     0.164 HD
HETATM   33  C   UNK N   1      35.653  14.104  13.313  0.00  0.00     0.029 A 
ENDBRANCH  11  27
TORSDOF 6
ENDMDL
MODEL 9
REMARK VINA RESULT:      -7.2      6.965     11.533
REMARK  6 active torsions:
REMARK  status: ('A' for Active; 'I' for Inactive)
REMARK    1  A    between atoms: N_6  and  C_7 
REMARK    2  A    between atoms: C_7  and  C_8 
REMARK    3  A    between atoms: C_8  and  O_9 
REMARK    4  A    between atoms: O_9  and  C_10 
REMARK    5  A    between atoms: C_15  and  C_16 
REMARK    6  A    between atoms: C_26  and  C_27 
ROOT
HETATM    1  C   UNK N   1      35.383  13.491  10.682  0.00  0.00     0.007 A 
HETATM    2  C   UNK N   1      36.194  12.426  11.117  0.00  0.00     0.132 A 
HETATM    3  C   UNK N   1      35.003  14.476  11.623  0.00  0.00     0.103 A 
HETATM    4  N   UNK N   1      35.394  14.377  12.925  0.00  0.00    -0.349 N 
ATOM      5  HN  UNK N   1      35.099  15.072  13.611  1.00  0.00     0.167 HD
HETATM    6  C   UNK N   1      36.181  13.337  13.289  0.00  0.00     0.139 A 
HETATM    7  N   UNK N   1      36.570  12.411  12.416  0.00  0.00    -0.250 N 
HETATM    8  N   UNK N   1      37.343  11.521  13.016  0.00  0.00    -0.303 N 
ATOM      9  HN  UNK N   1      37.780  10.711  12.576  1.00  0.00     0.186 HD
HETATM   10  C   UNK N   1      37.450  11.878  14.323  0.00  0.00     0.123 A 
HETATM   11  C   UNK N   1      36.701  13.041  14.523  0.00  0.00     0.037 A 
ENDROOT
BRANCH   1  12
HETATM   12  C   UNK N   1      34.993  13.619   9.265  0.00  0.00    -0.023 A 
HETATM   13  C   UNK N   1      35.679  14.486   8.400  0.00  0.00     0.015 A 
HETATM   14  C   UNK N   1      35.250  14.651   7.080  0.00  0.00     0.037 A 
HETATM   15  C   UNK N   1      34.108  13.987   6.625  0.00  0.00     0.068 A 
HETATM   16  C   UNK N   1      33.432  13.110   7.487  0.00  0.00     0.037 A 
HETATM   17  C   UNK N   1      33.881  12.914   8.789  0.00  0.00     0.015 A 
BRANCH  15  18
HETATM   18  O   UNK N   1      33.655  14.220   5.370  0.00  0.00    -0.349 OA
BRANCH  18  19
HETATM   19  C   UNK N   1      33.074  15.421   5.012  0.00  0.00     0.206 C 
BRANCH  19  20
HETATM   20  C   UNK N   1      31.598  15.452   5.373  0.00  0.00     0.299 C 
BRANCH  20  21
HETATM   21  N   UNK N   1      31.226  16.751   5.918  0.00  0.00     0.090 N 
HETATM   22  C   UNK N   1      29.993  16.601   6.711  0.00  0.00     0.272 C 
HETATM   23  C   UNK N   1      29.807  17.779   7.664  0.00  0.00     0.030 C 
HETATM   24  C   UNK N   1      30.956  17.835   8.676  0.00  0.00     0.003 C 
HETATM   25  C   UNK N   1      32.209  17.094   8.200  0.00  0.00     0.030 C 
HETATM   26  C   UNK N   1      32.378  17.255   6.687  0.00  0.00     0.272 C 
ENDBRANCH  20  21
ENDBRANCH  19  20
ENDBRANCH  18  19
ENDBRANCH  15  18
ENDBRANCH   1  12
BRANCH  11  27
HETATM   27  C   UNK N   1      36.486  13.764  15.791  0.00  0.00    -0.018 A 
HETATM   28  C   UNK N   1      35.553  13.298  16.722  0.00  0.00     0.029 A 
HETATM   29  C   UNK N   1      35.332  14.023  17.897  0.00  0.00     0.088 A 
HETATM   30  N   UNK N   1      36.014  15.177  18.125  0.00  0.00    -0.375 N 
HETATM   31  C   UNK N   1      36.925  15.651  17.234  0.00  0.00     0.088 A 
ATOM     32  HN  UNK N   1      35.838  15.699  18.984  1.00  0.00     0.164 HD
HETATM   33  C   UNK N   1      37.177  14.952  16.054  0.00  0.00     0.029 A 
ENDBRANCH  11  27
TORSDOF 6
ENDMDL
