REMARK  2 active torsions:
REMARK  status: ('A' for Active; 'I' for Inactive)
REMARK    1  A    between atoms: N_9  and  C_17 
REMARK    2  A    between atoms: C_17  and  C_18 
ROOT
HETATM    1  N   UNK N   1      -2.262  -3.494  -0.441  0.00  0.00    -0.331 N 
HETATM    2  C   UNK N   1      -2.522  -2.181  -0.280  0.00  0.00     0.063 A 
HETATM    3  C   UNK N   1      -0.964  -3.616  -0.056  0.00  0.00     0.179 A 
HETATM    4  S   UNK N   1      -0.258  -4.866  -0.062  0.00  0.00    -0.040 SA
HETATM    5  N   UNK N   1      -0.424  -2.432   0.335  0.00  0.00    -0.319 N 
HETATM    6  C   UNK N   1      -1.412  -1.545   0.189  0.00  0.00     0.071 A 
HETATM    7  C   UNK N   1       0.929  -2.136   0.809  0.00  0.00     0.167 C 
HETATM    8  C   UNK N   1       1.573  -1.026  -0.040  0.00  0.00     0.238 C 
HETATM    9  N   UNK N   1       1.034   0.360   0.197  0.00  0.00     0.102 N 
HETATM   10  C   UNK N   1      -0.169   0.454   1.037  0.00  0.00     0.314 C 
HETATM   11  C   UNK N   1      -1.386  -0.187   0.453  0.00  0.00     0.001 A 
HETATM   12  C   UNK N   1      -2.569   0.543   0.232  0.00  0.00     0.035 A 
HETATM   13 Cl   UNK N   1      -5.203   0.800  -0.499  0.00  0.00    -0.084 Cl
HETATM   14  C   UNK N   1      -3.730  -0.112  -0.253  0.00  0.00     0.036 A 
HETATM   15  C   UNK N   1      -3.712  -1.499  -0.515  0.00  0.00     0.055 A 
HETATM   16  C   UNK N   1       3.089  -1.143   0.131  0.00  0.00     0.045 C 
HETATM   17  H   UNK N   1      -2.870  -4.199  -0.762  0.00  0.00     0.168 HD
ENDROOT
BRANCH   9  18
HETATM   18  C   UNK N   1       1.981   1.254   0.862  0.00  0.00     0.301 C 
BRANCH  18  19
HETATM   19  C   UNK N   1       2.661   2.148  -0.130  0.00  0.00     0.005 C 
HETATM   20  C   UNK N   1       2.363   3.448  -0.239  0.00  0.00    -0.090 C 
HETATM   21  C   UNK N   1       1.296   4.083   0.595  0.00  0.00     0.042 C 
HETATM   22  C   UNK N   1       3.108   4.286  -1.219  0.00  0.00     0.042 C 
ENDBRANCH  18  19
ENDBRANCH   9  18
TORSDOF 2
