MODEL 1
REMARK VINA RESULT:      -6.8      0.000      0.000
REMARK  2 active torsions:
REMARK  status: ('A' for Active; 'I' for Inactive)
REMARK    1  A    between atoms: N_9  and  C_17 
REMARK    2  A    between atoms: C_17  and  C_18 
ROOT
HETATM    1  N   UNK N   1      21.728  17.613   6.045  0.00  0.00    -0.331 N 
HETATM    2  C   UNK N   1      21.002  17.111   7.064  0.00  0.00     0.063 A 
HETATM    3  C   UNK N   1      22.551  16.587   5.699  0.00  0.00     0.179 A 
HETATM    4  S   UNK N   1      23.512  16.677   4.637  0.00  0.00    -0.040 SA
HETATM    5  N   UNK N   1      22.353  15.481   6.463  0.00  0.00    -0.319 N 
HETATM    6  C   UNK N   1      21.381  15.826   7.312  0.00  0.00     0.071 A 
HETATM    7  C   UNK N   1      23.029  14.184   6.417  0.00  0.00     0.167 C 
HETATM    8  C   UNK N   1      23.618  13.827   7.793  0.00  0.00     0.238 C 
HETATM    9  N   UNK N   1      22.612  13.424   8.839  0.00  0.00     0.102 N 
HETATM   10  C   UNK N   1      21.197  13.626   8.491  0.00  0.00     0.314 C 
HETATM   11  C   UNK N   1      20.801  15.055   8.304  0.00  0.00     0.001 A 
HETATM   12  C   UNK N   1      19.773  15.640   9.067  0.00  0.00     0.035 A 
HETATM   13 Cl   UNK N   1      18.073  17.685   9.750  0.00  0.00    -0.084 Cl
HETATM   14  C   UNK N   1      19.370  16.976   8.814  0.00  0.00     0.036 A 
HETATM   15  C   UNK N   1      19.992  17.730   7.795  0.00  0.00     0.055 A 
HETATM   16  C   UNK N   1      24.723  12.794   7.562  0.00  0.00     0.045 C 
HETATM   17  H   UNK N   1      21.675  18.511   5.646  0.00  0.00     0.168 HD
ENDROOT
BRANCH   9  18
HETATM   18  C   UNK N   1      22.672  12.009   9.200  0.00  0.00     0.301 C 
BRANCH  18  19
HETATM   19  C   UNK N   1      22.427  11.819  10.666  0.00  0.00     0.005 C 
HETATM   20  C   UNK N   1      23.408  11.920  11.571  0.00  0.00    -0.090 C 
HETATM   21  C   UNK N   1      24.824  12.185  11.169  0.00  0.00     0.042 C 
HETATM   22  C   UNK N   1      23.085  11.760  13.016  0.00  0.00     0.042 C 
ENDBRANCH  18  19
ENDBRANCH   9  18
TORSDOF 2
ENDMDL
MODEL 2
REMARK VINA RESULT:      -6.3      7.669     10.085
REMARK  2 active torsions:
REMARK  status: ('A' for Active; 'I' for Inactive)
REMARK    1  A    between atoms: N_9  and  C_17 
REMARK    2  A    between atoms: C_17  and  C_18 
ROOT
HETATM    1  N   UNK N   1      30.846  17.157   7.897  0.00  0.00    -0.331 N 
HETATM    2  C   UNK N   1      30.660  16.905   6.585  0.00  0.00     0.063 A 
HETATM    3  C   UNK N   1      29.822  17.993   8.213  0.00  0.00     0.179 A 
HETATM    4  S   UNK N   1      29.621  18.524   9.532  0.00  0.00    -0.040 SA
HETATM    5  N   UNK N   1      29.020  18.259   7.149  0.00  0.00    -0.319 N 
HETATM    6  C   UNK N   1      29.558  17.571   6.139  0.00  0.00     0.071 A 
HETATM    7  C   UNK N   1      27.829  19.107   7.069  0.00  0.00     0.167 C 
HETATM    8  C   UNK N   1      27.987  20.166   5.964  0.00  0.00     0.238 C 
HETATM    9  N   UNK N   1      27.886  19.645   4.555  0.00  0.00     0.102 N 
HETATM   10  C   UNK N   1      27.865  18.183   4.402  0.00  0.00     0.314 C 
HETATM   11  C   UNK N   1      29.121  17.496   4.829  0.00  0.00     0.001 A 
HETATM   12  C   UNK N   1      29.854  16.684   3.942  0.00  0.00     0.035 A 
HETATM   13 Cl   UNK N   1      31.889  14.959   3.296  0.00  0.00    -0.084 Cl
HETATM   14  C   UNK N   1      31.001  15.986   4.399  0.00  0.00     0.036 A 
HETATM   15  C   UNK N   1      31.416  16.094   5.744  0.00  0.00     0.055 A 
HETATM   16  C   UNK N   1      27.014  21.304   6.280  0.00  0.00     0.045 C 
HETATM   17  H   UNK N   1      31.556  16.815   8.487  0.00  0.00     0.168 HD
ENDROOT
BRANCH   9  18
HETATM   18  C   UNK N   1      26.676  20.076   3.854  0.00  0.00     0.301 C 
BRANCH  18  19
HETATM   19  C   UNK N   1      25.546  19.123   4.102  0.00  0.00     0.005 C 
HETATM   20  C   UNK N   1      24.300  19.372   3.683  0.00  0.00    -0.090 C 
HETATM   21  C   UNK N   1      23.946  20.642   2.978  0.00  0.00     0.042 C 
HETATM   22  C   UNK N   1      23.234  18.361   3.928  0.00  0.00     0.042 C 
ENDBRANCH  18  19
ENDBRANCH   9  18
TORSDOF 2
ENDMDL
MODEL 3
REMARK VINA RESULT:      -6.2      7.369      8.635
REMARK  2 active torsions:
REMARK  status: ('A' for Active; 'I' for Inactive)
REMARK    1  A    between atoms: N_9  and  C_17 
REMARK    2  A    between atoms: C_17  and  C_18 
ROOT
HETATM    1  N   UNK N   1      26.201  17.929   3.633  0.00  0.00    -0.331 N 
HETATM    2  C   UNK N   1      26.651  18.633   4.691  0.00  0.00     0.063 A 
HETATM    3  C   UNK N   1      26.900  16.766   3.697  0.00  0.00     0.179 A 
HETATM    4  S   UNK N   1      26.736  15.698   2.751  0.00  0.00    -0.040 SA
HETATM    5  N   UNK N   1      27.756  16.731   4.752  0.00  0.00    -0.319 N 
HETATM    6  C   UNK N   1      27.588  17.907   5.363  0.00  0.00     0.071 A 
HETATM    7  C   UNK N   1      28.682  15.675   5.167  0.00  0.00     0.167 C 
HETATM    8  C   UNK N   1      30.116  16.222   5.282  0.00  0.00     0.238 C 
HETATM    9  N   UNK N   1      30.372  17.110   6.471  0.00  0.00     0.102 N 
HETATM   10  C   UNK N   1      29.190  17.516   7.245  0.00  0.00     0.314 C 
HETATM   11  C   UNK N   1      28.224  18.378   6.498  0.00  0.00     0.001 A 
HETATM   12  C   UNK N   1      27.863  19.656   6.965  0.00  0.00     0.035 A 
HETATM   13 Cl   UNK N   1      26.427  21.994   6.877  0.00  0.00    -0.084 Cl
HETATM   14  C   UNK N   1      26.887  20.417   6.273  0.00  0.00     0.036 A 
HETATM   15  C   UNK N   1      26.266  19.901   5.115  0.00  0.00     0.055 A 
HETATM   16  C   UNK N   1      31.068  15.030   5.178  0.00  0.00     0.045 C 
HETATM   17  H   UNK N   1      25.523  18.196   2.970  0.00  0.00     0.168 HD
ENDROOT
BRANCH   9  18
HETATM   18  C   UNK N   1      31.244  16.508   7.478  0.00  0.00     0.301 C 
BRANCH  18  19
HETATM   19  C   UNK N   1      32.231  17.508   8.000  0.00  0.00     0.005 C 
HETATM   20  C   UNK N   1      33.518  17.496   7.637  0.00  0.00    -0.090 C 
HETATM   21  C   UNK N   1      34.066  16.451   6.718  0.00  0.00     0.042 C 
HETATM   22  C   UNK N   1      34.434  18.546   8.163  0.00  0.00     0.042 C 
ENDBRANCH  18  19
ENDBRANCH   9  18
TORSDOF 2
ENDMDL
MODEL 4
REMARK VINA RESULT:      -6.2      7.466      8.693
REMARK  2 active torsions:
REMARK  status: ('A' for Active; 'I' for Inactive)
REMARK    1  A    between atoms: N_9  and  C_17 
REMARK    2  A    between atoms: C_17  and  C_18 
ROOT
HETATM    1  N   UNK N   1      25.601  19.887   5.050  0.00  0.00    -0.331 N 
HETATM    2  C   UNK N   1      26.171  18.754   4.592  0.00  0.00     0.063 A 
HETATM    3  C   UNK N   1      26.423  20.277   6.060  0.00  0.00     0.179 A 
HETATM    4  S   UNK N   1      26.198  21.459   6.843  0.00  0.00    -0.040 SA
HETATM    5  N   UNK N   1      27.471  19.430   6.234  0.00  0.00    -0.319 N 
HETATM    6  C   UNK N   1      27.299  18.483   5.308  0.00  0.00     0.071 A 
HETATM    7  C   UNK N   1      28.565  19.487   7.206  0.00  0.00     0.167 C 
HETATM    8  C   UNK N   1      28.644  18.181   8.015  0.00  0.00     0.238 C 
HETATM    9  N   UNK N   1      29.183  16.991   7.266  0.00  0.00     0.102 N 
HETATM   10  C   UNK N   1      29.362  17.163   5.817  0.00  0.00     0.314 C 
HETATM   11  C   UNK N   1      28.095  17.380   5.056  0.00  0.00     0.001 A 
HETATM   12  C   UNK N   1      27.711  16.525   4.006  0.00  0.00     0.035 A 
HETATM   13 Cl   UNK N   1      26.087  15.747   1.933  0.00  0.00    -0.084 Cl
HETATM   14  C   UNK N   1      26.541  16.802   3.253  0.00  0.00     0.036 A 
HETATM   15  C   UNK N   1      25.753  17.936   3.547  0.00  0.00     0.055 A 
HETATM   16  C   UNK N   1      29.393  18.493   9.312  0.00  0.00     0.045 C 
HETATM   17  H   UNK N   1      24.782  20.328   4.728  0.00  0.00     0.168 HD
ENDROOT
BRANCH   9  18
HETATM   18  C   UNK N   1      30.504  16.559   7.721  0.00  0.00     0.301 C 
BRANCH  18  19
HETATM   19  C   UNK N   1      31.528  16.740   6.642  0.00  0.00     0.005 C 
HETATM   20  C   UNK N   1      32.710  17.323   6.872  0.00  0.00    -0.090 C 
HETATM   21  C   UNK N   1      33.067  17.873   8.216  0.00  0.00     0.042 C 
HETATM   22  C   UNK N   1      33.696  17.432   5.762  0.00  0.00     0.042 C 
ENDBRANCH  18  19
ENDBRANCH   9  18
TORSDOF 2
ENDMDL
MODEL 5
REMARK VINA RESULT:      -6.1      4.944      6.968
REMARK  2 active torsions:
REMARK  status: ('A' for Active; 'I' for Inactive)
REMARK    1  A    between atoms: N_9  and  C_17 
REMARK    2  A    between atoms: C_17  and  C_18 
ROOT
HETATM    1  N   UNK N   1      19.314  17.115   3.735  0.00  0.00    -0.331 N 
HETATM    2  C   UNK N   1      20.110  18.120   3.319  0.00  0.00     0.063 A 
HETATM    3  C   UNK N   1      20.103  16.411   4.590  0.00  0.00     0.179 A 
HETATM    4  S   UNK N   1      19.655  15.236   5.283  0.00  0.00    -0.040 SA
HETATM    5  N   UNK N   1      21.345  16.947   4.712  0.00  0.00    -0.319 N 
HETATM    6  C   UNK N   1      21.333  18.016   3.911  0.00  0.00     0.071 A 
HETATM    7  C   UNK N   1      22.481  16.494   5.517  0.00  0.00     0.167 C 
HETATM    8  C   UNK N   1      23.726  16.290   4.637  0.00  0.00     0.238 C 
HETATM    9  N   UNK N   1      24.389  17.554   4.157  0.00  0.00     0.102 N 
HETATM   10  C   UNK N   1      23.656  18.805   4.402  0.00  0.00     0.314 C 
HETATM   11  C   UNK N   1      22.356  18.916   3.673  0.00  0.00     0.001 A 
HETATM   12  C   UNK N   1      22.096  19.981   2.790  0.00  0.00     0.035 A 
HETATM   13 Cl   UNK N   1      20.503  21.441   1.097  0.00  0.00    -0.084 Cl
HETATM   14  C   UNK N   1      20.824  20.099   2.172  0.00  0.00     0.036 A 
HETATM   15  C   UNK N   1      19.809  19.154   2.438  0.00  0.00     0.055 A 
HETATM   16  C   UNK N   1      24.663  15.340   5.385  0.00  0.00     0.045 C 
HETATM   17  H   UNK N   1      18.380  16.934   3.481  0.00  0.00     0.168 HD
ENDROOT
BRANCH   9  18
HETATM   18  C   UNK N   1      25.694  17.802   4.767  0.00  0.00     0.301 C 
BRANCH  18  19
HETATM   19  C   UNK N   1      25.806  19.222   5.234  0.00  0.00     0.005 C 
HETATM   20  C   UNK N   1      26.972  19.878   5.246  0.00  0.00    -0.090 C 
HETATM   21  C   UNK N   1      28.250  19.219   4.833  0.00  0.00     0.042 C 
HETATM   22  C   UNK N   1      27.002  21.301   5.685  0.00  0.00     0.042 C 
ENDBRANCH  18  19
ENDBRANCH   9  18
TORSDOF 2
ENDMDL
MODEL 6
REMARK VINA RESULT:      -6.1     17.000     18.437
REMARK  2 active torsions:
REMARK  status: ('A' for Active; 'I' for Inactive)
REMARK    1  A    between atoms: N_9  and  C_17 
REMARK    2  A    between atoms: C_17  and  C_18 
ROOT
HETATM    1  N   UNK N   1      29.681  20.742  -6.765  0.00  0.00    -0.331 N 
HETATM    2  C   UNK N   1      30.138  21.339  -5.646  0.00  0.00     0.063 A 
HETATM    3  C   UNK N   1      28.666  21.550  -7.171  0.00  0.00     0.179 A 
HETATM    4  S   UNK N   1      27.882  21.295  -8.346  0.00  0.00    -0.040 SA
HETATM    5  N   UNK N   1      28.489  22.616  -6.348  0.00  0.00    -0.319 N 
HETATM    6  C   UNK N   1      29.418  22.469  -5.399  0.00  0.00     0.071 A 
HETATM    7  C   UNK N   1      27.513  23.704  -6.428  0.00  0.00     0.167 C 
HETATM    8  C   UNK N   1      26.705  23.809  -5.123  0.00  0.00     0.238 C 
HETATM    9  N   UNK N   1      27.454  24.378  -3.947  0.00  0.00     0.102 N 
HETATM   10  C   UNK N   1      28.902  24.560  -4.125  0.00  0.00     0.314 C 
HETATM   11  C   UNK N   1      29.668  23.291  -4.315  0.00  0.00     0.001 A 
HETATM   12  C   UNK N   1      30.722  22.931  -3.453  0.00  0.00     0.035 A 
HETATM   13 Cl   UNK N   1      32.803  21.335  -2.643  0.00  0.00    -0.084 Cl
HETATM   14  C   UNK N   1      31.479  21.758  -3.705  0.00  0.00     0.036 A 
HETATM   15  C   UNK N   1      31.186  20.944  -4.820  0.00  0.00     0.055 A 
HETATM   16  C   UNK N   1      25.405  24.546  -5.450  0.00  0.00     0.045 C 
HETATM   17  H   UNK N   1      30.006  19.914  -7.188  0.00  0.00     0.168 HD
ENDROOT
BRANCH   9  18
HETATM   18  C   UNK N   1      26.994  25.706  -3.543  0.00  0.00     0.301 C 
BRANCH  18  19
HETATM   19  C   UNK N   1      27.621  26.771  -4.391  0.00  0.00     0.005 C 
HETATM   20  C   UNK N   1      26.969  27.889  -4.729  0.00  0.00    -0.090 C 
HETATM   21  C   UNK N   1      25.550  28.127  -4.317  0.00  0.00     0.042 C 
HETATM   22  C   UNK N   1      27.668  28.924  -5.540  0.00  0.00     0.042 C 
ENDBRANCH  18  19
ENDBRANCH   9  18
TORSDOF 2
ENDMDL
MODEL 7
REMARK VINA RESULT:      -6.0      4.157      6.250
REMARK  2 active torsions:
REMARK  status: ('A' for Active; 'I' for Inactive)
REMARK    1  A    between atoms: N_9  and  C_17 
REMARK    2  A    between atoms: C_17  and  C_18 
ROOT
HETATM    1  N   UNK N   1      23.446  20.842   2.709  0.00  0.00    -0.331 N 
HETATM    2  C   UNK N   1      24.354  20.102   3.376  0.00  0.00     0.063 A 
HETATM    3  C   UNK N   1      22.287  20.149   2.866  0.00  0.00     0.179 A 
HETATM    4  S   UNK N   1      21.034  20.580   2.313  0.00  0.00    -0.040 SA
HETATM    5  N   UNK N   1      22.452  19.019   3.603  0.00  0.00    -0.319 N 
HETATM    6  C   UNK N   1      23.751  19.005   3.914  0.00  0.00     0.071 A 
HETATM    7  C   UNK N   1      21.467  18.008   3.992  0.00  0.00     0.167 C 
HETATM    8  C   UNK N   1      21.922  16.607   3.547  0.00  0.00     0.238 C 
HETATM    9  N   UNK N   1      23.055  16.015   4.344  0.00  0.00     0.102 N 
HETATM   10  C   UNK N   1      23.722  16.918   5.293  0.00  0.00     0.314 C 
HETATM   11  C   UNK N   1      24.440  18.065   4.659  0.00  0.00     0.001 A 
HETATM   12  C   UNK N   1      25.816  18.277   4.865  0.00  0.00     0.035 A 
HETATM   13 Cl   UNK N   1      28.157  19.686   4.596  0.00  0.00    -0.084 Cl
HETATM   14  C   UNK N   1      26.451  19.418   4.311  0.00  0.00     0.036 A 
HETATM   15  C   UNK N   1      25.712  20.351   3.552  0.00  0.00     0.055 A 
HETATM   16  C   UNK N   1      20.675  15.722   3.484  0.00  0.00     0.045 C 
HETATM   17  H   UNK N   1      23.588  21.686   2.222  0.00  0.00     0.168 HD
ENDROOT
BRANCH   9  18
HETATM   18  C   UNK N   1      22.658  14.881   5.178  0.00  0.00     0.301 C 
BRANCH  18  19
HETATM   19  C   UNK N   1      22.310  15.331   6.564  0.00  0.00     0.005 C 
HETATM   20  C   UNK N   1      21.405  14.693   7.315  0.00  0.00    -0.090 C 
HETATM   21  C   UNK N   1      20.647  13.512   6.798  0.00  0.00     0.042 C 
HETATM   22  C   UNK N   1      21.139  15.172   8.699  0.00  0.00     0.042 C 
ENDBRANCH  18  19
ENDBRANCH   9  18
TORSDOF 2
ENDMDL
MODEL 8
REMARK VINA RESULT:      -5.9      8.736     10.883
REMARK  2 active torsions:
REMARK  status: ('A' for Active; 'I' for Inactive)
REMARK    1  A    between atoms: N_9  and  C_17 
REMARK    2  A    between atoms: C_17  and  C_18 
ROOT
HETATM    1  N   UNK N   1      31.835  17.726   8.976  0.00  0.00    -0.331 N 
HETATM    2  C   UNK N   1      32.270  17.102   7.862  0.00  0.00     0.063 A 
HETATM    3  C   UNK N   1      30.514  17.933   8.735  0.00  0.00     0.179 A 
HETATM    4  S   UNK N   1      29.637  18.577   9.672  0.00  0.00    -0.040 SA
HETATM    5  N   UNK N   1      30.125  17.459   7.522  0.00  0.00    -0.319 N 
HETATM    6  C   UNK N   1      31.236  16.942   6.989  0.00  0.00     0.071 A 
HETATM    7  C   UNK N   1      28.806  17.488   6.889  0.00  0.00     0.167 C 
HETATM    8  C   UNK N   1      28.880  18.159   5.506  0.00  0.00     0.238 C 
HETATM    9  N   UNK N   1      29.537  17.339   4.427  0.00  0.00     0.102 N 
HETATM   10  C   UNK N   1      30.209  16.108   4.866  0.00  0.00     0.314 C 
HETATM   11  C   UNK N   1      31.387  16.328   5.759  0.00  0.00     0.001 A 
HETATM   12  C   UNK N   1      32.666  15.846   5.423  0.00  0.00     0.035 A 
HETATM   13 Cl   UNK N   1      35.328  15.380   5.911  0.00  0.00    -0.084 Cl
HETATM   14  C   UNK N   1      33.747  16.006   6.327  0.00  0.00     0.036 A 
HETATM   15  C   UNK N   1      33.552  16.644   7.571  0.00  0.00     0.055 A 
HETATM   16  C   UNK N   1      27.470  18.637   5.155  0.00  0.00     0.045 C 
HETATM   17  H   UNK N   1      32.354  17.973   9.775  0.00  0.00     0.168 HD
ENDROOT
BRANCH   9  18
HETATM   18  C   UNK N   1      28.609  16.869   3.399  0.00  0.00     0.301 C 
BRANCH  18  19
HETATM   19  C   UNK N   1      29.073  15.571   2.811  0.00  0.00     0.005 C 
HETATM   20  C   UNK N   1      28.261  14.779   2.102  0.00  0.00    -0.090 C 
HETATM   21  C   UNK N   1      26.820  15.119   1.889  0.00  0.00     0.042 C 
HETATM   22  C   UNK N   1      28.801  13.522   1.513  0.00  0.00     0.042 C 
ENDBRANCH  18  19
ENDBRANCH   9  18
TORSDOF 2
ENDMDL
MODEL 9
REMARK VINA RESULT:      -5.9     11.417     13.679
REMARK  2 active torsions:
REMARK  status: ('A' for Active; 'I' for Inactive)
REMARK    1  A    between atoms: N_9  and  C_17 
REMARK    2  A    between atoms: C_17  and  C_18 
ROOT
HETATM    1  N   UNK N   1      36.944  12.716   8.902  0.00  0.00    -0.331 N 
HETATM    2  C   UNK N   1      36.500  13.656   9.759  0.00  0.00     0.063 A 
HETATM    3  C   UNK N   1      36.515  13.156   7.689  0.00  0.00     0.179 A 
HETATM    4  S   UNK N   1      36.771  12.453   6.464  0.00  0.00    -0.040 SA
HETATM    5  N   UNK N   1      35.831  14.326   7.773  0.00  0.00    -0.319 N 
HETATM    6  C   UNK N   1      35.830  14.625   9.075  0.00  0.00     0.071 A 
HETATM    7  C   UNK N   1      35.206  15.119   6.713  0.00  0.00     0.167 C 
HETATM    8  C   UNK N   1      33.718  15.363   7.019  0.00  0.00     0.238 C 
HETATM    9  N   UNK N   1      33.441  16.354   8.118  0.00  0.00     0.102 N 
HETATM   10  C   UNK N   1      34.605  16.800   8.899  0.00  0.00     0.314 C 
HETATM   11  C   UNK N   1      35.265  15.724   9.699  0.00  0.00     0.001 A 
HETATM   12  C   UNK N   1      35.411  15.828  11.095  0.00  0.00     0.035 A 
HETATM   13 Cl   UNK N   1      36.308  14.977  13.546  0.00  0.00    -0.084 Cl
HETATM   14  C   UNK N   1      36.109  14.824  11.814  0.00  0.00     0.036 A 
HETATM   15  C   UNK N   1      36.666  13.717  11.140  0.00  0.00     0.055 A 
HETATM   16  C   UNK N   1      33.028  15.692   5.694  0.00  0.00     0.045 C 
HETATM   17  H   UNK N   1      37.459  11.901   9.106  0.00  0.00     0.168 HD
ENDROOT
BRANCH   9  18
HETATM   18  C   UNK N   1      32.852  17.606   7.646  0.00  0.00     0.301 C 
BRANCH  18  19
HETATM   19  C   UNK N   1      31.891  18.160   8.655  0.00  0.00     0.005 C 
HETATM   20  C   UNK N   1      30.569  17.987   8.548  0.00  0.00    -0.090 C 
HETATM   21  C   UNK N   1      29.960  17.266   7.388  0.00  0.00     0.042 C 
HETATM   22  C   UNK N   1      29.676  18.530   9.610  0.00  0.00     0.042 C 
ENDBRANCH  18  19
ENDBRANCH   9  18
TORSDOF 2
ENDMDL
