MODEL 1
REMARK VINA RESULT:      -5.8      0.000      0.000
REMARK  6 active torsions:
REMARK  status: ('A' for Active; 'I' for Inactive)
REMARK    1  A    between atoms: S_2  and  N_4 
REMARK    2  A    between atoms: C_10  and  S_2 
REMARK    3  A    between atoms: C_5  and  N_4 
REMARK    4  A    between atoms: C_7  and  C_5 
REMARK    5  A    between atoms: C_7  and  O_9 
REMARK    6  A    between atoms: O_16  and  C_13 
ROOT
HETATM    1  O   UNK N   1      34.543  13.042  13.901  0.00  0.00    -0.201 OA
HETATM    2  S   UNK N   1      35.953  13.100  14.506  0.00  0.00     0.259 S 
HETATM    3  O   UNK N   1      36.446  11.746  13.970  0.00  0.00    -0.201 OA
ENDROOT
BRANCH   2   4
HETATM    4  N   UNK N   1      36.848  14.196  13.402  0.00  0.00    -0.301 N 
HETATM    5  H   UNK N   1      37.595  14.835  13.676  0.00  0.00     0.173 HD
BRANCH   4   6
HETATM    6  C   UNK N   1      36.326  14.021  12.023  0.00  0.00     0.186 C 
HETATM    7  C   UNK N   1      37.361  13.309  11.166  0.00  0.00     0.044 C 
BRANCH   6   8
HETATM    8  C   UNK N   1      35.936  15.312  11.361  0.00  0.00     0.163 C 
HETATM    9  O   UNK N   1      34.756  15.615  11.279  0.00  0.00    -0.648 OA
BRANCH   8  10
HETATM   10  O   UNK N   1      36.873  16.157  10.887  0.00  0.00    -0.775 OA
HETATM   11  H   UNK N   1      37.202  16.855  11.417  0.00  0.00     0.167 HD
ENDBRANCH   8  10
ENDBRANCH   6   8
ENDBRANCH   4   6
ENDBRANCH   2   4
BRANCH   2  12
HETATM   12  C   UNK N   1      35.795  12.678  16.254  0.00  0.00     0.079 A 
HETATM   13  C   UNK N   1      35.336  13.552  17.252  0.00  0.00     0.028 A 
HETATM   14  C   UNK N   1      35.114  13.057  18.556  0.00  0.00     0.038 A 
HETATM   15  C   UNK N   1      35.332  11.689  18.849  0.00  0.00     0.068 A 
HETATM   16  C   UNK N   1      35.789  10.844  17.846  0.00  0.00     0.038 A 
HETATM   17  C   UNK N   1      36.009  11.333  16.569  0.00  0.00     0.028 A 
BRANCH  15  18
HETATM   18  O   UNK N   1      35.103  11.155  20.072  0.00  0.00    -0.356 OA
HETATM   19  C   UNK N   1      34.404   9.992  20.280  0.00  0.00     0.210 C 
ENDBRANCH  15  18
ENDBRANCH   2  12
TORSDOF 6
ENDMDL
MODEL 2
REMARK VINA RESULT:      -5.7     12.644     16.361
REMARK  6 active torsions:
REMARK  status: ('A' for Active; 'I' for Inactive)
REMARK    1  A    between atoms: S_2  and  N_4 
REMARK    2  A    between atoms: C_10  and  S_2 
REMARK    3  A    between atoms: C_5  and  N_4 
REMARK    4  A    between atoms: C_7  and  C_5 
REMARK    5  A    between atoms: C_7  and  O_9 
REMARK    6  A    between atoms: O_16  and  C_13 
ROOT
HETATM    1  O   UNK N   1      27.824  19.937   5.506  0.00  0.00    -0.201 OA
HETATM    2  S   UNK N   1      26.984  18.662   5.341  0.00  0.00     0.259 S 
HETATM    3  O   UNK N   1      27.831  18.020   4.230  0.00  0.00    -0.201 OA
ENDROOT
BRANCH   2   4
HETATM    4  N   UNK N   1      27.487  17.635   6.723  0.00  0.00    -0.301 N 
HETATM    5  H   UNK N   1      27.035  16.768   7.014  0.00  0.00     0.173 HD
BRANCH   4   6
HETATM    6  C   UNK N   1      28.668  18.253   7.377  0.00  0.00     0.186 C 
HETATM    7  C   UNK N   1      29.917  17.446   7.054  0.00  0.00     0.044 C 
BRANCH   6   8
HETATM    8  C   UNK N   1      28.532  18.380   8.868  0.00  0.00     0.163 C 
HETATM    9  O   UNK N   1      29.475  18.792   9.526  0.00  0.00    -0.648 OA
BRANCH   8  10
HETATM   10  O   UNK N   1      27.373  18.080   9.485  0.00  0.00    -0.775 OA
HETATM   11  H   UNK N   1      26.827  18.754   9.835  0.00  0.00     0.167 HD
ENDBRANCH   8  10
ENDBRANCH   6   8
ENDBRANCH   4   6
ENDBRANCH   2   4
BRANCH   2  12
HETATM   12  C   UNK N   1      25.529  19.111   4.371  0.00  0.00     0.079 A 
HETATM   13  C   UNK N   1      24.245  18.576   4.557  0.00  0.00     0.028 A 
HETATM   14  C   UNK N   1      23.158  19.118   3.836  0.00  0.00     0.038 A 
HETATM   15  C   UNK N   1      23.358  20.204   2.949  0.00  0.00     0.068 A 
HETATM   16  C   UNK N   1      24.638  20.715   2.779  0.00  0.00     0.038 A 
HETATM   17  C   UNK N   1      25.703  20.179   3.486  0.00  0.00     0.028 A 
BRANCH  15  18
HETATM   18  O   UNK N   1      22.348  20.783   2.259  0.00  0.00    -0.356 OA
HETATM   19  C   UNK N   1      21.031  20.730   2.641  0.00  0.00     0.210 C 
ENDBRANCH  15  18
ENDBRANCH   2  12
TORSDOF 6
ENDMDL
MODEL 3
REMARK VINA RESULT:      -5.6      6.431     10.166
REMARK  6 active torsions:
REMARK  status: ('A' for Active; 'I' for Inactive)
REMARK    1  A    between atoms: S_2  and  N_4 
REMARK    2  A    between atoms: C_10  and  S_2 
REMARK    3  A    between atoms: C_5  and  N_4 
REMARK    4  A    between atoms: C_7  and  C_5 
REMARK    5  A    between atoms: C_7  and  O_9 
REMARK    6  A    between atoms: O_16  and  C_13 
ROOT
HETATM    1  O   UNK N   1      34.517  18.923   8.246  0.00  0.00    -0.201 OA
HETATM    2  S   UNK N   1      33.834  17.588   8.575  0.00  0.00     0.259 S 
HETATM    3  O   UNK N   1      34.567  16.737   7.525  0.00  0.00    -0.201 OA
ENDROOT
BRANCH   2   4
HETATM    4  N   UNK N   1      34.683  17.026  10.052  0.00  0.00    -0.301 N 
HETATM    5  H   UNK N   1      34.956  17.614  10.840  0.00  0.00     0.173 HD
BRANCH   4   6
HETATM    6  C   UNK N   1      34.924  15.565   9.942  0.00  0.00     0.186 C 
HETATM    7  C   UNK N   1      33.882  14.808  10.752  0.00  0.00     0.044 C 
BRANCH   6   8
HETATM    8  C   UNK N   1      36.297  15.147  10.387  0.00  0.00     0.163 C 
HETATM    9  O   UNK N   1      36.612  13.968  10.340  0.00  0.00    -0.648 OA
BRANCH   8  10
HETATM   10  O   UNK N   1      37.196  16.059  10.805  0.00  0.00    -0.775 OA
HETATM   11  H   UNK N   1      37.648  16.604  10.192  0.00  0.00     0.167 HD
ENDBRANCH   8  10
ENDBRANCH   6   8
ENDBRANCH   4   6
ENDBRANCH   2   4
BRANCH   2  12
HETATM   12  C   UNK N   1      32.196  17.633   7.817  0.00  0.00     0.079 A 
HETATM   13  C   UNK N   1      31.891  17.138   6.540  0.00  0.00     0.028 A 
HETATM   14  C   UNK N   1      30.543  17.094   6.119  0.00  0.00     0.038 A 
HETATM   15  C   UNK N   1      29.509  17.523   6.986  0.00  0.00     0.068 A 
HETATM   16  C   UNK N   1      29.836  18.010   8.245  0.00  0.00     0.038 A 
HETATM   17  C   UNK N   1      31.159  18.056   8.653  0.00  0.00     0.028 A 
BRANCH  15  18
HETATM   18  O   UNK N   1      28.199  17.470   6.648  0.00  0.00    -0.356 OA
HETATM   19  C   UNK N   1      27.504  16.301   6.458  0.00  0.00     0.210 C 
ENDBRANCH  15  18
ENDBRANCH   2  12
TORSDOF 6
ENDMDL
MODEL 4
REMARK VINA RESULT:      -5.6     10.175     12.213
REMARK  6 active torsions:
REMARK  status: ('A' for Active; 'I' for Inactive)
REMARK    1  A    between atoms: S_2  and  N_4 
REMARK    2  A    between atoms: C_10  and  S_2 
REMARK    3  A    between atoms: C_5  and  N_4 
REMARK    4  A    between atoms: C_7  and  C_5 
REMARK    5  A    between atoms: C_7  and  O_9 
REMARK    6  A    between atoms: O_16  and  C_13 
ROOT
HETATM    1  O   UNK N   1      28.887  18.252  10.006  0.00  0.00    -0.201 OA
HETATM    2  S   UNK N   1      28.744  18.263   8.477  0.00  0.00     0.259 S 
HETATM    3  O   UNK N   1      27.957  16.948   8.352  0.00  0.00    -0.201 OA
ENDROOT
BRANCH   2   4
HETATM    4  N   UNK N   1      27.413  19.430   8.180  0.00  0.00    -0.301 N 
HETATM    5  H   UNK N   1      26.653  19.640   8.827  0.00  0.00     0.173 HD
BRANCH   4   6
HETATM    6  C   UNK N   1      27.597  20.038   6.839  0.00  0.00     0.186 C 
HETATM    7  C   UNK N   1      26.684  21.247   6.692  0.00  0.00     0.044 C 
BRANCH   6   8
HETATM    8  C   UNK N   1      27.344  19.085   5.706  0.00  0.00     0.163 C 
HETATM    9  O   UNK N   1      27.965  19.213   4.662  0.00  0.00    -0.648 OA
BRANCH   8  10
HETATM   10  O   UNK N   1      26.469  18.070   5.838  0.00  0.00    -0.775 OA
HETATM   11  H   UNK N   1      26.402  17.595   6.642  0.00  0.00     0.167 HD
ENDBRANCH   8  10
ENDBRANCH   6   8
ENDBRANCH   4   6
ENDBRANCH   2   4
BRANCH   2  12
HETATM   12  C   UNK N   1      30.324  17.719   7.796  0.00  0.00     0.079 A 
HETATM   13  C   UNK N   1      30.499  17.175   6.513  0.00  0.00     0.028 A 
HETATM   14  C   UNK N   1      31.807  16.928   6.039  0.00  0.00     0.038 A 
HETATM   15  C   UNK N   1      32.930  17.246   6.840  0.00  0.00     0.068 A 
HETATM   16  C   UNK N   1      32.732  17.781   8.106  0.00  0.00     0.038 A 
HETATM   17  C   UNK N   1      31.448  18.019   8.570  0.00  0.00     0.028 A 
BRANCH  15  18
HETATM   18  O   UNK N   1      34.205  17.063   6.423  0.00  0.00    -0.356 OA
HETATM   19  C   UNK N   1      34.804  15.833   6.312  0.00  0.00     0.210 C 
ENDBRANCH  15  18
ENDBRANCH   2  12
TORSDOF 6
ENDMDL
MODEL 5
REMARK VINA RESULT:      -5.5      4.249      9.432
REMARK  6 active torsions:
REMARK  status: ('A' for Active; 'I' for Inactive)
REMARK    1  A    between atoms: S_2  and  N_4 
REMARK    2  A    between atoms: C_10  and  S_2 
REMARK    3  A    between atoms: C_5  and  N_4 
REMARK    4  A    between atoms: C_7  and  C_5 
REMARK    5  A    between atoms: C_7  and  O_9 
REMARK    6  A    between atoms: O_16  and  C_13 
ROOT
HETATM    1  O   UNK N   1      35.509  16.509  11.116  0.00  0.00    -0.201 OA
HETATM    2  S   UNK N   1      34.967  15.389  10.216  0.00  0.00     0.259 S 
HETATM    3  O   UNK N   1      36.315  14.706   9.931  0.00  0.00    -0.201 OA
ENDROOT
BRANCH   2   4
HETATM    4  N   UNK N   1      34.278  14.205  11.374  0.00  0.00    -0.301 N 
HETATM    5  H   UNK N   1      33.284  14.062  11.557  0.00  0.00     0.173 HD
BRANCH   4   6
HETATM    6  C   UNK N   1      35.388  13.465  12.025  0.00  0.00     0.186 C 
HETATM    7  C   UNK N   1      35.045  11.985  12.104  0.00  0.00     0.044 C 
BRANCH   6   8
HETATM    8  C   UNK N   1      35.722  13.971  13.400  0.00  0.00     0.163 C 
HETATM    9  O   UNK N   1      35.109  13.541  14.365  0.00  0.00    -0.648 OA
BRANCH   8  10
HETATM   10  O   UNK N   1      36.712  14.864  13.587  0.00  0.00    -0.775 OA
HETATM   11  H   UNK N   1      37.606  14.629  13.436  0.00  0.00     0.167 HD
ENDBRANCH   8  10
ENDBRANCH   6   8
ENDBRANCH   4   6
ENDBRANCH   2   4
BRANCH   2  12
HETATM   12  C   UNK N   1      34.664  16.117   8.592  0.00  0.00     0.079 A 
HETATM   13  C   UNK N   1      34.779  15.431   7.372  0.00  0.00     0.028 A 
HETATM   14  C   UNK N   1      34.369  16.068   6.180  0.00  0.00     0.038 A 
HETATM   15  C   UNK N   1      33.828  17.376   6.216  0.00  0.00     0.068 A 
HETATM   16  C   UNK N   1      33.726  18.035   7.434  0.00  0.00     0.038 A 
HETATM   17  C   UNK N   1      34.132  17.409   8.602  0.00  0.00     0.028 A 
BRANCH  15  18
HETATM   18  O   UNK N   1      33.388  18.019   5.109  0.00  0.00    -0.356 OA
HETATM   19  C   UNK N   1      32.763  17.395   4.059  0.00  0.00     0.210 C 
ENDBRANCH  15  18
ENDBRANCH   2  12
TORSDOF 6
ENDMDL
MODEL 6
REMARK VINA RESULT:      -5.5     20.608     21.867
REMARK  6 active torsions:
REMARK  status: ('A' for Active; 'I' for Inactive)
REMARK    1  A    between atoms: S_2  and  N_4 
REMARK    2  A    between atoms: C_10  and  S_2 
REMARK    3  A    between atoms: C_5  and  N_4 
REMARK    4  A    between atoms: C_7  and  C_5 
REMARK    5  A    between atoms: C_7  and  O_9 
REMARK    6  A    between atoms: O_16  and  C_13 
ROOT
HETATM    1  O   UNK N   1      20.386  17.090  -0.319  0.00  0.00    -0.201 OA
HETATM    2  S   UNK N   1      19.894  16.644   1.065  0.00  0.00     0.259 S 
HETATM    3  O   UNK N   1      21.279  16.453   1.706  0.00  0.00    -0.201 OA
ENDROOT
BRANCH   2   4
HETATM    4  N   UNK N   1      19.411  18.177   1.863  0.00  0.00    -0.301 N 
HETATM    5  H   UNK N   1      18.453  18.463   2.067  0.00  0.00     0.173 HD
BRANCH   4   6
HETATM    6  C   UNK N   1      20.631  18.962   2.177  0.00  0.00     0.186 C 
HETATM    7  C   UNK N   1      20.600  19.402   3.633  0.00  0.00     0.044 C 
BRANCH   6   8
HETATM    8  C   UNK N   1      20.814  20.166   1.298  0.00  0.00     0.163 C 
HETATM    9  O   UNK N   1      21.152  21.229   1.796  0.00  0.00    -0.648 OA
BRANCH   8  10
HETATM   10  O   UNK N   1      20.644  20.082  -0.035  0.00  0.00    -0.775 OA
HETATM   11  H   UNK N   1      19.808  20.245  -0.425  0.00  0.00     0.167 HD
ENDBRANCH   8  10
ENDBRANCH   6   8
ENDBRANCH   4   6
ENDBRANCH   2   4
BRANCH   2  12
HETATM   12  C   UNK N   1      19.404  14.912   0.919  0.00  0.00     0.079 A 
HETATM   13  C   UNK N   1      18.312  14.449   0.168  0.00  0.00     0.028 A 
HETATM   14  C   UNK N   1      18.122  13.059   0.009  0.00  0.00     0.038 A 
HETATM   15  C   UNK N   1      19.035  12.141   0.584  0.00  0.00     0.068 A 
HETATM   16  C   UNK N   1      20.106  12.623   1.325  0.00  0.00     0.038 A 
HETATM   17  C   UNK N   1      20.288  13.988   1.481  0.00  0.00     0.028 A 
BRANCH  15  18
HETATM   18  O   UNK N   1      18.920  10.801   0.435  0.00  0.00    -0.356 OA
HETATM   19  C   UNK N   1      19.887  10.008  -0.132  0.00  0.00     0.210 C 
ENDBRANCH  15  18
ENDBRANCH   2  12
TORSDOF 6
ENDMDL
MODEL 7
REMARK VINA RESULT:      -5.4      6.830     10.409
REMARK  6 active torsions:
REMARK  status: ('A' for Active; 'I' for Inactive)
REMARK    1  A    between atoms: S_2  and  N_4 
REMARK    2  A    between atoms: C_10  and  S_2 
REMARK    3  A    between atoms: C_5  and  N_4 
REMARK    4  A    between atoms: C_7  and  C_5 
REMARK    5  A    between atoms: C_7  and  O_9 
REMARK    6  A    between atoms: O_16  and  C_13 
ROOT
HETATM    1  O   UNK N   1      34.474  18.320   8.634  0.00  0.00    -0.201 OA
HETATM    2  S   UNK N   1      33.999  17.124   7.797  0.00  0.00     0.259 S 
HETATM    3  O   UNK N   1      34.599  17.581   6.457  0.00  0.00    -0.201 OA
ENDROOT
BRANCH   2   4
HETATM    4  N   UNK N   1      35.163  15.823   8.210  0.00  0.00    -0.301 N 
HETATM    5  H   UNK N   1      36.141  15.787   7.921  0.00  0.00     0.173 HD
BRANCH   4   6
HETATM    6  C   UNK N   1      34.472  14.805   9.041  0.00  0.00     0.186 C 
HETATM    7  C   UNK N   1      33.222  14.317   8.324  0.00  0.00     0.044 C 
BRANCH   6   8
HETATM    8  C   UNK N   1      34.098  15.298  10.409  0.00  0.00     0.163 C 
HETATM    9  O   UNK N   1      34.902  15.954  11.054  0.00  0.00    -0.648 OA
BRANCH   8  10
HETATM   10  O   UNK N   1      32.876  15.058  10.921  0.00  0.00    -0.775 OA
HETATM   11  H   UNK N   1      32.761  14.458  11.631  0.00  0.00     0.167 HD
ENDBRANCH   8  10
ENDBRANCH   6   8
ENDBRANCH   4   6
ENDBRANCH   2   4
BRANCH   2  12
HETATM   12  C   UNK N   1      32.251  17.394   7.436  0.00  0.00     0.079 A 
HETATM   13  C   UNK N   1      31.627  17.082   6.218  0.00  0.00     0.028 A 
HETATM   14  C   UNK N   1      30.223  17.199   6.110  0.00  0.00     0.038 A 
HETATM   15  C   UNK N   1      29.451  17.606   7.225  0.00  0.00     0.068 A 
HETATM   16  C   UNK N   1      30.091  17.911   8.419  0.00  0.00     0.038 A 
HETATM   17  C   UNK N   1      31.468  17.798   8.521  0.00  0.00     0.028 A 
BRANCH  15  18
HETATM   18  O   UNK N   1      28.101  17.702   7.188  0.00  0.00    -0.356 OA
HETATM   19  C   UNK N   1      27.393  18.111   6.085  0.00  0.00     0.210 C 
ENDBRANCH  15  18
ENDBRANCH   2  12
TORSDOF 6
ENDMDL
MODEL 8
REMARK VINA RESULT:      -5.4      6.993     10.967
REMARK  6 active torsions:
REMARK  status: ('A' for Active; 'I' for Inactive)
REMARK    1  A    between atoms: S_2  and  N_4 
REMARK    2  A    between atoms: C_10  and  S_2 
REMARK    3  A    between atoms: C_5  and  N_4 
REMARK    4  A    between atoms: C_7  and  C_5 
REMARK    5  A    between atoms: C_7  and  O_9 
REMARK    6  A    between atoms: O_16  and  C_13 
ROOT
HETATM    1  O   UNK N   1      34.696  18.354   7.232  0.00  0.00    -0.201 OA
HETATM    2  S   UNK N   1      34.059  16.970   7.046  0.00  0.00     0.259 S 
HETATM    3  O   UNK N   1      34.783  16.601   5.741  0.00  0.00    -0.201 OA
ENDROOT
BRANCH   2   4
HETATM    4  N   UNK N   1      34.965  15.924   8.189  0.00  0.00    -0.301 N 
HETATM    5  H   UNK N   1      35.738  15.306   7.941  0.00  0.00     0.173 HD
BRANCH   4   6
HETATM    6  C   UNK N   1      34.408  16.104   9.553  0.00  0.00     0.186 C 
HETATM    7  C   UNK N   1      35.531  16.412  10.531  0.00  0.00     0.044 C 
BRANCH   6   8
HETATM    8  C   UNK N   1      33.631  14.917  10.046  0.00  0.00     0.163 C 
HETATM    9  O   UNK N   1      33.603  13.895   9.378  0.00  0.00    -0.648 OA
BRANCH   8  10
HETATM   10  O   UNK N   1      32.995  14.951  11.233  0.00  0.00    -0.775 OA
HETATM   11  H   UNK N   1      33.363  14.536  11.988  0.00  0.00     0.167 HD
ENDBRANCH   8  10
ENDBRANCH   6   8
ENDBRANCH   4   6
ENDBRANCH   2   4
BRANCH   2  12
HETATM   12  C   UNK N   1      32.399  17.236   6.390  0.00  0.00     0.079 A 
HETATM   13  C   UNK N   1      32.083  17.338   5.026  0.00  0.00     0.028 A 
HETATM   14  C   UNK N   1      30.728  17.396   4.632  0.00  0.00     0.038 A 
HETATM   15  C   UNK N   1      29.697  17.329   5.601  0.00  0.00     0.068 A 
HETATM   16  C   UNK N   1      30.034  17.231   6.944  0.00  0.00     0.038 A 
HETATM   17  C   UNK N   1      31.364  17.178   7.328  0.00  0.00     0.028 A 
BRANCH  15  18
HETATM   18  O   UNK N   1      28.383  17.345   5.277  0.00  0.00    -0.356 OA
HETATM   19  C   UNK N   1      27.369  17.162   6.184  0.00  0.00     0.210 C 
ENDBRANCH  15  18
ENDBRANCH   2  12
TORSDOF 6
ENDMDL
MODEL 9
REMARK VINA RESULT:      -5.4      5.859     10.060
REMARK  6 active torsions:
REMARK  status: ('A' for Active; 'I' for Inactive)
REMARK    1  A    between atoms: S_2  and  N_4 
REMARK    2  A    between atoms: C_10  and  S_2 
REMARK    3  A    between atoms: C_5  and  N_4 
REMARK    4  A    between atoms: C_7  and  C_5 
REMARK    5  A    between atoms: C_7  and  O_9 
REMARK    6  A    between atoms: O_16  and  C_13 
ROOT
HETATM    1  O   UNK N   1      33.952  15.307   8.151  0.00  0.00    -0.201 OA
HETATM    2  S   UNK N   1      32.723  15.307   9.070  0.00  0.00     0.259 S 
HETATM    3  O   UNK N   1      32.312  13.843   8.838  0.00  0.00    -0.201 OA
ENDROOT
BRANCH   2   4
HETATM    4  N   UNK N   1      33.419  15.157  10.717  0.00  0.00    -0.301 N 
HETATM    5  H   UNK N   1      32.900  15.245  11.591  0.00  0.00     0.173 HD
BRANCH   4   6
HETATM    6  C   UNK N   1      34.874  14.886  10.602  0.00  0.00     0.186 C 
HETATM    7  C   UNK N   1      35.285  13.835  11.623  0.00  0.00     0.044 C 
BRANCH   6   8
HETATM    8  C   UNK N   1      35.729  16.108  10.777  0.00  0.00     0.163 C 
HETATM    9  O   UNK N   1      35.202  17.208  10.839  0.00  0.00    -0.648 OA
BRANCH   8  10
HETATM   10  O   UNK N   1      37.066  16.005  10.902  0.00  0.00    -0.775 OA
HETATM   11  H   UNK N   1      37.638  16.590  10.447  0.00  0.00     0.167 HD
ENDBRANCH   8  10
ENDBRANCH   6   8
ENDBRANCH   4   6
ENDBRANCH   2   4
BRANCH   2  12
HETATM   12  C   UNK N   1      31.390  16.127   8.170  0.00  0.00     0.079 A 
HETATM   13  C   UNK N   1      30.595  17.163   8.683  0.00  0.00     0.028 A 
HETATM   14  C   UNK N   1      29.685  17.825   7.829  0.00  0.00     0.038 A 
HETATM   15  C   UNK N   1      29.592  17.462   6.464  0.00  0.00     0.068 A 
HETATM   16  C   UNK N   1      30.388  16.432   5.979  0.00  0.00     0.038 A 
HETATM   17  C   UNK N   1      31.276  15.782   6.820  0.00  0.00     0.028 A 
BRANCH  15  18
HETATM   18  O   UNK N   1      28.764  18.085   5.593  0.00  0.00    -0.356 OA
HETATM   19  C   UNK N   1      27.530  18.583   5.933  0.00  0.00     0.210 C 
ENDBRANCH  15  18
ENDBRANCH   2  12
TORSDOF 6
ENDMDL
