REMARK  6 active torsions:
REMARK  status: ('A' for Active; 'I' for Inactive)
REMARK    1  A    between atoms: S_2  and  N_4 
REMARK    2  A    between atoms: C_10  and  S_2 
REMARK    3  A    between atoms: C_5  and  N_4 
REMARK    4  A    between atoms: C_7  and  C_5 
REMARK    5  A    between atoms: C_7  and  O_9 
REMARK    6  A    between atoms: O_16  and  C_13 
ROOT
HETATM    1  O   UNK N   1       0.745  -0.338   1.607  0.00  0.00    -0.201 OA
HETATM    2  S   UNK N   1       0.477  -0.142   0.108  0.00  0.00     0.259 S 
HETATM    3  O   UNK N   1       1.218   1.197  -0.043  0.00  0.00    -0.201 OA
ENDROOT
BRANCH   2   4
HETATM    4  N   UNK N   1       1.667  -1.226  -0.685  0.00  0.00    -0.301 N 
HETATM    5  H   UNK N   1       1.440  -2.004  -1.305  0.00  0.00     0.173 HD
BRANCH   4   6
HETATM    6  C   UNK N   1       3.036  -0.808  -0.292  0.00  0.00     0.186 C 
HETATM    7  C   UNK N   1       3.608   0.134  -1.341  0.00  0.00     0.044 C 
BRANCH   6   8
HETATM    8  C   UNK N   1       3.981  -1.958  -0.090  0.00  0.00     0.163 C 
HETATM    9  O   UNK N   1       5.114  -1.743   0.312  0.00  0.00    -0.648 OA
BRANCH   8  10
HETATM   10  O   UNK N   1       3.585  -3.226  -0.312  0.00  0.00    -0.775 OA
HETATM   11  H   UNK N   1       2.684  -3.428  -0.467  0.00  0.00     0.167 HD
ENDBRANCH   8  10
ENDBRANCH   6   8
ENDBRANCH   4   6
ENDBRANCH   2   4
BRANCH   2  12
HETATM   12  C   UNK N   1      -1.221   0.449  -0.052  0.00  0.00     0.079 A 
HETATM   13  C   UNK N   1      -2.311  -0.342  -0.448  0.00  0.00     0.028 A 
HETATM   14  C   UNK N   1      -3.615   0.198  -0.389  0.00  0.00     0.038 A 
HETATM   15  C   UNK N   1      -3.823   1.516   0.085  0.00  0.00     0.068 A 
HETATM   16  C   UNK N   1      -2.729   2.280   0.469  0.00  0.00     0.038 A 
HETATM   17  C   UNK N   1      -1.451   1.749   0.407  0.00  0.00     0.028 A 
BRANCH  15  18
HETATM   18  O   UNK N   1      -5.053   2.071   0.195  0.00  0.00    -0.356 OA
HETATM   19  C   UNK N   1      -6.220   1.409  -0.095  0.00  0.00     0.210 C 
ENDBRANCH  15  18
ENDBRANCH   2  12
TORSDOF 6
