MODEL 1
REMARK VINA RESULT:      -6.9      0.000      0.000
REMARK  2 active torsions:
REMARK  status: ('A' for Active; 'I' for Inactive)
REMARK    1  A    between atoms: N_9  and  C_17 
REMARK    2  A    between atoms: C_17  and  C_18 
ROOT
HETATM    1  N   UNK N   1      34.163  16.373   5.208  0.00  0.00    -0.331 N 
HETATM    2  C   UNK N   1      33.447  16.901   6.222  0.00  0.00     0.062 A 
HETATM    3  C   UNK N   1      33.217  15.853   4.383  0.00  0.00     0.179 A 
HETATM    4  S   UNK N   1      33.535  15.156   3.167  0.00  0.00    -0.040 SA
HETATM    5  N   UNK N   1      31.957  16.042   4.851  0.00  0.00    -0.319 N 
HETATM    6  C   UNK N   1      32.117  16.699   6.005  0.00  0.00     0.073 A 
HETATM    7  C   UNK N   1      30.690  15.585   4.288  0.00  0.00     0.167 C 
HETATM    8  C   UNK N   1      29.649  16.702   4.081  0.00  0.00     0.238 C 
HETATM    9  N   UNK N   1      29.378  17.551   5.286  0.00  0.00     0.102 N 
HETATM   10  C   UNK N   1      29.683  16.906   6.569  0.00  0.00     0.316 C 
HETATM   11  C   UNK N   1      31.135  17.139   6.887  0.00  0.00     0.021 A 
HETATM   12  C   UNK N   1      31.568  17.826   8.047  0.00  0.00     0.044 A 
HETATM   13 Cl   UNK N   1      30.416  18.449   9.214  0.00  0.00    -0.084 Cl
HETATM   14  C   UNK N   1      32.955  18.029   8.273  0.00  0.00     0.027 A 
HETATM   15  C   UNK N   1      33.914  17.562   7.352  0.00  0.00     0.034 A 
HETATM   16  C   UNK N   1      28.404  15.979   3.565  0.00  0.00     0.045 C 
HETATM   17  H   UNK N   1      35.140  16.367   5.092  0.00  0.00     0.168 HD
ENDROOT
BRANCH   9  18
HETATM   18  C   UNK N   1      28.013  18.106   5.259  0.00  0.00     0.301 C 
BRANCH  18  19
HETATM   19  C   UNK N   1      27.859  19.402   6.003  0.00  0.00     0.005 C 
HETATM   20  C   UNK N   1      27.278  20.470   5.439  0.00  0.00    -0.090 C 
HETATM   21  C   UNK N   1      27.122  21.722   6.230  0.00  0.00     0.042 C 
HETATM   22  C   UNK N   1      26.777  20.439   4.028  0.00  0.00     0.042 C 
ENDBRANCH  18  19
ENDBRANCH   9  18
TORSDOF 2
ENDMDL
MODEL 2
REMARK VINA RESULT:      -6.3      2.628      3.901
REMARK  2 active torsions:
REMARK  status: ('A' for Active; 'I' for Inactive)
REMARK    1  A    between atoms: N_9  and  C_17 
REMARK    2  A    between atoms: C_17  and  C_18 
ROOT
HETATM    1  N   UNK N   1      35.235  15.417   7.634  0.00  0.00    -0.331 N 
HETATM    2  C   UNK N   1      34.528  15.516   6.490  0.00  0.00     0.062 A 
HETATM    3  C   UNK N   1      34.561  16.218   8.499  0.00  0.00     0.179 A 
HETATM    4  S   UNK N   1      34.983  16.439   9.855  0.00  0.00    -0.040 SA
HETATM    5  N   UNK N   1      33.474  16.800   7.931  0.00  0.00    -0.319 N 
HETATM    6  C   UNK N   1      33.466  16.352   6.671  0.00  0.00     0.073 A 
HETATM    7  C   UNK N   1      32.538  17.759   8.510  0.00  0.00     0.167 C 
HETATM    8  C   UNK N   1      31.058  17.343   8.406  0.00  0.00     0.238 C 
HETATM    9  N   UNK N   1      30.597  16.970   7.030  0.00  0.00     0.102 N 
HETATM   10  C   UNK N   1      31.390  17.552   5.941  0.00  0.00     0.316 C 
HETATM   11  C   UNK N   1      32.556  16.643   5.660  0.00  0.00     0.021 A 
HETATM   12  C   UNK N   1      32.766  16.026   4.403  0.00  0.00     0.044 A 
HETATM   13 Cl   UNK N   1      31.665  16.300   3.064  0.00  0.00    -0.084 Cl
HETATM   14  C   UNK N   1      33.876  15.162   4.215  0.00  0.00     0.027 A 
HETATM   15  C   UNK N   1      34.775  14.898   5.269  0.00  0.00     0.034 A 
HETATM   16  C   UNK N   1      30.283  18.520   8.999  0.00  0.00     0.045 C 
HETATM   17  H   UNK N   1      36.048  14.888   7.802  0.00  0.00     0.168 HD
ENDROOT
BRANCH   9  18
HETATM   18  C   UNK N   1      29.155  17.222   6.857  0.00  0.00     0.301 C 
BRANCH  18  19
HETATM   19  C   UNK N   1      28.802  17.934   5.582  0.00  0.00     0.005 C 
HETATM   20  C   UNK N   1      28.110  19.083   5.589  0.00  0.00    -0.090 C 
HETATM   21  C   UNK N   1      27.812  19.765   4.300  0.00  0.00     0.042 C 
HETATM   22  C   UNK N   1      27.630  19.704   6.863  0.00  0.00     0.042 C 
ENDBRANCH  18  19
ENDBRANCH   9  18
TORSDOF 2
ENDMDL
MODEL 3
REMARK VINA RESULT:      -6.2      2.638      3.915
REMARK  2 active torsions:
REMARK  status: ('A' for Active; 'I' for Inactive)
REMARK    1  A    between atoms: N_9  and  C_17 
REMARK    2  A    between atoms: C_17  and  C_18 
ROOT
HETATM    1  N   UNK N   1      32.541  13.674   7.201  0.00  0.00    -0.331 N 
HETATM    2  C   UNK N   1      31.873  14.165   6.137  0.00  0.00     0.062 A 
HETATM    3  C   UNK N   1      32.448  14.667   8.124  0.00  0.00     0.179 A 
HETATM    4  S   UNK N   1      33.053  14.585   9.426  0.00  0.00    -0.040 SA
HETATM    5  N   UNK N   1      31.753  15.740   7.668  0.00  0.00    -0.319 N 
HETATM    6  C   UNK N   1      31.400  15.412   6.421  0.00  0.00     0.073 A 
HETATM    7  C   UNK N   1      31.488  17.013   8.332  0.00  0.00     0.167 C 
HETATM    8  C   UNK N   1      29.998  17.400   8.390  0.00  0.00     0.238 C 
HETATM    9  N   UNK N   1      29.282  17.370   7.074  0.00  0.00     0.102 N 
HETATM   10  C   UNK N   1      30.152  17.523   5.901  0.00  0.00     0.316 C 
HETATM   11  C   UNK N   1      30.668  16.165   5.508  0.00  0.00     0.021 A 
HETATM   12  C   UNK N   1      30.416  15.582   4.243  0.00  0.00     0.044 A 
HETATM   13 Cl   UNK N   1      29.480  16.430   3.024  0.00  0.00    -0.084 Cl
HETATM   14  C   UNK N   1      30.916  14.287   3.948  0.00  0.00     0.027 A 
HETATM   15  C   UNK N   1      31.657  13.562   4.903  0.00  0.00     0.034 A 
HETATM   16  C   UNK N   1      29.982  18.780   9.048  0.00  0.00     0.045 C 
HETATM   17  H   UNK N   1      32.989  12.803   7.288  0.00  0.00     0.168 HD
ENDROOT
BRANCH   9  18
HETATM   18  C   UNK N   1      28.155  18.318   7.051  0.00  0.00     0.301 C 
BRANCH  18  19
HETATM   19  C   UNK N   1      27.666  18.664   5.672  0.00  0.00     0.005 C 
HETATM   20  C   UNK N   1      27.377  19.927   5.326  0.00  0.00    -0.090 C 
HETATM   21  C   UNK N   1      26.926  20.220   3.939  0.00  0.00     0.042 C 
HETATM   22  C   UNK N   1      27.500  21.057   6.301  0.00  0.00     0.042 C 
ENDBRANCH  18  19
ENDBRANCH   9  18
TORSDOF 2
ENDMDL
MODEL 4
REMARK VINA RESULT:      -6.1     12.150     14.251
REMARK  2 active torsions:
REMARK  status: ('A' for Active; 'I' for Inactive)
REMARK    1  A    between atoms: N_9  and  C_17 
REMARK    2  A    between atoms: C_17  and  C_18 
ROOT
HETATM    1  N   UNK N   1      29.961  21.491  -6.784  0.00  0.00    -0.331 N 
HETATM    2  C   UNK N   1      29.415  22.266  -5.825  0.00  0.00     0.062 A 
HETATM    3  C   UNK N   1      29.094  21.607  -7.824  0.00  0.00     0.179 A 
HETATM    4  S   UNK N   1      29.269  20.914  -9.071  0.00  0.00    -0.040 SA
HETATM    5  N   UNK N   1      28.045  22.420  -7.539  0.00  0.00    -0.319 N 
HETATM    6  C   UNK N   1      28.258  22.824  -6.282  0.00  0.00     0.073 A 
HETATM    7  C   UNK N   1      26.887  22.748  -8.365  0.00  0.00     0.167 C 
HETATM    8  C   UNK N   1      26.648  24.259  -8.550  0.00  0.00     0.238 C 
HETATM    9  N   UNK N   1      26.593  25.055  -7.281  0.00  0.00     0.102 N 
HETATM   10  C   UNK N   1      26.226  24.280  -6.089  0.00  0.00     0.316 C 
HETATM   11  C   UNK N   1      27.476  23.676  -5.509  0.00  0.00     0.021 A 
HETATM   12  C   UNK N   1      27.930  23.959  -4.197  0.00  0.00     0.044 A 
HETATM   13 Cl   UNK N   1      27.038  25.042  -3.143  0.00  0.00    -0.084 Cl
HETATM   14  C   UNK N   1      29.131  23.371  -3.722  0.00  0.00     0.027 A 
HETATM   15  C   UNK N   1      29.889  22.510  -4.541  0.00  0.00     0.034 A 
HETATM   16  C   UNK N   1      25.361  24.350  -9.370  0.00  0.00     0.045 C 
HETATM   17  H   UNK N   1      30.792  20.965  -6.740  0.00  0.00     0.168 HD
ENDROOT
BRANCH   9  18
HETATM   18  C   UNK N   1      25.756  26.258  -7.434  0.00  0.00     0.301 C 
BRANCH  18  19
HETATM   19  C   UNK N   1      25.344  26.893  -6.136  0.00  0.00     0.005 C 
HETATM   20  C   UNK N   1      26.104  27.820  -5.536  0.00  0.00    -0.090 C 
HETATM   21  C   UNK N   1      25.635  28.440  -4.267  0.00  0.00     0.042 C 
HETATM   22  C   UNK N   1      27.417  28.253  -6.110  0.00  0.00     0.042 C 
ENDBRANCH  18  19
ENDBRANCH   9  18
TORSDOF 2
ENDMDL
MODEL 5
REMARK VINA RESULT:      -6.1     11.259     13.599
REMARK  2 active torsions:
REMARK  status: ('A' for Active; 'I' for Inactive)
REMARK    1  A    between atoms: N_9  and  C_17 
REMARK    2  A    between atoms: C_17  and  C_18 
ROOT
HETATM    1  N   UNK N   1      25.301  23.376  -6.220  0.00  0.00    -0.331 N 
HETATM    2  C   UNK N   1      26.338  23.710  -5.425  0.00  0.00     0.062 A 
HETATM    3  C   UNK N   1      25.874  22.627  -7.198  0.00  0.00     0.179 A 
HETATM    4  S   UNK N   1      25.132  22.073  -8.296  0.00  0.00    -0.040 SA
HETATM    5  N   UNK N   1      27.214  22.490  -7.032  0.00  0.00    -0.319 N 
HETATM    6  C   UNK N   1      27.492  23.176  -5.918  0.00  0.00     0.073 A 
HETATM    7  C   UNK N   1      28.182  21.815  -7.891  0.00  0.00     0.167 C 
HETATM    8  C   UNK N   1      29.049  20.767  -7.168  0.00  0.00     0.238 C 
HETATM    9  N   UNK N   1      29.742  21.257  -5.933  0.00  0.00     0.102 N 
HETATM   10  C   UNK N   1      29.954  22.709  -5.887  0.00  0.00     0.316 C 
HETATM   11  C   UNK N   1      28.727  23.353  -5.302  0.00  0.00     0.021 A 
HETATM   12  C   UNK N   1      28.753  24.122  -4.114  0.00  0.00     0.044 A 
HETATM   13 Cl   UNK N   1      30.250  24.387  -3.238  0.00  0.00    -0.084 Cl
HETATM   14  C   UNK N   1      27.552  24.683  -3.607  0.00  0.00     0.027 A 
HETATM   15  C   UNK N   1      26.323  24.479  -4.267  0.00  0.00     0.034 A 
HETATM   16  C   UNK N   1      30.018  20.262  -8.238  0.00  0.00     0.045 C 
HETATM   17  H   UNK N   1      24.353  23.618  -6.115  0.00  0.00     0.168 HD
ENDROOT
BRANCH   9  18
HETATM   18  C   UNK N   1      30.986  20.509  -5.679  0.00  0.00     0.301 C 
BRANCH  18  19
HETATM   19  C   UNK N   1      31.618  20.797  -4.346  0.00  0.00     0.005 C 
HETATM   20  C   UNK N   1      32.926  20.596  -4.133  0.00  0.00    -0.090 C 
HETATM   21  C   UNK N   1      33.510  20.926  -2.804  0.00  0.00     0.042 C 
HETATM   22  C   UNK N   1      33.822  20.048  -5.200  0.00  0.00     0.042 C 
ENDBRANCH  18  19
ENDBRANCH   9  18
TORSDOF 2
ENDMDL
MODEL 6
REMARK VINA RESULT:      -6.1     12.195     13.409
REMARK  2 active torsions:
REMARK  status: ('A' for Active; 'I' for Inactive)
REMARK    1  A    between atoms: N_9  and  C_17 
REMARK    2  A    between atoms: C_17  and  C_18 
ROOT
HETATM    1  N   UNK N   1      30.895  19.916  -6.508  0.00  0.00    -0.331 N 
HETATM    2  C   UNK N   1      29.748  20.456  -6.969  0.00  0.00     0.062 A 
HETATM    3  C   UNK N   1      31.407  20.887  -5.707  0.00  0.00     0.179 A 
HETATM    4  S   UNK N   1      32.660  20.752  -5.016  0.00  0.00    -0.040 SA
HETATM    5  N   UNK N   1      30.622  21.993  -5.661  0.00  0.00    -0.319 N 
HETATM    6  C   UNK N   1      29.587  21.710  -6.458  0.00  0.00     0.073 A 
HETATM    7  C   UNK N   1      30.854  23.257  -4.967  0.00  0.00     0.167 C 
HETATM    8  C   UNK N   1      29.704  23.691  -4.038  0.00  0.00     0.238 C 
HETATM    9  N   UNK N   1      28.348  23.718  -4.675  0.00  0.00     0.102 N 
HETATM   10  C   UNK N   1      28.361  23.873  -6.135  0.00  0.00     0.316 C 
HETATM   11  C   UNK N   1      28.488  22.509  -6.759  0.00  0.00     0.021 A 
HETATM   12  C   UNK N   1      27.514  21.968  -7.632  0.00  0.00     0.044 A 
HETATM   13 Cl   UNK N   1      26.075  22.877  -8.058  0.00  0.00    -0.084 Cl
HETATM   14  C   UNK N   1      27.688  20.665  -8.168  0.00  0.00     0.027 A 
HETATM   15  C   UNK N   1      28.820  19.892  -7.837  0.00  0.00     0.034 A 
HETATM   16  C   UNK N   1      30.138  25.052  -3.495  0.00  0.00     0.045 C 
HETATM   17  H   UNK N   1      31.271  19.029  -6.704  0.00  0.00     0.168 HD
ENDROOT
BRANCH   9  18
HETATM   18  C   UNK N   1      27.466  24.702  -4.025  0.00  0.00     0.301 C 
BRANCH  18  19
HETATM   19  C   UNK N   1      26.433  25.304  -4.937  0.00  0.00     0.005 C 
HETATM   20  C   UNK N   1      25.836  26.469  -4.648  0.00  0.00    -0.090 C 
HETATM   21  C   UNK N   1      24.843  27.037  -5.600  0.00  0.00     0.042 C 
HETATM   22  C   UNK N   1      26.143  27.220  -3.390  0.00  0.00     0.042 C 
ENDBRANCH  18  19
ENDBRANCH   9  18
TORSDOF 2
ENDMDL
MODEL 7
REMARK VINA RESULT:      -6.0     12.957     15.083
REMARK  2 active torsions:
REMARK  status: ('A' for Active; 'I' for Inactive)
REMARK    1  A    between atoms: N_9  and  C_17 
REMARK    2  A    between atoms: C_17  and  C_18 
ROOT
HETATM    1  N   UNK N   1      36.391  11.837  14.387  0.00  0.00    -0.331 N 
HETATM    2  C   UNK N   1      36.012  12.224  15.622  0.00  0.00     0.062 A 
HETATM    3  C   UNK N   1      36.604  10.501  14.520  0.00  0.00     0.179 A 
HETATM    4  S   UNK N   1      37.057   9.669  13.439  0.00  0.00    -0.040 SA
HETATM    5  N   UNK N   1      36.371  10.060  15.782  0.00  0.00    -0.319 N 
HETATM    6  C   UNK N   1      36.003  11.150  16.462  0.00  0.00     0.073 A 
HETATM    7  C   UNK N   1      36.541   8.718  16.332  0.00  0.00     0.167 C 
HETATM    8  C   UNK N   1      35.289   8.158  17.034  0.00  0.00     0.238 C 
HETATM    9  N   UNK N   1      34.694   9.050  18.080  0.00  0.00     0.102 N 
HETATM   10  C   UNK N   1      35.632  10.015  18.666  0.00  0.00     0.316 C 
HETATM   11  C   UNK N   1      35.648  11.248  17.804  0.00  0.00     0.021 A 
HETATM   12  C   UNK N   1      35.284  12.529  18.285  0.00  0.00     0.044 A 
HETATM   13 Cl   UNK N   1      34.793  12.764  19.954  0.00  0.00    -0.084 Cl
HETATM   14  C   UNK N   1      35.302  13.646  17.410  0.00  0.00     0.027 A 
HETATM   15  C   UNK N   1      35.671  13.499  16.057  0.00  0.00     0.034 A 
HETATM   16  C   UNK N   1      35.729   6.800  17.584  0.00  0.00     0.045 C 
HETATM   17  H   UNK N   1      36.490  12.391  13.579  0.00  0.00     0.168 HD
ENDROOT
BRANCH   9  18
HETATM   18  C   UNK N   1      33.987   8.272  19.113  0.00  0.00     0.301 C 
BRANCH  18  19
HETATM   19  C   UNK N   1      33.711   9.034  20.379  0.00  0.00     0.005 C 
HETATM   20  C   UNK N   1      32.473   9.130  20.884  0.00  0.00    -0.090 C 
HETATM   21  C   UNK N   1      32.257   9.870  22.157  0.00  0.00     0.042 C 
HETATM   22  C   UNK N   1      31.294   8.507  20.202  0.00  0.00     0.042 C 
ENDBRANCH  18  19
ENDBRANCH   9  18
TORSDOF 2
ENDMDL
MODEL 8
REMARK VINA RESULT:      -5.9     12.952     14.468
REMARK  2 active torsions:
REMARK  status: ('A' for Active; 'I' for Inactive)
REMARK    1  A    between atoms: N_9  and  C_17 
REMARK    2  A    between atoms: C_17  and  C_18 
ROOT
HETATM    1  N   UNK N   1      45.591  23.719   3.068  0.00  0.00    -0.331 N 
HETATM    2  C   UNK N   1      44.476  22.962   3.010  0.00  0.00     0.062 A 
HETATM    3  C   UNK N   1      45.527  24.473   1.939  0.00  0.00     0.179 A 
HETATM    4  S   UNK N   1      46.543  25.420   1.571  0.00  0.00    -0.040 SA
HETATM    5  N   UNK N   1      44.421  24.208   1.198  0.00  0.00    -0.319 N 
HETATM    6  C   UNK N   1      43.773  23.258   1.880  0.00  0.00     0.073 A 
HETATM    7  C   UNK N   1      44.028  24.761  -0.094  0.00  0.00     0.167 C 
HETATM    8  C   UNK N   1      42.611  25.366  -0.120  0.00  0.00     0.238 C 
HETATM    9  N   UNK N   1      41.525  24.464   0.384  0.00  0.00     0.102 N 
HETATM   10  C   UNK N   1      41.836  23.031   0.305  0.00  0.00     0.316 C 
HETATM   11  C   UNK N   1      42.573  22.633   1.555  0.00  0.00     0.021 A 
HETATM   12  C   UNK N   1      42.087  21.657   2.458  0.00  0.00     0.044 A 
HETATM   13 Cl   UNK N   1      40.570  20.824   2.163  0.00  0.00    -0.084 Cl
HETATM   14  C   UNK N   1      42.825  21.346   3.630  0.00  0.00     0.027 A 
HETATM   15  C   UNK N   1      44.038  22.004   3.917  0.00  0.00     0.034 A 
HETATM   16  C   UNK N   1      42.402  25.802  -1.570  0.00  0.00     0.045 C 
HETATM   17  H   UNK N   1      46.287  23.724   3.764  0.00  0.00     0.168 HD
ENDROOT
BRANCH   9  18
HETATM   18  C   UNK N   1      40.228  24.781  -0.239  0.00  0.00     0.301 C 
BRANCH  18  19
HETATM   19  C   UNK N   1      39.594  23.629  -0.967  0.00  0.00     0.005 C 
HETATM   20  C   UNK N   1      38.726  23.825  -1.970  0.00  0.00    -0.090 C 
HETATM   21  C   UNK N   1      38.150  22.650  -2.679  0.00  0.00     0.042 C 
HETATM   22  C   UNK N   1      38.320  25.200  -2.401  0.00  0.00     0.042 C 
ENDBRANCH  18  19
ENDBRANCH   9  18
TORSDOF 2
ENDMDL
MODEL 9
REMARK VINA RESULT:      -5.8      3.050      4.744
REMARK  2 active torsions:
REMARK  status: ('A' for Active; 'I' for Inactive)
REMARK    1  A    between atoms: N_9  and  C_17 
REMARK    2  A    between atoms: C_17  and  C_18 
ROOT
HETATM    1  N   UNK N   1      30.624  16.835   9.170  0.00  0.00    -0.331 N 
HETATM    2  C   UNK N   1      31.467  16.579   8.149  0.00  0.00     0.062 A 
HETATM    3  C   UNK N   1      29.557  17.421   8.568  0.00  0.00     0.179 A 
HETATM    4  S   UNK N   1      28.409  17.893   9.293  0.00  0.00    -0.040 SA
HETATM    5  N   UNK N   1      29.714  17.534   7.224  0.00  0.00    -0.319 N 
HETATM    6  C   UNK N   1      30.916  17.003   6.976  0.00  0.00     0.073 A 
HETATM    7  C   UNK N   1      28.826  18.151   6.244  0.00  0.00     0.167 C 
HETATM    8  C   UNK N   1      28.451  17.236   5.062  0.00  0.00     0.238 C 
HETATM    9  N   UNK N   1      29.611  16.607   4.352  0.00  0.00     0.102 N 
HETATM   10  C   UNK N   1      30.879  17.333   4.491  0.00  0.00     0.316 C 
HETATM   11  C   UNK N   1      31.560  16.868   5.750  0.00  0.00     0.021 A 
HETATM   12  C   UNK N   1      32.838  16.257   5.754  0.00  0.00     0.044 A 
HETATM   13 Cl   UNK N   1      33.729  16.010   4.262  0.00  0.00    -0.084 Cl
HETATM   14  C   UNK N   1      33.411  15.823   6.977  0.00  0.00     0.027 A 
HETATM   15  C   UNK N   1      32.722  15.984   8.197  0.00  0.00     0.034 A 
HETATM   16  C   UNK N   1      27.595  18.114   4.149  0.00  0.00     0.045 C 
HETATM   17  H   UNK N   1      30.752  16.641  10.126  0.00  0.00     0.168 HD
ENDROOT
BRANCH   9  18
HETATM   18  C   UNK N   1      29.290  16.322   2.942  0.00  0.00     0.301 C 
BRANCH  18  19
HETATM   19  C   UNK N   1      29.164  14.859   2.621  0.00  0.00     0.005 C 
HETATM   20  C   UNK N   1      28.016  14.338   2.166  0.00  0.00    -0.090 C 
HETATM   21  C   UNK N   1      27.953  12.888   1.833  0.00  0.00     0.042 C 
HETATM   22  C   UNK N   1      26.790  15.177   1.979  0.00  0.00     0.042 C 
ENDBRANCH  18  19
ENDBRANCH   9  18
TORSDOF 2
ENDMDL
