REMARK  2 active torsions:
REMARK  status: ('A' for Active; 'I' for Inactive)
REMARK    1  A    between atoms: N_9  and  C_17 
REMARK    2  A    between atoms: C_17  and  C_18 
ROOT
HETATM    1  N   UNK N   1      -2.065  -3.429   0.493  0.00  0.00    -0.331 N 
HETATM    2  C   UNK N   1      -2.350  -2.120   0.337  0.00  0.00     0.062 A 
HETATM    3  C   UNK N   1      -0.779  -3.531   0.066  0.00  0.00     0.179 A 
HETATM    4  S   UNK N   1      -0.062  -4.776   0.029  0.00  0.00    -0.040 SA
HETATM    5  N   UNK N   1      -0.270  -2.341  -0.343  0.00  0.00    -0.319 N 
HETATM    6  C   UNK N   1      -1.266  -1.466  -0.169  0.00  0.00     0.073 A 
HETATM    7  C   UNK N   1       1.041  -2.051  -0.916  0.00  0.00     0.167 C 
HETATM    8  C   UNK N   1       1.818  -0.936  -0.190  0.00  0.00     0.238 C 
HETATM    9  N   UNK N   1       1.065   0.346  -0.003  0.00  0.00     0.102 N 
HETATM   10  C   UNK N   1      -0.024   0.561  -0.964  0.00  0.00     0.316 C 
HETATM   11  C   UNK N   1      -1.267  -0.100  -0.433  0.00  0.00     0.021 A 
HETATM   12  C   UNK N   1      -2.457   0.613  -0.150  0.00  0.00     0.044 A 
HETATM   13 Cl   UNK N   1      -2.562   2.344  -0.418  0.00  0.00    -0.084 Cl
HETATM   14  C   UNK N   1      -3.586  -0.072   0.370  0.00  0.00     0.027 A 
HETATM   15  C   UNK N   1      -3.540  -1.459   0.619  0.00  0.00     0.034 A 
HETATM   16  C   UNK N   1       3.100  -0.764  -1.005  0.00  0.00     0.045 C 
HETATM   17  H   UNK N   1      -2.650  -4.142   0.836  0.00  0.00     0.168 HD
ENDROOT
BRANCH   9  18
HETATM   18  C   UNK N   1       1.976   1.502   0.065  0.00  0.00     0.301 C 
BRANCH  18  19
HETATM   19  C   UNK N   1       1.284   2.824   0.244  0.00  0.00     0.005 C 
HETATM   20  C   UNK N   1       1.975   3.966   0.370  0.00  0.00    -0.090 C 
HETATM   21  C   UNK N   1       1.241   5.253   0.514  0.00  0.00     0.042 C 
HETATM   22  C   UNK N   1       3.472   3.984   0.367  0.00  0.00     0.042 C 
ENDBRANCH  18  19
ENDBRANCH   9  18
TORSDOF 2
