REMARK  9 active torsions:
REMARK  status: ('A' for Active; 'I' for Inactive)
REMARK    1  A    between atoms: C_1  and  C_2 
REMARK    2  A    between atoms: C_1  and  C_12 
REMARK    3  A    between atoms: C_2  and  Sn_3 
REMARK    4  A    between atoms: Sn_3  and  C_4 
REMARK    5  A    between atoms: Sn_3  and  C_8 
REMARK    6  A    between atoms: C_4  and  C_5 
REMARK    7  A    between atoms: C_5  and  C_6 
REMARK    8  A    between atoms: C_8  and  C_9 
REMARK    9  A    between atoms: C_9  and  C_10 
ROOT
HETATM    1 Sn   UNK N   1      -0.649   0.942   0.000  0.00  0.00     0.000 Sn
ENDROOT
BRANCH   1   2
HETATM    2  C   UNK N   1       1.244  -0.063  -0.000  0.00  0.00     0.000 C 
BRANCH   2   3
HETATM    3  C   UNK N   1       1.059  -1.561   0.000  0.00  0.00    -0.000 C 
BRANCH   3   4
HETATM    4  C   UNK N   1       2.423  -2.219  -0.000  0.00  0.00    -0.005 C 
HETATM    5  C   UNK N   1       2.260  -3.721   0.000  0.00  0.00     0.005 C 
ENDBRANCH   3   4
ENDBRANCH   2   3
ENDBRANCH   1   2
BRANCH   1   6
HETATM    6  C   UNK N   1      -0.468   3.072  -0.000  0.00  0.00     0.000 C 
BRANCH   6   7
HETATM    7  C   UNK N   1       1.018   3.378   0.000  0.00  0.00    -0.000 C 
BRANCH   7   8
HETATM    8  C   UNK N   1       1.262   4.866  -0.000  0.00  0.00    -0.005 C 
HETATM    9  C   UNK N   1       2.758   5.114   0.000  0.00  0.00     0.005 C 
ENDBRANCH   7   8
ENDBRANCH   6   7
ENDBRANCH   1   6
BRANCH   1  10
HETATM   10  C   UNK N   1      -2.510  -0.125  -0.000  0.00  0.00     0.000 C 
BRANCH  10  11
HETATM   11  C   UNK N   1      -2.217  -1.612   0.000  0.00  0.00    -0.000 C 
BRANCH  11  12
HETATM   12  C   UNK N   1      -3.506  -2.401  -0.000  0.00  0.00    -0.005 C 
HETATM   13  C   UNK N   1      -3.180  -3.881   0.000  0.00  0.00     0.005 C 
ENDBRANCH  11  12
ENDBRANCH  10  11
ENDBRANCH   1  10
TORSDOF 9
