MODEL 1
REMARK VINA RESULT:      -6.4      0.000      0.000
REMARK  2 active torsions:
REMARK  status: ('A' for Active; 'I' for Inactive)
REMARK    1  A    between atoms: S_2  and  C_3 
REMARK    2  A    between atoms: N_14  and  C_15 
ROOT
HETATM    1  C   UNK N   1      28.655  24.577  -5.793  0.00  0.00     0.154 A 
HETATM    2  N   UNK N   1      29.017  23.419  -6.408  0.00  0.00    -0.335 N 
ATOM      3  HN  UNK N   1      30.001  23.155  -6.420  1.00  0.00     0.168 HD
HETATM    4  C   UNK N   1      28.116  22.609  -7.003  0.00  0.00     0.049 A 
HETATM    5  C   UNK N   1      28.536  21.424  -7.615  0.00  0.00     0.030 A 
HETATM    6  C   UNK N   1      27.602  20.580  -8.220  0.00  0.00     0.002 A 
HETATM    7  C   UNK N   1      26.246  20.922  -8.218  0.00  0.00     0.001 A 
HETATM    8  C   UNK N   1      25.824  22.108  -7.610  0.00  0.00     0.019 A 
HETATM    9  C   UNK N   1      26.760  22.956  -6.996  0.00  0.00     0.059 A 
HETATM   10  C   UNK N   1      26.373  24.145  -6.367  0.00  0.00     0.267 A 
HETATM   11  O   UNK N   1      25.194  24.468  -6.381  0.00  0.00    -0.267 OA
HETATM   12  N   UNK N   1      27.322  24.960  -5.751  0.00  0.00    -0.252 N 
ENDROOT
BRANCH  12  13
HETATM   13  C   UNK N   1      26.885  26.169  -5.049  0.00  0.00     0.121 A 
HETATM   14  C   UNK N   1      26.560  26.116  -3.669  0.00  0.00     0.146 A 
HETATM   15  F   UNK N   1      26.687  24.966  -2.961  0.00  0.00    -0.204 F 
HETATM   16  C   UNK N   1      26.143  27.264  -2.991  0.00  0.00     0.045 A 
HETATM   17  C   UNK N   1      26.033  28.478  -3.663  0.00  0.00     0.006 A 
HETATM   18  C   UNK N   1      26.333  28.550  -5.021  0.00  0.00     0.045 A 
HETATM   19  C   UNK N   1      26.755  27.413  -5.717  0.00  0.00     0.146 A 
HETATM   20  F   UNK N   1      26.972  27.523  -7.049  0.00  0.00    -0.204 F 
ENDBRANCH  12  13
BRANCH   1  21
HETATM   21  S   UNK N   1      29.959  25.482  -4.940  0.00  0.00    -0.098 SA
HETATM   22  C   UNK N   1      29.970  24.333  -3.529  0.00  0.00     0.099 C 
ENDBRANCH   1  21
TORSDOF 2
ENDMDL
MODEL 2
REMARK VINA RESULT:      -6.2     17.701     18.753
REMARK  2 active torsions:
REMARK  status: ('A' for Active; 'I' for Inactive)
REMARK    1  A    between atoms: S_2  and  C_3 
REMARK    2  A    between atoms: N_14  and  C_15 
ROOT
HETATM    1  C   UNK N   1      23.255  13.789   7.365  0.00  0.00     0.154 A 
HETATM    2  N   UNK N   1      24.158  13.345   8.280  0.00  0.00    -0.335 N 
ATOM      3  HN  UNK N   1      25.149  13.362   8.043  1.00  0.00     0.168 HD
HETATM    4  C   UNK N   1      23.785  12.881   9.492  0.00  0.00     0.049 A 
HETATM    5  C   UNK N   1      24.752  12.445  10.402  0.00  0.00     0.030 A 
HETATM    6  C   UNK N   1      24.366  11.977  11.661  0.00  0.00     0.002 A 
HETATM    7  C   UNK N   1      23.013  11.941  12.010  0.00  0.00     0.001 A 
HETATM    8  C   UNK N   1      22.044  12.375  11.099  0.00  0.00     0.019 A 
HETATM    9  C   UNK N   1      22.429  12.851   9.835  0.00  0.00     0.059 A 
HETATM   10  C   UNK N   1      21.487  13.304   8.903  0.00  0.00     0.267 A 
HETATM   11  O   UNK N   1      20.299  13.253   9.186  0.00  0.00    -0.267 OA
HETATM   12  N   UNK N   1      21.899  13.786   7.661  0.00  0.00    -0.252 N 
ENDROOT
BRANCH  12  13
HETATM   13  C   UNK N   1      20.901  14.309   6.726  0.00  0.00     0.121 A 
HETATM   14  C   UNK N   1      20.579  15.692   6.724  0.00  0.00     0.146 A 
HETATM   15  F   UNK N   1      21.212  16.562   7.548  0.00  0.00    -0.204 F 
HETATM   16  C   UNK N   1      19.629  16.199   5.834  0.00  0.00     0.045 A 
HETATM   17  C   UNK N   1      18.977  15.354   4.941  0.00  0.00     0.006 A 
HETATM   18  C   UNK N   1      19.268  13.991   4.936  0.00  0.00     0.045 A 
HETATM   19  C   UNK N   1      20.218  13.464   5.815  0.00  0.00     0.146 A 
HETATM   20  F   UNK N   1      20.416  12.125   5.814  0.00  0.00    -0.204 F 
ENDBRANCH  12  13
BRANCH   1  21
HETATM   21  S   UNK N   1      23.922  14.489   5.844  0.00  0.00    -0.098 SA
HETATM   22  C   UNK N   1      25.363  15.209   6.691  0.00  0.00     0.099 C 
ENDBRANCH   1  21
TORSDOF 2
ENDMDL
MODEL 3
REMARK VINA RESULT:      -6.2     12.588     14.903
REMARK  2 active torsions:
REMARK  status: ('A' for Active; 'I' for Inactive)
REMARK    1  A    between atoms: S_2  and  C_3 
REMARK    2  A    between atoms: N_14  and  C_15 
ROOT
HETATM    1  C   UNK N   1      29.491  17.773   7.263  0.00  0.00     0.154 A 
HETATM    2  N   UNK N   1      28.621  18.800   7.457  0.00  0.00    -0.335 N 
ATOM      3  HN  UNK N   1      28.474  19.151   8.403  1.00  0.00     0.168 HD
HETATM    4  C   UNK N   1      27.945  19.372   6.437  0.00  0.00     0.049 A 
HETATM    5  C   UNK N   1      27.069  20.432   6.685  0.00  0.00     0.030 A 
HETATM    6  C   UNK N   1      26.379  21.031   5.628  0.00  0.00     0.002 A 
HETATM    7  C   UNK N   1      26.561  20.568   4.321  0.00  0.00     0.001 A 
HETATM    8  C   UNK N   1      27.436  19.505   4.072  0.00  0.00     0.019 A 
HETATM    9  C   UNK N   1      28.134  18.905   5.131  0.00  0.00     0.059 A 
HETATM   10  C   UNK N   1      29.026  17.847   4.917  0.00  0.00     0.267 A 
HETATM   11  O   UNK N   1      29.175  17.416   3.783  0.00  0.00    -0.267 OA
HETATM   12  N   UNK N   1      29.719  17.280   5.986  0.00  0.00    -0.252 N 
ENDROOT
BRANCH  12  13
HETATM   13  C   UNK N   1      30.691  16.215   5.730  0.00  0.00     0.121 A 
HETATM   14  C   UNK N   1      32.069  16.522   5.591  0.00  0.00     0.146 A 
HETATM   15  F   UNK N   1      32.524  17.791   5.736  0.00  0.00    -0.204 F 
HETATM   16  C   UNK N   1      33.002  15.511   5.348  0.00  0.00     0.045 A 
HETATM   17  C   UNK N   1      32.592  14.187   5.229  0.00  0.00     0.006 A 
HETATM   18  C   UNK N   1      31.242  13.865   5.347  0.00  0.00     0.045 A 
HETATM   19  C   UNK N   1      30.293  14.860   5.595  0.00  0.00     0.146 A 
HETATM   20  F   UNK N   1      28.988  14.502   5.636  0.00  0.00    -0.204 F 
ENDBRANCH  12  13
BRANCH   1  21
HETATM   21  S   UNK N   1      30.405  17.204   8.709  0.00  0.00    -0.098 SA
HETATM   22  C   UNK N   1      29.684  18.480   9.789  0.00  0.00     0.099 C 
ENDBRANCH   1  21
TORSDOF 2
ENDMDL
MODEL 4
REMARK VINA RESULT:      -6.2     12.245     13.649
REMARK  2 active torsions:
REMARK  status: ('A' for Active; 'I' for Inactive)
REMARK    1  A    between atoms: S_2  and  C_3 
REMARK    2  A    between atoms: N_14  and  C_15 
ROOT
HETATM    1  C   UNK N   1      22.247  19.283   3.521  0.00  0.00     0.154 A 
HETATM    2  N   UNK N   1      23.317  20.083   3.268  0.00  0.00    -0.335 N 
ATOM      3  HN  UNK N   1      23.156  21.014   2.885  1.00  0.00     0.168 HD
HETATM    4  C   UNK N   1      24.585  19.685   3.505  0.00  0.00     0.049 A 
HETATM    5  C   UNK N   1      25.652  20.549   3.237  0.00  0.00     0.030 A 
HETATM    6  C   UNK N   1      26.963  20.141   3.495  0.00  0.00     0.002 A 
HETATM    7  C   UNK N   1      27.210  18.868   4.018  0.00  0.00     0.001 A 
HETATM    8  C   UNK N   1      26.145  18.003   4.285  0.00  0.00     0.019 A 
HETATM    9  C   UNK N   1      24.825  18.411   4.031  0.00  0.00     0.059 A 
HETATM   10  C   UNK N   1      23.733  17.576   4.297  0.00  0.00     0.267 A 
HETATM   11  O   UNK N   1      23.938  16.451   4.730  0.00  0.00    -0.267 OA
HETATM   12  N   UNK N   1      22.433  18.013   4.051  0.00  0.00    -0.252 N 
ENDROOT
BRANCH  12  13
HETATM   13  C   UNK N   1      21.305  17.144   4.392  0.00  0.00     0.121 A 
HETATM   14  C   UNK N   1      20.693  16.342   3.394  0.00  0.00     0.146 A 
HETATM   15  F   UNK N   1      21.161  16.325   2.121  0.00  0.00    -0.204 F 
HETATM   16  C   UNK N   1      19.617  15.509   3.711  0.00  0.00     0.045 A 
HETATM   17  C   UNK N   1      19.123  15.460   5.011  0.00  0.00     0.006 A 
HETATM   18  C   UNK N   1      19.699  16.251   6.003  0.00  0.00     0.045 A 
HETATM   19  C   UNK N   1      20.779  17.087   5.707  0.00  0.00     0.146 A 
HETATM   20  F   UNK N   1      21.260  17.882   6.693  0.00  0.00    -0.204 F 
ENDBRANCH  12  13
BRANCH   1  21
HETATM   21  S   UNK N   1      20.617  20.007   3.265  0.00  0.00    -0.098 SA
HETATM   22  C   UNK N   1      20.938  20.354   1.507  0.00  0.00     0.099 C 
ENDBRANCH   1  21
TORSDOF 2
ENDMDL
MODEL 5
REMARK VINA RESULT:      -6.1     24.059     26.530
REMARK  2 active torsions:
REMARK  status: ('A' for Active; 'I' for Inactive)
REMARK    1  A    between atoms: S_2  and  C_3 
REMARK    2  A    between atoms: N_14  and  C_15 
ROOT
HETATM    1  C   UNK N   1      35.927   9.959  15.378  0.00  0.00     0.154 A 
HETATM    2  N   UNK N   1      35.992   9.985  16.736  0.00  0.00    -0.335 N 
ATOM      3  HN  UNK N   1      36.288   9.145  17.232  1.00  0.00     0.168 HD
HETATM    4  C   UNK N   1      35.679  11.088  17.450  0.00  0.00     0.049 A 
HETATM    5  C   UNK N   1      35.771  11.069  18.844  0.00  0.00     0.030 A 
HETATM    6  C   UNK N   1      35.459  12.214  19.582  0.00  0.00     0.002 A 
HETATM    7  C   UNK N   1      35.050  13.379  18.925  0.00  0.00     0.001 A 
HETATM    8  C   UNK N   1      34.954  13.399  17.530  0.00  0.00     0.019 A 
HETATM    9  C   UNK N   1      35.273  12.251  16.786  0.00  0.00     0.059 A 
HETATM   10  C   UNK N   1      35.200  12.238  15.388  0.00  0.00     0.267 A 
HETATM   11  O   UNK N   1      34.819  13.242  14.804  0.00  0.00    -0.267 OA
HETATM   12  N   UNK N   1      35.537  11.090  14.674  0.00  0.00    -0.252 N 
ENDROOT
BRANCH  12  13
HETATM   13  C   UNK N   1      35.510  11.119  13.210  0.00  0.00     0.121 A 
HETATM   14  C   UNK N   1      36.636  11.586  12.483  0.00  0.00     0.146 A 
HETATM   15  F   UNK N   1      37.771  11.972  13.117  0.00  0.00    -0.204 F 
HETATM   16  C   UNK N   1      36.618  11.616  11.086  0.00  0.00     0.045 A 
HETATM   17  C   UNK N   1      35.492  11.195  10.386  0.00  0.00     0.006 A 
HETATM   18  C   UNK N   1      34.370  10.747  11.080  0.00  0.00     0.045 A 
HETATM   19  C   UNK N   1      34.369  10.705  12.477  0.00  0.00     0.146 A 
HETATM   20  F   UNK N   1      33.231  10.322  13.103  0.00  0.00    -0.204 F 
ENDBRANCH  12  13
BRANCH   1  21
HETATM   21  S   UNK N   1      36.495   8.452  14.570  0.00  0.00    -0.098 SA
HETATM   22  C   UNK N   1      38.246   8.941  14.669  0.00  0.00     0.099 C 
ENDBRANCH   1  21
TORSDOF 2
ENDMDL
MODEL 6
REMARK VINA RESULT:      -6.1      2.426      3.793
REMARK  2 active torsions:
REMARK  status: ('A' for Active; 'I' for Inactive)
REMARK    1  A    between atoms: S_2  and  C_3 
REMARK    2  A    between atoms: N_14  and  C_15 
ROOT
HETATM    1  C   UNK N   1      28.255  23.036  -6.548  0.00  0.00     0.154 A 
HETATM    2  N   UNK N   1      29.122  21.999  -6.398  0.00  0.00    -0.335 N 
ATOM      3  HN  UNK N   1      29.189  21.302  -7.140  1.00  0.00     0.168 HD
HETATM    4  C   UNK N   1      29.896  21.861  -5.301  0.00  0.00     0.049 A 
HETATM    5  C   UNK N   1      30.778  20.781  -5.198  0.00  0.00     0.030 A 
HETATM    6  C   UNK N   1      31.588  20.646  -4.067  0.00  0.00     0.002 A 
HETATM    7  C   UNK N   1      31.513  21.587  -3.036  0.00  0.00     0.001 A 
HETATM    8  C   UNK N   1      30.629  22.666  -3.136  0.00  0.00     0.019 A 
HETATM    9  C   UNK N   1      29.818  22.808  -4.273  0.00  0.00     0.059 A 
HETATM   10  C   UNK N   1      28.929  23.881  -4.413  0.00  0.00     0.267 A 
HETATM   11  O   UNK N   1      28.836  24.697  -3.507  0.00  0.00    -0.267 OA
HETATM   12  N   UNK N   1      28.147  24.006  -5.561  0.00  0.00    -0.252 N 
ENDROOT
BRANCH  12  13
HETATM   13  C   UNK N   1      27.270  25.169  -5.710  0.00  0.00     0.121 A 
HETATM   14  C   UNK N   1      25.904  25.087  -5.334  0.00  0.00     0.146 A 
HETATM   15  F   UNK N   1      25.391  23.955  -4.791  0.00  0.00    -0.204 F 
HETATM   16  C   UNK N   1      25.060  26.192  -5.472  0.00  0.00     0.045 A 
HETATM   17  C   UNK N   1      25.546  27.389  -5.989  0.00  0.00     0.006 A 
HETATM   18  C   UNK N   1      26.880  27.487  -6.378  0.00  0.00     0.045 A 
HETATM   19  C   UNK N   1      27.741  26.395  -6.244  0.00  0.00     0.146 A 
HETATM   20  F   UNK N   1      29.011  26.524  -6.696  0.00  0.00    -0.204 F 
ENDBRANCH  12  13
BRANCH   1  21
HETATM   21  S   UNK N   1      27.386  23.144  -8.123  0.00  0.00    -0.098 SA
HETATM   22  C   UNK N   1      26.017  22.089  -7.552  0.00  0.00     0.099 C 
ENDBRANCH   1  21
TORSDOF 2
ENDMDL
MODEL 7
REMARK VINA RESULT:      -6.1     14.261     16.105
REMARK  2 active torsions:
REMARK  status: ('A' for Active; 'I' for Inactive)
REMARK    1  A    between atoms: S_2  and  C_3 
REMARK    2  A    between atoms: N_14  and  C_15 
ROOT
HETATM    1  C   UNK N   1      32.603  16.830   7.223  0.00  0.00     0.154 A 
HETATM    2  N   UNK N   1      31.988  17.453   8.264  0.00  0.00    -0.335 N 
ATOM      3  HN  UNK N   1      32.557  17.810   9.031  1.00  0.00     0.168 HD
HETATM    4  C   UNK N   1      30.648  17.614   8.315  0.00  0.00     0.049 A 
HETATM    5  C   UNK N   1      30.063  18.270   9.403  0.00  0.00     0.030 A 
HETATM    6  C   UNK N   1      28.678  18.447   9.450  0.00  0.00     0.002 A 
HETATM    7  C   UNK N   1      27.875  17.965   8.411  0.00  0.00     0.001 A 
HETATM    8  C   UNK N   1      28.459  17.307   7.324  0.00  0.00     0.019 A 
HETATM    9  C   UNK N   1      29.851  17.132   7.271  0.00  0.00     0.059 A 
HETATM   10  C   UNK N   1      30.470  16.487   6.193  0.00  0.00     0.267 A 
HETATM   11  O   UNK N   1      29.777  16.039   5.292  0.00  0.00    -0.267 OA
HETATM   12  N   UNK N   1      31.857  16.342   6.160  0.00  0.00    -0.252 N 
ENDROOT
BRANCH  12  13
HETATM   13  C   UNK N   1      32.486  15.718   4.994  0.00  0.00     0.121 A 
HETATM   14  C   UNK N   1      32.878  16.509   3.883  0.00  0.00     0.146 A 
HETATM   15  F   UNK N   1      32.722  17.856   3.891  0.00  0.00    -0.204 F 
HETATM   16  C   UNK N   1      33.480  15.922   2.768  0.00  0.00     0.045 A 
HETATM   17  C   UNK N   1      33.697  14.548   2.726  0.00  0.00     0.006 A 
HETATM   18  C   UNK N   1      33.307  13.750   3.799  0.00  0.00     0.045 A 
HETATM   19  C   UNK N   1      32.707  14.318   4.926  0.00  0.00     0.146 A 
HETATM   20  F   UNK N   1      32.289  13.491   5.913  0.00  0.00    -0.204 F 
ENDBRANCH  12  13
BRANCH   1  21
HETATM   21  S   UNK N   1      34.405  16.805   7.246  0.00  0.00    -0.098 SA
HETATM   22  C   UNK N   1      34.513  18.356   8.192  0.00  0.00     0.099 C 
ENDBRANCH   1  21
TORSDOF 2
ENDMDL
MODEL 8
REMARK VINA RESULT:      -6.1     14.258     16.014
REMARK  2 active torsions:
REMARK  status: ('A' for Active; 'I' for Inactive)
REMARK    1  A    between atoms: S_2  and  C_3 
REMARK    2  A    between atoms: N_14  and  C_15 
ROOT
HETATM    1  C   UNK N   1      32.607  16.828   7.205  0.00  0.00     0.154 A 
HETATM    2  N   UNK N   1      31.993  17.445   8.249  0.00  0.00    -0.335 N 
ATOM      3  HN  UNK N   1      32.562  17.796   9.019  1.00  0.00     0.168 HD
HETATM    4  C   UNK N   1      30.653  17.607   8.301  0.00  0.00     0.049 A 
HETATM    5  C   UNK N   1      30.068  18.256   9.393  0.00  0.00     0.030 A 
HETATM    6  C   UNK N   1      28.683  18.435   9.440  0.00  0.00     0.002 A 
HETATM    7  C   UNK N   1      27.881  17.960   8.398  0.00  0.00     0.001 A 
HETATM    8  C   UNK N   1      28.464  17.308   7.307  0.00  0.00     0.019 A 
HETATM    9  C   UNK N   1      29.856  17.132   7.254  0.00  0.00     0.059 A 
HETATM   10  C   UNK N   1      30.475  16.494   6.172  0.00  0.00     0.267 A 
HETATM   11  O   UNK N   1      29.782  16.053   5.267  0.00  0.00    -0.267 OA
HETATM   12  N   UNK N   1      31.861  16.347   6.138  0.00  0.00    -0.252 N 
ENDROOT
BRANCH  12  13
HETATM   13  C   UNK N   1      32.490  15.730   4.968  0.00  0.00     0.121 A 
HETATM   14  C   UNK N   1      32.731  14.332   4.940  0.00  0.00     0.146 A 
HETATM   15  F   UNK N   1      32.348  13.532   5.966  0.00  0.00    -0.204 F 
HETATM   16  C   UNK N   1      33.330  13.735   3.828  0.00  0.00     0.045 A 
HETATM   17  C   UNK N   1      33.707  14.506   2.732  0.00  0.00     0.006 A 
HETATM   18  C   UNK N   1      33.493  15.883   2.745  0.00  0.00     0.045 A 
HETATM   19  C   UNK N   1      32.892  16.499   3.846  0.00  0.00     0.146 A 
HETATM   20  F   UNK N   1      32.767  17.846   3.834  0.00  0.00    -0.204 F 
ENDBRANCH  12  13
BRANCH   1  21
HETATM   21  S   UNK N   1      34.409  16.801   7.228  0.00  0.00    -0.098 SA
HETATM   22  C   UNK N   1      34.518  18.345   8.185  0.00  0.00     0.099 C 
ENDBRANCH   1  21
TORSDOF 2
ENDMDL
MODEL 9
REMARK VINA RESULT:      -6.1     24.231     26.660
REMARK  2 active torsions:
REMARK  status: ('A' for Active; 'I' for Inactive)
REMARK    1  A    between atoms: S_2  and  C_3 
REMARK    2  A    between atoms: N_14  and  C_15 
ROOT
HETATM    1  C   UNK N   1      35.490  12.526  14.517  0.00  0.00     0.154 A 
HETATM    2  N   UNK N   1      35.383  13.340  15.600  0.00  0.00    -0.335 N 
ATOM      3  HN  UNK N   1      35.330  14.348  15.456  1.00  0.00     0.168 HD
HETATM    4  C   UNK N   1      35.346  12.859  16.861  0.00  0.00     0.049 A 
HETATM    5  C   UNK N   1      35.226  13.737  17.942  0.00  0.00     0.030 A 
HETATM    6  C   UNK N   1      35.175  13.237  19.246  0.00  0.00     0.002 A 
HETATM    7  C   UNK N   1      35.249  11.859  19.471  0.00  0.00     0.001 A 
HETATM    8  C   UNK N   1      35.372  10.980  18.390  0.00  0.00     0.019 A 
HETATM    9  C   UNK N   1      35.418  11.478  17.079  0.00  0.00     0.059 A 
HETATM   10  C   UNK N   1      35.529  10.627  15.972  0.00  0.00     0.267 A 
HETATM   11  O   UNK N   1      35.620   9.422  16.157  0.00  0.00    -0.267 OA
HETATM   12  N   UNK N   1      35.556  11.149  14.680  0.00  0.00    -0.252 N 
ENDROOT
BRANCH  12  13
HETATM   13  C   UNK N   1      35.613  10.235  13.536  0.00  0.00     0.121 A 
HETATM   14  C   UNK N   1      36.865   9.781  13.046  0.00  0.00     0.146 A 
HETATM   15  F   UNK N   1      38.027  10.141  13.645  0.00  0.00    -0.204 F 
HETATM   16  C   UNK N   1      36.928   8.908  11.956  0.00  0.00     0.045 A 
HETATM   17  C   UNK N   1      35.762   8.478  11.330  0.00  0.00     0.006 A 
HETATM   18  C   UNK N   1      34.523   8.924  11.786  0.00  0.00     0.045 A 
HETATM   19  C   UNK N   1      34.438   9.793  12.877  0.00  0.00     0.146 A 
HETATM   20  F   UNK N   1      33.215  10.246  13.239  0.00  0.00    -0.204 F 
ENDBRANCH  12  13
BRANCH   1  21
HETATM   21  S   UNK N   1      35.402  13.315  12.899  0.00  0.00    -0.098 SA
HETATM   22  C   UNK N   1      36.327  14.781  13.454  0.00  0.00     0.099 C 
ENDBRANCH   1  21
TORSDOF 2
ENDMDL
