MODEL 1
REMARK VINA RESULT:      -5.5      0.000      0.000
REMARK  10 active torsions:
REMARK  status: ('A' for Active; 'I' for Inactive)
REMARK    1  A    between atoms: S_1  and  C_4 
REMARK    2  A    between atoms: N_11  and  S_1 
REMARK    3  A    between atoms: C_12  and  N_11 
REMARK    4  A    between atoms: C_12  and  C_13 
REMARK    5  A    between atoms: C_12  and  C_15 
REMARK    6  A    between atoms: C_13  and  C_20 
REMARK    7  A    between atoms: C_15  and  C_16 
REMARK    8  A    between atoms: C_16  and  C_17 
REMARK    9  A    between atoms: C_17  and  C_18 
REMARK   10  A    between atoms: C_18  and  N_19 
ROOT
HETATM    1  N   UNK N   1      37.256  12.648  13.280  0.00  0.00    -0.303 N 
HETATM    2  H   UNK N   1      38.200  12.348  13.525  0.00  0.00     0.173 HD
ENDROOT
BRANCH   1   3
HETATM    3  C   UNK N   1      36.665  12.475  11.948  0.00  0.00     0.163 C 
BRANCH   3   4
HETATM    4  C   UNK N   1      36.442  11.002  11.661  0.00  0.00     0.163 C 
HETATM    5  O   UNK N   1      36.732  10.561  10.562  0.00  0.00    -0.294 OA
BRANCH   4   6
HETATM    6  C   UNK N   1      35.878  10.061  12.682  0.00  0.00     0.195 C 
HETATM    7 Cl   UNK N   1      34.167  10.430  13.002  0.00  0.00    -0.122 Cl
ENDBRANCH   4   6
ENDBRANCH   3   4
BRANCH   3   8
HETATM    8  C   UNK N   1      37.511  13.215  10.902  0.00  0.00     0.034 C 
BRANCH   8   9
HETATM    9  C   UNK N   1      36.762  14.213  10.027  0.00  0.00     0.004 C 
BRANCH   9  10
HETATM   10  C   UNK N   1      36.212  15.326  10.912  0.00  0.00     0.019 C 
BRANCH  10  11
HETATM   11  C   UNK N   1      34.834  15.764  10.432  0.00  0.00     0.111 C 
BRANCH  11  12
HETATM   12  N   UNK N   1      33.807  14.984  11.096  0.00  0.00    -0.430 N 
HETATM   13  H   UNK N   1      32.801  14.952  10.936  0.00  0.00     0.149 HD
HETATM   14  H   UNK N   1      34.145  14.370  11.838  0.00  0.00     0.149 HD
ENDBRANCH  11  12
ENDBRANCH  10  11
ENDBRANCH   9  10
ENDBRANCH   8   9
ENDBRANCH   3   8
ENDBRANCH   1   3
BRANCH   1  15
HETATM   15  S   UNK N   1      36.140  13.441  14.426  0.00  0.00     0.259 S 
HETATM   16  O   UNK N   1      36.719  14.856  14.574  0.00  0.00    -0.201 OA
HETATM   17  O   UNK N   1      34.848  13.742  13.647  0.00  0.00    -0.201 OA
BRANCH  15  18
HETATM   18  C   UNK N   1      35.837  12.733  16.047  0.00  0.00     0.079 A 
HETATM   19  C   UNK N   1      36.074  11.378  16.287  0.00  0.00     0.026 A 
HETATM   20  C   UNK N   1      35.835  10.834  17.554  0.00  0.00     0.008 A 
HETATM   21  C   UNK N   1      35.365  11.651  18.586  0.00  0.00    -0.062 A 
HETATM   22  C   UNK N   1      35.135  13.010  18.352  0.00  0.00     0.008 A 
HETATM   23  C   UNK N   1      35.112  11.074  19.934  0.00  0.00     0.048 C 
HETATM   24  C   UNK N   1      35.370  13.551  17.084  0.00  0.00     0.026 A 
ENDBRANCH  15  18
ENDBRANCH   1  15
TORSDOF 10
ENDMDL
MODEL 2
REMARK VINA RESULT:      -5.5     10.097     12.334
REMARK  10 active torsions:
REMARK  status: ('A' for Active; 'I' for Inactive)
REMARK    1  A    between atoms: S_1  and  C_4 
REMARK    2  A    between atoms: N_11  and  S_1 
REMARK    3  A    between atoms: C_12  and  N_11 
REMARK    4  A    between atoms: C_12  and  C_13 
REMARK    5  A    between atoms: C_12  and  C_15 
REMARK    6  A    between atoms: C_13  and  C_20 
REMARK    7  A    between atoms: C_15  and  C_16 
REMARK    8  A    between atoms: C_16  and  C_17 
REMARK    9  A    between atoms: C_17  and  C_18 
REMARK   10  A    between atoms: C_18  and  N_19 
ROOT
HETATM    1  N   UNK N   1      27.253  17.605   6.803  0.00  0.00    -0.303 N 
HETATM    2  H   UNK N   1      26.247  17.534   6.959  0.00  0.00     0.173 HD
ENDROOT
BRANCH   1   3
HETATM    3  C   UNK N   1      28.120  18.568   7.491  0.00  0.00     0.163 C 
BRANCH   3   4
HETATM    4  C   UNK N   1      28.396  18.106   8.909  0.00  0.00     0.163 C 
HETATM    5  O   UNK N   1      27.608  17.349   9.450  0.00  0.00    -0.294 OA
BRANCH   4   6
HETATM    6  C   UNK N   1      29.607  18.542   9.676  0.00  0.00     0.195 C 
HETATM    7 Cl   UNK N   1      31.086  18.277   8.723  0.00  0.00    -0.122 Cl
ENDBRANCH   4   6
ENDBRANCH   3   4
BRANCH   3   8
HETATM    8  C   UNK N   1      27.525  19.978   7.376  0.00  0.00     0.034 C 
BRANCH   8   9
HETATM    9  C   UNK N   1      27.702  20.667   6.028  0.00  0.00     0.004 C 
BRANCH   9  10
HETATM   10  C   UNK N   1      26.358  20.693   5.310  0.00  0.00     0.019 C 
BRANCH  10  11
HETATM   11  C   UNK N   1      26.512  20.244   3.862  0.00  0.00     0.111 C 
BRANCH  11  12
HETATM   12  N   UNK N   1      27.850  19.725   3.645  0.00  0.00    -0.430 N 
HETATM   13  H   UNK N   1      28.387  19.636   2.783  0.00  0.00     0.149 HD
HETATM   14  H   UNK N   1      28.327  19.401   4.486  0.00  0.00     0.149 HD
ENDBRANCH  11  12
ENDBRANCH  10  11
ENDBRANCH   9  10
ENDBRANCH   8   9
ENDBRANCH   3   8
ENDBRANCH   1   3
BRANCH   1  15
HETATM   15  S   UNK N   1      28.153  16.567   5.663  0.00  0.00     0.259 S 
HETATM   16  O   UNK N   1      27.578  15.166   5.918  0.00  0.00    -0.201 OA
HETATM   17  O   UNK N   1      27.589  16.856   4.262  0.00  0.00    -0.201 OA
BRANCH  15  18
HETATM   18  C   UNK N   1      29.947  16.506   5.701  0.00  0.00     0.079 A 
HETATM   19  C   UNK N   1      30.610  15.550   6.475  0.00  0.00     0.026 A 
HETATM   20  C   UNK N   1      32.008  15.510   6.499  0.00  0.00     0.008 A 
HETATM   21  C   UNK N   1      32.746  16.424   5.741  0.00  0.00    -0.062 A 
HETATM   22  C   UNK N   1      32.086  17.376   4.959  0.00  0.00     0.008 A 
HETATM   23  C   UNK N   1      34.232  16.381   5.765  0.00  0.00     0.048 C 
HETATM   24  C   UNK N   1      30.688  17.418   4.939  0.00  0.00     0.026 A 
ENDBRANCH  15  18
ENDBRANCH   1  15
TORSDOF 10
ENDMDL
MODEL 3
REMARK VINA RESULT:      -5.4     21.037     22.934
REMARK  10 active torsions:
REMARK  status: ('A' for Active; 'I' for Inactive)
REMARK    1  A    between atoms: S_1  and  C_4 
REMARK    2  A    between atoms: N_11  and  S_1 
REMARK    3  A    between atoms: C_12  and  N_11 
REMARK    4  A    between atoms: C_12  and  C_13 
REMARK    5  A    between atoms: C_12  and  C_15 
REMARK    6  A    between atoms: C_13  and  C_20 
REMARK    7  A    between atoms: C_15  and  C_16 
REMARK    8  A    between atoms: C_16  and  C_17 
REMARK    9  A    between atoms: C_17  and  C_18 
REMARK   10  A    between atoms: C_18  and  N_19 
ROOT
HETATM    1  N   UNK N   1      28.492  23.594  -3.162  0.00  0.00    -0.303 N 
HETATM    2  H   UNK N   1      27.759  23.004  -2.767  0.00  0.00     0.173 HD
ENDROOT
BRANCH   1   3
HETATM    3  C   UNK N   1      28.234  24.724  -4.062  0.00  0.00     0.163 C 
BRANCH   3   4
HETATM    4  C   UNK N   1      26.800  25.198  -3.910  0.00  0.00     0.163 C 
HETATM    5  O   UNK N   1      25.941  24.394  -3.593  0.00  0.00    -0.294 OA
BRANCH   4   6
HETATM    6  C   UNK N   1      26.397  26.623  -4.135  0.00  0.00     0.195 C 
HETATM    7 Cl   UNK N   1      25.139  26.733  -5.388  0.00  0.00    -0.122 Cl
ENDBRANCH   4   6
ENDBRANCH   3   4
BRANCH   3   8
HETATM    8  C   UNK N   1      28.643  24.353  -5.494  0.00  0.00     0.034 C 
BRANCH   8   9
HETATM    9  C   UNK N   1      28.169  22.991  -5.988  0.00  0.00     0.004 C 
BRANCH   9  10
HETATM   10  C   UNK N   1      27.536  23.162  -7.365  0.00  0.00     0.019 C 
BRANCH  10  11
HETATM   11  C   UNK N   1      26.140  23.762  -7.244  0.00  0.00     0.111 C 
BRANCH  11  12
HETATM   12  N   UNK N   1      25.344  22.979  -6.318  0.00  0.00    -0.430 N 
HETATM   13  H   UNK N   1      24.883  22.079  -6.448  0.00  0.00     0.149 HD
HETATM   14  H   UNK N   1      25.229  23.393  -5.393  0.00  0.00     0.149 HD
ENDBRANCH  11  12
ENDBRANCH  10  11
ENDBRANCH   9  10
ENDBRANCH   8   9
ENDBRANCH   3   8
ENDBRANCH   1   3
BRANCH   1  15
HETATM   15  S   UNK N   1      30.232  23.365  -2.833  0.00  0.00     0.259 S 
HETATM   16  O   UNK N   1      30.801  24.790  -2.887  0.00  0.00    -0.201 OA
HETATM   17  O   UNK N   1      30.362  23.062  -1.332  0.00  0.00    -0.201 OA
BRANCH  15  18
HETATM   18  C   UNK N   1      31.222  22.275  -3.860  0.00  0.00     0.079 A 
HETATM   19  C   UNK N   1      32.420  22.722  -4.423  0.00  0.00     0.026 A 
HETATM   20  C   UNK N   1      33.185  21.865  -5.222  0.00  0.00     0.008 A 
HETATM   21  C   UNK N   1      32.755  20.555  -5.452  0.00  0.00    -0.062 A 
HETATM   22  C   UNK N   1      31.561  20.102  -4.883  0.00  0.00     0.008 A 
HETATM   23  C   UNK N   1      33.568  19.644  -6.301  0.00  0.00     0.048 C 
HETATM   24  C   UNK N   1      30.795  20.961  -4.089  0.00  0.00     0.026 A 
ENDBRANCH  15  18
ENDBRANCH   1  15
TORSDOF 10
ENDMDL
MODEL 4
REMARK VINA RESULT:      -5.4     23.987     25.630
REMARK  10 active torsions:
REMARK  status: ('A' for Active; 'I' for Inactive)
REMARK    1  A    between atoms: S_1  and  C_4 
REMARK    2  A    between atoms: N_11  and  S_1 
REMARK    3  A    between atoms: C_12  and  N_11 
REMARK    4  A    between atoms: C_12  and  C_13 
REMARK    5  A    between atoms: C_12  and  C_15 
REMARK    6  A    between atoms: C_13  and  C_20 
REMARK    7  A    between atoms: C_15  and  C_16 
REMARK    8  A    between atoms: C_16  and  C_17 
REMARK    9  A    between atoms: C_17  and  C_18 
REMARK   10  A    between atoms: C_18  and  N_19 
ROOT
HETATM    1  N   UNK N   1      26.129  26.139  -3.435  0.00  0.00    -0.303 N 
HETATM    2  H   UNK N   1      25.437  26.157  -2.686  0.00  0.00     0.173 HD
ENDROOT
BRANCH   1   3
HETATM    3  C   UNK N   1      26.349  27.249  -4.370  0.00  0.00     0.163 C 
BRANCH   3   4
HETATM    4  C   UNK N   1      26.639  28.528  -3.607  0.00  0.00     0.163 C 
HETATM    5  O   UNK N   1      26.897  28.463  -2.418  0.00  0.00    -0.294 OA
BRANCH   4   6
HETATM    6  C   UNK N   1      26.623  29.875  -4.262  0.00  0.00     0.195 C 
HETATM    7 Cl   UNK N   1      27.938  30.013  -5.453  0.00  0.00    -0.122 Cl
ENDBRANCH   4   6
ENDBRANCH   3   4
BRANCH   3   8
HETATM    8  C   UNK N   1      25.176  27.338  -5.356  0.00  0.00     0.034 C 
BRANCH   8   9
HETATM    9  C   UNK N   1      25.452  26.826  -6.766  0.00  0.00     0.004 C 
BRANCH   9  10
HETATM   10  C   UNK N   1      26.947  26.942  -7.045  0.00  0.00     0.019 C 
BRANCH  10  11
HETATM   11  C   UNK N   1      27.314  26.203  -8.325  0.00  0.00     0.111 C 
BRANCH  11  12
HETATM   12  N   UNK N   1      26.117  25.672  -8.951  0.00  0.00    -0.430 N 
HETATM   13  H   UNK N   1      25.338  25.156  -8.543  0.00  0.00     0.149 HD
HETATM   14  H   UNK N   1      26.044  25.843  -9.953  0.00  0.00     0.149 HD
ENDBRANCH  11  12
ENDBRANCH  10  11
ENDBRANCH   9  10
ENDBRANCH   8   9
ENDBRANCH   3   8
ENDBRANCH   1   3
BRANCH   1  15
HETATM   15  S   UNK N   1      27.212  24.755  -3.750  0.00  0.00     0.259 S 
HETATM   16  O   UNK N   1      28.617  25.367  -3.663  0.00  0.00    -0.201 OA
HETATM   17  O   UNK N   1      27.200  23.887  -2.481  0.00  0.00    -0.201 OA
BRANCH  15  18
HETATM   18  C   UNK N   1      27.056  23.797  -5.261  0.00  0.00     0.079 A 
HETATM   19  C   UNK N   1      28.192  23.386  -5.962  0.00  0.00     0.026 A 
HETATM   20  C   UNK N   1      28.061  22.640  -7.138  0.00  0.00     0.008 A 
HETATM   21  C   UNK N   1      26.791  22.297  -7.610  0.00  0.00    -0.062 A 
HETATM   22  C   UNK N   1      25.652  22.700  -6.906  0.00  0.00     0.008 A 
HETATM   23  C   UNK N   1      26.651  21.503  -8.860  0.00  0.00     0.048 C 
HETATM   24  C   UNK N   1      25.784  23.449  -5.733  0.00  0.00     0.026 A 
ENDBRANCH  15  18
ENDBRANCH   1  15
TORSDOF 10
ENDMDL
MODEL 5
REMARK VINA RESULT:      -5.3      5.795      8.925
REMARK  10 active torsions:
REMARK  status: ('A' for Active; 'I' for Inactive)
REMARK    1  A    between atoms: S_1  and  C_4 
REMARK    2  A    between atoms: N_11  and  S_1 
REMARK    3  A    between atoms: C_12  and  N_11 
REMARK    4  A    between atoms: C_12  and  C_13 
REMARK    5  A    between atoms: C_12  and  C_15 
REMARK    6  A    between atoms: C_13  and  C_20 
REMARK    7  A    between atoms: C_15  and  C_16 
REMARK    8  A    between atoms: C_16  and  C_17 
REMARK    9  A    between atoms: C_17  and  C_18 
REMARK   10  A    between atoms: C_18  and  N_19 
ROOT
HETATM    1  N   UNK N   1      34.792  16.121   8.029  0.00  0.00    -0.303 N 
HETATM    2  H   UNK N   1      35.511  15.591   7.536  0.00  0.00     0.173 HD
ENDROOT
BRANCH   1   3
HETATM    3  C   UNK N   1      34.412  15.877   9.426  0.00  0.00     0.163 C 
BRANCH   3   4
HETATM    4  C   UNK N   1      35.603  16.102  10.339  0.00  0.00     0.163 C 
HETATM    5  O   UNK N   1      35.904  17.242  10.651  0.00  0.00    -0.294 OA
BRANCH   4   6
HETATM    6  C   UNK N   1      36.426  14.973  10.879  0.00  0.00     0.195 C 
HETATM    7 Cl   UNK N   1      37.367  14.202   9.581  0.00  0.00    -0.122 Cl
ENDBRANCH   4   6
ENDBRANCH   3   4
BRANCH   3   8
HETATM    8  C   UNK N   1      33.754  14.497   9.553  0.00  0.00     0.034 C 
BRANCH   8   9
HETATM    9  C   UNK N   1      33.054  13.977   8.302  0.00  0.00     0.004 C 
BRANCH   9  10
HETATM   10  C   UNK N   1      33.549  12.563   8.016  0.00  0.00     0.019 C 
BRANCH  10  11
HETATM   11  C   UNK N   1      33.686  11.769   9.309  0.00  0.00     0.111 C 
BRANCH  11  12
HETATM   12  N   UNK N   1      32.438  11.091   9.607  0.00  0.00    -0.430 N 
HETATM   13  H   UNK N   1      32.261  10.265  10.177  0.00  0.00     0.149 HD
HETATM   14  H   UNK N   1      31.610  11.506   9.181  0.00  0.00     0.149 HD
ENDBRANCH  11  12
ENDBRANCH  10  11
ENDBRANCH   9  10
ENDBRANCH   8   9
ENDBRANCH   3   8
ENDBRANCH   1   3
BRANCH   1  15
HETATM   15  S   UNK N   1      33.857  17.449   7.288  0.00  0.00     0.259 S 
HETATM   16  O   UNK N   1      34.494  18.714   7.880  0.00  0.00    -0.201 OA
HETATM   17  O   UNK N   1      34.321  17.554   5.826  0.00  0.00    -0.201 OA
BRANCH  15  18
HETATM   18  C   UNK N   1      32.072  17.523   7.467  0.00  0.00     0.079 A 
HETATM   19  C   UNK N   1      31.495  18.078   8.612  0.00  0.00     0.026 A 
HETATM   20  C   UNK N   1      30.103  18.131   8.744  0.00  0.00     0.008 A 
HETATM   21  C   UNK N   1      29.286  17.636   7.723  0.00  0.00    -0.062 A 
HETATM   22  C   UNK N   1      29.860  17.089   6.573  0.00  0.00     0.008 A 
HETATM   23  C   UNK N   1      27.806  17.694   7.862  0.00  0.00     0.048 C 
HETATM   24  C   UNK N   1      31.251  17.031   6.445  0.00  0.00     0.026 A 
ENDBRANCH  15  18
ENDBRANCH   1  15
TORSDOF 10
ENDMDL
MODEL 6
REMARK VINA RESULT:      -5.3      8.177     12.102
REMARK  10 active torsions:
REMARK  status: ('A' for Active; 'I' for Inactive)
REMARK    1  A    between atoms: S_1  and  C_4 
REMARK    2  A    between atoms: N_11  and  S_1 
REMARK    3  A    between atoms: C_12  and  N_11 
REMARK    4  A    between atoms: C_12  and  C_13 
REMARK    5  A    between atoms: C_12  and  C_15 
REMARK    6  A    between atoms: C_13  and  C_20 
REMARK    7  A    between atoms: C_15  and  C_16 
REMARK    8  A    between atoms: C_16  and  C_17 
REMARK    9  A    between atoms: C_17  and  C_18 
REMARK   10  A    between atoms: C_18  and  N_19 
ROOT
HETATM    1  N   UNK N   1      30.091  16.686   7.751  0.00  0.00    -0.303 N 
HETATM    2  H   UNK N   1      30.058  15.763   8.184  0.00  0.00     0.173 HD
ENDROOT
BRANCH   1   3
HETATM    3  C   UNK N   1      31.186  17.144   6.888  0.00  0.00     0.163 C 
BRANCH   3   4
HETATM    4  C   UNK N   1      31.123  16.442   5.544  0.00  0.00     0.163 C 
HETATM    5  O   UNK N   1      30.962  15.234   5.513  0.00  0.00    -0.294 OA
BRANCH   4   6
HETATM    6  C   UNK N   1      31.250  17.179   4.246  0.00  0.00     0.195 C 
HETATM    7 Cl   UNK N   1      32.961  17.407   3.814  0.00  0.00    -0.122 Cl
ENDBRANCH   4   6
ENDBRANCH   3   4
BRANCH   3   8
HETATM    8  C   UNK N   1      32.524  17.005   7.627  0.00  0.00     0.034 C 
BRANCH   8   9
HETATM    9  C   UNK N   1      33.199  18.312   8.031  0.00  0.00     0.004 C 
BRANCH   9  10
HETATM   10  C   UNK N   1      34.637  18.015   8.438  0.00  0.00     0.019 C 
BRANCH  10  11
HETATM   11  C   UNK N   1      34.707  16.756   9.293  0.00  0.00     0.111 C 
BRANCH  11  12
HETATM   12  N   UNK N   1      35.036  17.105  10.662  0.00  0.00    -0.430 N 
HETATM   13  H   UNK N   1      35.922  17.038  11.161  0.00  0.00     0.149 HD
HETATM   14  H   UNK N   1      34.260  17.477  11.210  0.00  0.00     0.149 HD
ENDBRANCH  11  12
ENDBRANCH  10  11
ENDBRANCH   9  10
ENDBRANCH   8   9
ENDBRANCH   3   8
ENDBRANCH   1   3
BRANCH   1  15
HETATM   15  S   UNK N   1      28.820  17.923   7.958  0.00  0.00     0.259 S 
HETATM   16  O   UNK N   1      27.748  17.204   8.791  0.00  0.00    -0.201 OA
HETATM   17  O   UNK N   1      29.351  18.934   8.987  0.00  0.00    -0.201 OA
BRANCH  15  18
HETATM   18  C   UNK N   1      28.061  18.703   6.531  0.00  0.00     0.079 A 
HETATM   19  C   UNK N   1      27.788  17.964   5.377  0.00  0.00     0.026 A 
HETATM   20  C   UNK N   1      27.196  18.581   4.269  0.00  0.00     0.008 A 
HETATM   21  C   UNK N   1      26.868  19.939   4.318  0.00  0.00    -0.062 A 
HETATM   22  C   UNK N   1      27.132  20.679   5.475  0.00  0.00     0.008 A 
HETATM   23  C   UNK N   1      26.238  20.594   3.142  0.00  0.00     0.048 C 
HETATM   24  C   UNK N   1      27.728  20.063   6.579  0.00  0.00     0.026 A 
ENDBRANCH  15  18
ENDBRANCH   1  15
TORSDOF 10
ENDMDL
MODEL 7
REMARK VINA RESULT:      -5.3     21.442     23.975
REMARK  10 active torsions:
REMARK  status: ('A' for Active; 'I' for Inactive)
REMARK    1  A    between atoms: S_1  and  C_4 
REMARK    2  A    between atoms: N_11  and  S_1 
REMARK    3  A    between atoms: C_12  and  N_11 
REMARK    4  A    between atoms: C_12  and  C_13 
REMARK    5  A    between atoms: C_12  and  C_15 
REMARK    6  A    between atoms: C_13  and  C_20 
REMARK    7  A    between atoms: C_15  and  C_16 
REMARK    8  A    between atoms: C_16  and  C_17 
REMARK    9  A    between atoms: C_17  and  C_18 
REMARK   10  A    between atoms: C_18  and  N_19 
ROOT
HETATM    1  N   UNK N   1      27.471  25.130  -5.825  0.00  0.00    -0.303 N 
HETATM    2  H   UNK N   1      27.970  25.617  -6.568  0.00  0.00     0.173 HD
ENDROOT
BRANCH   1   3
HETATM    3  C   UNK N   1      26.036  24.825  -5.868  0.00  0.00     0.163 C 
BRANCH   3   4
HETATM    4  C   UNK N   1      25.732  23.902  -7.033  0.00  0.00     0.163 C 
HETATM    5  O   UNK N   1      25.192  24.358  -8.026  0.00  0.00    -0.294 OA
BRANCH   4   6
HETATM    6  C   UNK N   1      26.072  22.443  -7.012  0.00  0.00     0.195 C 
HETATM    7 Cl   UNK N   1      24.602  21.450  -7.154  0.00  0.00    -0.122 Cl
ENDBRANCH   4   6
ENDBRANCH   3   4
BRANCH   3   8
HETATM    8  C   UNK N   1      25.227  26.129  -5.850  0.00  0.00     0.034 C 
BRANCH   8   9
HETATM    9  C   UNK N   1      25.969  27.379  -6.311  0.00  0.00     0.004 C 
BRANCH   9  10
HETATM   10  C   UNK N   1      26.371  28.191  -5.085  0.00  0.00     0.019 C 
BRANCH  10  11
HETATM   11  C   UNK N   1      25.504  27.822  -3.888  0.00  0.00     0.111 C 
BRANCH  11  12
HETATM   12  N   UNK N   1      26.345  27.432  -2.771  0.00  0.00    -0.430 N 
HETATM   13  H   UNK N   1      26.678  26.509  -2.492  0.00  0.00     0.149 HD
HETATM   14  H   UNK N   1      26.652  28.199  -2.174  0.00  0.00     0.149 HD
ENDBRANCH  11  12
ENDBRANCH  10  11
ENDBRANCH   9  10
ENDBRANCH   8   9
ENDBRANCH   3   8
ENDBRANCH   1   3
BRANCH   1  15
HETATM   15  S   UNK N   1      28.248  24.550  -4.325  0.00  0.00     0.259 S 
HETATM   16  O   UNK N   1      28.997  25.785  -3.805  0.00  0.00    -0.201 OA
HETATM   17  O   UNK N   1      27.136  24.426  -3.271  0.00  0.00    -0.201 OA
BRANCH  15  18
HETATM   18  C   UNK N   1      29.352  23.134  -4.354  0.00  0.00     0.079 A 
HETATM   19  C   UNK N   1      30.053  22.756  -3.207  0.00  0.00     0.026 A 
HETATM   20  C   UNK N   1      30.911  21.651  -3.239  0.00  0.00     0.008 A 
HETATM   21  C   UNK N   1      31.062  20.918  -4.420  0.00  0.00    -0.062 A 
HETATM   22  C   UNK N   1      30.355  21.290  -5.567  0.00  0.00     0.008 A 
HETATM   23  C   UNK N   1      31.974  19.744  -4.454  0.00  0.00     0.048 C 
HETATM   24  C   UNK N   1      29.502  22.396  -5.535  0.00  0.00     0.026 A 
ENDBRANCH  15  18
ENDBRANCH   1  15
TORSDOF 10
ENDMDL
MODEL 8
REMARK VINA RESULT:      -5.2     10.660     13.301
REMARK  10 active torsions:
REMARK  status: ('A' for Active; 'I' for Inactive)
REMARK    1  A    between atoms: S_1  and  C_4 
REMARK    2  A    between atoms: N_11  and  S_1 
REMARK    3  A    between atoms: C_12  and  N_11 
REMARK    4  A    between atoms: C_12  and  C_13 
REMARK    5  A    between atoms: C_12  and  C_15 
REMARK    6  A    between atoms: C_13  and  C_20 
REMARK    7  A    between atoms: C_15  and  C_16 
REMARK    8  A    between atoms: C_16  and  C_17 
REMARK    9  A    between atoms: C_17  and  C_18 
REMARK   10  A    between atoms: C_18  and  N_19 
ROOT
HETATM    1  N   UNK N   1      28.384  18.138   3.834  0.00  0.00    -0.303 N 
HETATM    2  H   UNK N   1      28.425  18.851   3.106  0.00  0.00     0.173 HD
ENDROOT
BRANCH   1   3
HETATM    3  C   UNK N   1      27.292  18.029   4.809  0.00  0.00     0.163 C 
BRANCH   3   4
HETATM    4  C   UNK N   1      25.954  17.990   4.095  0.00  0.00     0.163 C 
HETATM    5  O   UNK N   1      25.835  17.303   3.096  0.00  0.00    -0.294 OA
BRANCH   4   6
HETATM    6  C   UNK N   1      24.765  18.766   4.574  0.00  0.00     0.195 C 
HETATM    7 Cl   UNK N   1      24.586  20.278   3.652  0.00  0.00    -0.122 Cl
ENDBRANCH   4   6
ENDBRANCH   3   4
BRANCH   3   8
HETATM    8  C   UNK N   1      27.427  19.132   5.867  0.00  0.00     0.034 C 
BRANCH   8   9
HETATM    9  C   UNK N   1      27.770  20.521   5.339  0.00  0.00     0.004 C 
BRANCH   9  10
HETATM   10  C   UNK N   1      27.113  21.563   6.238  0.00  0.00     0.019 C 
BRANCH  10  11
HETATM   11  C   UNK N   1      26.276  20.891   7.319  0.00  0.00     0.111 C 
BRANCH  11  12
HETATM   12  N   UNK N   1      25.763  21.889   8.239  0.00  0.00    -0.430 N 
HETATM   13  H   UNK N   1      25.552  21.818   9.233  0.00  0.00     0.149 HD
HETATM   14  H   UNK N   1      25.587  22.805   7.826  0.00  0.00     0.149 HD
ENDBRANCH  11  12
ENDBRANCH  10  11
ENDBRANCH   9  10
ENDBRANCH   8   9
ENDBRANCH   3   8
ENDBRANCH   1   3
BRANCH   1  15
HETATM   15  S   UNK N   1      29.632  16.882   4.062  0.00  0.00     0.259 S 
HETATM   16  O   UNK N   1      28.831  15.655   4.523  0.00  0.00    -0.201 OA
HETATM   17  O   UNK N   1      30.065  16.429   2.658  0.00  0.00    -0.201 OA
BRANCH  15  18
HETATM   18  C   UNK N   1      31.017  17.157   5.171  0.00  0.00     0.079 A 
HETATM   19  C   UNK N   1      30.829  17.165   6.555  0.00  0.00     0.026 A 
HETATM   20  C   UNK N   1      31.913  17.381   7.412  0.00  0.00     0.008 A 
HETATM   21  C   UNK N   1      33.192  17.581   6.883  0.00  0.00    -0.062 A 
HETATM   22  C   UNK N   1      33.385  17.566   5.498  0.00  0.00     0.008 A 
HETATM   23  C   UNK N   1      34.345  17.810   7.793  0.00  0.00     0.048 C 
HETATM   24  C   UNK N   1      32.299  17.355   4.643  0.00  0.00     0.026 A 
ENDBRANCH  15  18
ENDBRANCH   1  15
TORSDOF 10
ENDMDL
MODEL 9
REMARK VINA RESULT:      -5.0     14.772     16.429
REMARK  10 active torsions:
REMARK  status: ('A' for Active; 'I' for Inactive)
REMARK    1  A    between atoms: S_1  and  C_4 
REMARK    2  A    between atoms: N_11  and  S_1 
REMARK    3  A    between atoms: C_12  and  N_11 
REMARK    4  A    between atoms: C_12  and  C_13 
REMARK    5  A    between atoms: C_12  and  C_15 
REMARK    6  A    between atoms: C_13  and  C_20 
REMARK    7  A    between atoms: C_15  and  C_16 
REMARK    8  A    between atoms: C_16  and  C_17 
REMARK    9  A    between atoms: C_17  and  C_18 
REMARK   10  A    between atoms: C_18  and  N_19 
ROOT
HETATM    1  N   UNK N   1      22.028  14.979   6.675  0.00  0.00    -0.303 N 
HETATM    2  H   UNK N   1      22.865  15.546   6.812  0.00  0.00     0.173 HD
ENDROOT
BRANCH   1   3
HETATM    3  C   UNK N   1      20.816  15.461   6.003  0.00  0.00     0.163 C 
BRANCH   3   4
HETATM    4  C   UNK N   1      21.096  15.708   4.532  0.00  0.00     0.163 C 
HETATM    5  O   UNK N   1      21.497  14.788   3.842  0.00  0.00    -0.294 OA
BRANCH   4   6
HETATM    6  C   UNK N   1      20.896  17.047   3.891  0.00  0.00     0.195 C 
HETATM    7 Cl   UNK N   1      20.430  16.865   2.183  0.00  0.00    -0.122 Cl
ENDBRANCH   4   6
ENDBRANCH   3   4
BRANCH   3   8
HETATM    8  C   UNK N   1      20.243  16.665   6.762  0.00  0.00     0.034 C 
BRANCH   8   9
HETATM    9  C   UNK N   1      20.280  16.570   8.284  0.00  0.00     0.004 C 
BRANCH   9  10
HETATM   10  C   UNK N   1      19.352  17.632   8.863  0.00  0.00     0.019 C 
BRANCH  10  11
HETATM   11  C   UNK N   1      18.058  17.001   9.364  0.00  0.00     0.111 C 
BRANCH  11  12
HETATM   12  N   UNK N   1      16.957  17.930   9.192  0.00  0.00    -0.430 N 
HETATM   13  H   UNK N   1      16.849  18.706   8.539  0.00  0.00     0.149 HD
HETATM   14  H   UNK N   1      16.167  17.783   9.820  0.00  0.00     0.149 HD
ENDBRANCH  11  12
ENDBRANCH  10  11
ENDBRANCH   9  10
ENDBRANCH   8   9
ENDBRANCH   3   8
ENDBRANCH   1   3
BRANCH   1  15
HETATM   15  S   UNK N   1      21.877  13.287   7.227  0.00  0.00     0.259 S 
HETATM   16  O   UNK N   1      20.412  12.938   6.926  0.00  0.00    -0.201 OA
HETATM   17  O   UNK N   1      22.598  12.417   6.185  0.00  0.00    -0.201 OA
BRANCH  15  18
HETATM   18  C   UNK N   1      22.276  12.837   8.919  0.00  0.00     0.079 A 
HETATM   19  C   UNK N   1      23.602  12.629   9.306  0.00  0.00     0.026 A 
HETATM   20  C   UNK N   1      23.903  12.279  10.626  0.00  0.00     0.008 A 
HETATM   21  C   UNK N   1      22.876  12.143  11.564  0.00  0.00    -0.062 A 
HETATM   22  C   UNK N   1      21.548  12.359  11.182  0.00  0.00     0.008 A 
HETATM   23  C   UNK N   1      23.196  11.772  12.968  0.00  0.00     0.048 C 
HETATM   24  C   UNK N   1      21.248  12.704   9.861  0.00  0.00     0.026 A 
ENDBRANCH  15  18
ENDBRANCH   1  15
TORSDOF 10
ENDMDL
