REMARK  6 active torsions:
REMARK  status: ('A' for Active; 'I' for Inactive)
REMARK    1  A    between atoms: C_4  and  N_15 
REMARK    2  A    between atoms: S_6  and  C_7 
REMARK    3  A    between atoms: C_8  and  C_7 
REMARK    4  A    between atoms: N_10  and  C_11 
REMARK    5  A    between atoms: C_11  and  C_12 
REMARK    6  A    between atoms: C_21  and  O_22 
ROOT
HETATM    1  C   UNK N   1       5.071  -1.071   0.126  0.00  0.00     0.182 A 
HETATM    2  C   UNK N   1       2.739  -1.169   0.002  0.00  0.00     0.073 A 
HETATM    3  C   UNK N   1       2.773  -2.523  -0.043  0.00  0.00     0.103 A 
HETATM    4  C   UNK N   1       3.986  -3.190  -0.001  0.00  0.00     0.129 A 
HETATM    5  C   UNK N   1       1.423  -0.790  -0.064  0.00  0.00     0.015 A 
HETATM    6  C   UNK N   1       0.692  -1.978  -0.153  0.00  0.00     0.099 A 
HETATM    7  N   UNK N   1       1.536  -3.041  -0.135  0.00  0.00    -0.360 N 
HETATM    8  N   UNK N   1       5.126  -2.444   0.083  0.00  0.00    -0.337 N 
ATOM      9  HN  UNK N   1       6.032  -2.912   0.114  1.00  0.00     0.168 HD
HETATM   10  N   UNK N   1       3.865  -0.421   0.086  0.00  0.00    -0.350 N 
ATOM     11  HN  UNK N   1       3.817   0.597   0.118  1.00  0.00     0.166 HD
HETATM   12  H   UNK N   1       1.293  -3.994  -0.179  0.00  0.00     0.165 HD
ENDROOT
BRANCH   5  13
HETATM   13  C   UNK N   1       0.863   0.608  -0.058  0.00  0.00     0.315 C 
BRANCH  13  14
HETATM   14  N   UNK N   1      -0.560   0.567  -0.375  0.00  0.00     0.095 N 
HETATM   15  C   UNK N   1      -1.092   1.876  -0.758  0.00  0.00     0.280 C 
HETATM   16  C   UNK N   1      -2.461   1.997  -0.085  0.00  0.00     0.054 C 
HETATM   17  C   UNK N   1      -2.739   0.582   0.401  0.00  0.00     0.152 C 
HETATM   18  C   UNK N   1      -1.353   0.151   0.775  0.00  0.00     0.304 C 
BRANCH  16  19
HETATM   19  C   UNK N   1      -3.524   2.552  -1.036  0.00  0.00     0.082 C 
BRANCH  19  20
HETATM   20  S   UNK N   1      -5.201   2.475  -0.323  0.00  0.00    -0.173 SA
HETATM   21  C   UNK N   1      -5.152   4.200   0.227  0.00  0.00     0.089 C 
ENDBRANCH  19  20
ENDBRANCH  16  19
BRANCH  17  22
HETATM   22  O   UNK N   1      -3.180  -0.232  -0.651  0.00  0.00    -0.393 OA
HETATM   23  H   UNK N   1      -3.821  -0.249  -1.379  0.00  0.00     0.210 HD
ENDBRANCH  17  22
ENDBRANCH  13  14
ENDBRANCH   5  13
BRANCH   4  24
HETATM   24  N   UNK N   1       4.047  -4.597  -0.048  0.00  0.00    -0.384 N 
HETATM   25  H   UNK N   1       3.218  -5.126  -0.080  0.00  0.00     0.157 HD
HETATM   26  H   UNK N   1       4.921  -5.052  -0.048  0.00  0.00     0.157 HD
ENDBRANCH   4  24
TORSDOF 6
