MODEL 1
REMARK VINA RESULT:      -6.3      0.000      0.000
REMARK  6 active torsions:
REMARK  status: ('A' for Active; 'I' for Inactive)
REMARK    1  A    between atoms: C_4  and  N_15 
REMARK    2  A    between atoms: S_6  and  C_7 
REMARK    3  A    between atoms: C_8  and  C_7 
REMARK    4  A    between atoms: N_10  and  C_11 
REMARK    5  A    between atoms: C_11  and  C_12 
REMARK    6  A    between atoms: C_21  and  O_22 
ROOT
HETATM    1  C   UNK N   1      29.150  18.411   9.848  0.00  0.00     0.182 A 
HETATM    2  C   UNK N   1      30.524  17.641   8.120  0.00  0.00     0.073 A 
HETATM    3  C   UNK N   1      29.443  17.290   7.383  0.00  0.00     0.103 A 
HETATM    4  C   UNK N   1      28.166  17.501   7.876  0.00  0.00     0.129 A 
HETATM    5  C   UNK N   1      31.639  17.312   7.394  0.00  0.00     0.015 A 
HETATM    6  C   UNK N   1      31.164  16.752   6.205  0.00  0.00     0.099 A 
HETATM    7  N   UNK N   1      29.807  16.747   6.208  0.00  0.00    -0.360 N 
HETATM    8  N   UNK N   1      28.041  18.063   9.114  0.00  0.00    -0.337 N 
ATOM      9  HN  UNK N   1      27.111  18.227   9.500  1.00  0.00     0.168 HD
HETATM   10  N   UNK N   1      30.409  18.200   9.349  0.00  0.00    -0.350 N 
ATOM     11  HN  UNK N   1      31.236  18.457   9.887  1.00  0.00     0.166 HD
HETATM   12  H   UNK N   1      29.212  16.416   5.497  0.00  0.00     0.165 HD
ENDROOT
BRANCH   5  13
HETATM   13  C   UNK N   1      33.082  17.495   7.784  0.00  0.00     0.315 C 
BRANCH  13  14
HETATM   14  N   UNK N   1      33.360  16.741   9.001  0.00  0.00     0.095 N 
HETATM   15  C   UNK N   1      34.735  16.914   9.472  0.00  0.00     0.280 C 
HETATM   16  C   UNK N   1      35.209  15.533   9.930  0.00  0.00     0.054 C 
HETATM   17  C   UNK N   1      33.927  14.715   9.962  0.00  0.00     0.152 C 
HETATM   18  C   UNK N   1      33.202  15.308   8.791  0.00  0.00     0.304 C 
BRANCH  16  19
HETATM   19  C   UNK N   1      35.948  15.591  11.269  0.00  0.00     0.082 C 
BRANCH  19  20
HETATM   20  S   UNK N   1      36.523  13.949  11.816  0.00  0.00    -0.173 SA
HETATM   21  C   UNK N   1      36.151  14.290  13.555  0.00  0.00     0.089 C 
ENDBRANCH  19  20
ENDBRANCH  16  19
BRANCH  17  22
HETATM   22  O   UNK N   1      33.185  14.990  11.119  0.00  0.00    -0.393 OA
HETATM   23  H   UNK N   1      32.858  15.733  11.651  0.00  0.00     0.210 HD
ENDBRANCH  17  22
ENDBRANCH  13  14
ENDBRANCH   5  13
BRANCH   4  24
HETATM   24  N   UNK N   1      27.026  17.142   7.129  0.00  0.00    -0.384 N 
HETATM   25  H   UNK N   1      27.036  17.218   6.148  0.00  0.00     0.157 HD
HETATM   26  H   UNK N   1      26.218  16.816   7.589  0.00  0.00     0.157 HD
ENDBRANCH   4  24
TORSDOF 6
ENDMDL
MODEL 2
REMARK VINA RESULT:      -5.7      4.201      7.768
REMARK  6 active torsions:
REMARK  status: ('A' for Active; 'I' for Inactive)
REMARK    1  A    between atoms: C_4  and  N_15 
REMARK    2  A    between atoms: S_6  and  C_7 
REMARK    3  A    between atoms: C_8  and  C_7 
REMARK    4  A    between atoms: N_10  and  C_11 
REMARK    5  A    between atoms: C_11  and  C_12 
REMARK    6  A    between atoms: C_21  and  O_22 
ROOT
HETATM    1  C   UNK N   1      36.934  14.411  15.329  0.00  0.00     0.182 A 
HETATM    2  C   UNK N   1      35.994  13.908  13.249  0.00  0.00     0.073 A 
HETATM    3  C   UNK N   1      35.310  12.866  13.781  0.00  0.00     0.103 A 
HETATM    4  C   UNK N   1      35.428  12.573  15.130  0.00  0.00     0.129 A 
HETATM    5  C   UNK N   1      35.694  13.954  11.912  0.00  0.00     0.015 A 
HETATM    6  C   UNK N   1      34.812  12.894  11.686  0.00  0.00     0.099 A 
HETATM    7  N   UNK N   1      34.579  12.232  12.848  0.00  0.00    -0.360 N 
HETATM    8  N   UNK N   1      36.247  13.359  15.888  0.00  0.00    -0.337 N 
ATOM      9  HN  UNK N   1      36.352  13.162  16.884  1.00  0.00     0.168 HD
HETATM   10  N   UNK N   1      36.808  14.693  13.994  0.00  0.00    -0.350 N 
ATOM     11  HN  UNK N   1      37.314  15.472  13.573  1.00  0.00     0.166 HD
HETATM   12  H   UNK N   1      33.995  11.451  12.981  0.00  0.00     0.165 HD
ENDROOT
BRANCH   5  13
HETATM   13  C   UNK N   1      36.210  14.925  10.883  0.00  0.00     0.315 C 
BRANCH  13  14
HETATM   14  N   UNK N   1      35.095  15.448  10.101  0.00  0.00     0.095 N 
HETATM   15  C   UNK N   1      35.141  15.029   8.699  0.00  0.00     0.280 C 
HETATM   16  C   UNK N   1      34.744  16.254   7.872  0.00  0.00     0.054 C 
HETATM   17  C   UNK N   1      34.197  17.219   8.914  0.00  0.00     0.152 C 
HETATM   18  C   UNK N   1      35.101  16.905  10.068  0.00  0.00     0.304 C 
BRANCH  16  19
HETATM   19  C   UNK N   1      33.750  15.902   6.763  0.00  0.00     0.082 C 
BRANCH  19  20
HETATM   20  S   UNK N   1      33.422  17.312   5.652  0.00  0.00    -0.173 SA
HETATM   21  C   UNK N   1      31.626  17.102   5.756  0.00  0.00     0.089 C 
ENDBRANCH  19  20
ENDBRANCH  16  19
BRANCH  17  22
HETATM   22  O   UNK N   1      32.889  16.875   9.279  0.00  0.00    -0.393 OA
HETATM   23  H   UNK N   1      32.260  16.137   9.240  0.00  0.00     0.210 HD
ENDBRANCH  17  22
ENDBRANCH  13  14
ENDBRANCH   5  13
BRANCH   4  24
HETATM   24  N   UNK N   1      34.729  11.494  15.706  0.00  0.00    -0.384 N 
HETATM   25  H   UNK N   1      34.264  11.609  16.565  0.00  0.00     0.157 HD
HETATM   26  H   UNK N   1      34.706  10.622  15.248  0.00  0.00     0.157 HD
ENDBRANCH   4  24
TORSDOF 6
ENDMDL
MODEL 3
REMARK VINA RESULT:      -5.7      1.718      2.965
REMARK  6 active torsions:
REMARK  status: ('A' for Active; 'I' for Inactive)
REMARK    1  A    between atoms: C_4  and  N_15 
REMARK    2  A    between atoms: S_6  and  C_7 
REMARK    3  A    between atoms: C_8  and  C_7 
REMARK    4  A    between atoms: N_10  and  C_11 
REMARK    5  A    between atoms: C_11  and  C_12 
REMARK    6  A    between atoms: C_21  and  O_22 
ROOT
HETATM    1  C   UNK N   1      32.802  17.240   3.761  0.00  0.00     0.182 A 
HETATM    2  C   UNK N   1      32.421  17.374   6.064  0.00  0.00     0.073 A 
HETATM    3  C   UNK N   1      31.081  17.318   5.871  0.00  0.00     0.103 A 
HETATM    4  C   UNK N   1      30.567  17.218   4.589  0.00  0.00     0.129 A 
HETATM    5  C   UNK N   1      32.637  17.477   7.414  0.00  0.00     0.015 A 
HETATM    6  C   UNK N   1      31.368  17.483   7.999  0.00  0.00     0.099 A 
HETATM    7  N   UNK N   1      30.416  17.381   7.037  0.00  0.00    -0.360 N 
HETATM    8  N   UNK N   1      31.446  17.181   3.545  0.00  0.00    -0.337 N 
ATOM      9  HN  UNK N   1      31.091  17.109   2.592  1.00  0.00     0.168 HD
HETATM   10  N   UNK N   1      33.301  17.337   5.034  0.00  0.00    -0.350 N 
ATOM     11  HN  UNK N   1      34.306  17.381   5.202  1.00  0.00     0.166 HD
HETATM   12  H   UNK N   1      29.440  17.356   7.166  0.00  0.00     0.165 HD
ENDROOT
BRANCH   5  13
HETATM   13  C   UNK N   1      33.956  17.579   8.133  0.00  0.00     0.315 C 
BRANCH  13  14
HETATM   14  N   UNK N   1      33.931  16.735   9.323  0.00  0.00     0.095 N 
HETATM   15  C   UNK N   1      35.162  16.830  10.109  0.00  0.00     0.280 C 
HETATM   16  C   UNK N   1      35.495  15.406  10.560  0.00  0.00     0.054 C 
HETATM   17  C   UNK N   1      34.227  14.630  10.235  0.00  0.00     0.152 C 
HETATM   18  C   UNK N   1      33.804  15.325   8.976  0.00  0.00     0.304 C 
BRANCH  16  19
HETATM   19  C   UNK N   1      35.903  15.348  12.034  0.00  0.00     0.082 C 
BRANCH  19  20
HETATM   20  S   UNK N   1      36.440  13.681  12.541  0.00  0.00    -0.173 SA
HETATM   21  C   UNK N   1      36.421  14.103  14.302  0.00  0.00     0.089 C 
ENDBRANCH  19  20
ENDBRANCH  16  19
BRANCH  17  22
HETATM   22  O   UNK N   1      33.242  14.849  11.206  0.00  0.00    -0.393 OA
HETATM   23  H   UNK N   1      33.064  15.377  12.001  0.00  0.00     0.210 HD
ENDBRANCH  17  22
ENDBRANCH  13  14
ENDBRANCH   5  13
BRANCH   4  24
HETATM   24  N   UNK N   1      29.177  17.160   4.363  0.00  0.00    -0.384 N 
HETATM   25  H   UNK N   1      28.569  16.901   5.092  0.00  0.00     0.157 HD
HETATM   26  H   UNK N   1      28.813  17.379   3.474  0.00  0.00     0.157 HD
ENDBRANCH   4  24
TORSDOF 6
ENDMDL
MODEL 4
REMARK VINA RESULT:      -5.7      3.759      7.470
REMARK  6 active torsions:
REMARK  status: ('A' for Active; 'I' for Inactive)
REMARK    1  A    between atoms: C_4  and  N_15 
REMARK    2  A    between atoms: S_6  and  C_7 
REMARK    3  A    between atoms: C_8  and  C_7 
REMARK    4  A    between atoms: N_10  and  C_11 
REMARK    5  A    between atoms: C_11  and  C_12 
REMARK    6  A    between atoms: C_21  and  O_22 
ROOT
HETATM    1  C   UNK N   1      34.841  11.985  13.598  0.00  0.00     0.182 A 
HETATM    2  C   UNK N   1      35.229  13.704  12.063  0.00  0.00     0.073 A 
HETATM    3  C   UNK N   1      36.037  14.342  12.943  0.00  0.00     0.103 A 
HETATM    4  C   UNK N   1      36.268  13.799  14.196  0.00  0.00     0.129 A 
HETATM    5  C   UNK N   1      35.178  14.467  10.925  0.00  0.00     0.015 A 
HETATM    6  C   UNK N   1      35.987  15.579  11.180  0.00  0.00     0.099 A 
HETATM    7  N   UNK N   1      36.514  15.488  12.427  0.00  0.00    -0.360 N 
HETATM    8  N   UNK N   1      35.659  12.617  14.505  0.00  0.00    -0.337 N 
ATOM      9  HN  UNK N   1      35.813  12.196  15.421  1.00  0.00     0.168 HD
HETATM   10  N   UNK N   1      34.621  12.531  12.360  0.00  0.00    -0.350 N 
ATOM     11  HN  UNK N   1      34.016  12.067  11.683  1.00  0.00     0.166 HD
HETATM   12  H   UNK N   1      37.122  16.128  12.864  0.00  0.00     0.165 HD
ENDROOT
BRANCH   5  13
HETATM   13  C   UNK N   1      34.408  14.191   9.661  0.00  0.00     0.315 C 
BRANCH  13  14
HETATM   14  N   UNK N   1      34.230  15.432   8.915  0.00  0.00     0.095 N 
HETATM   15  C   UNK N   1      32.822  15.753   8.678  0.00  0.00     0.280 C 
HETATM   16  C   UNK N   1      32.734  16.271   7.241  0.00  0.00     0.054 C 
HETATM   17  C   UNK N   1      34.191  16.490   6.858  0.00  0.00     0.152 C 
HETATM   18  C   UNK N   1      34.834  15.351   7.590  0.00  0.00     0.304 C 
BRANCH  16  19
HETATM   19  C   UNK N   1      31.863  17.524   7.131  0.00  0.00     0.082 C 
BRANCH  19  20
HETATM   20  S   UNK N   1      30.156  17.235   7.705  0.00  0.00    -0.173 SA
HETATM   21  C   UNK N   1      30.293  18.456   9.036  0.00  0.00     0.089 C 
ENDBRANCH  19  20
ENDBRANCH  16  19
BRANCH  17  22
HETATM   22  O   UNK N   1      34.677  17.687   7.400  0.00  0.00    -0.393 OA
HETATM   23  H   UNK N   1      35.507  18.154   7.583  0.00  0.00     0.210 HD
ENDBRANCH  17  22
ENDBRANCH  13  14
ENDBRANCH   5  13
BRANCH   4  24
HETATM   24  N   UNK N   1      37.103  14.445  15.129  0.00  0.00    -0.384 N 
HETATM   25  H   UNK N   1      36.941  14.338  16.093  0.00  0.00     0.157 HD
HETATM   26  H   UNK N   1      37.850  15.005  14.815  0.00  0.00     0.157 HD
ENDBRANCH   4  24
TORSDOF 6
ENDMDL
MODEL 5
REMARK VINA RESULT:      -5.6      5.404      8.725
REMARK  6 active torsions:
REMARK  status: ('A' for Active; 'I' for Inactive)
REMARK    1  A    between atoms: C_4  and  N_15 
REMARK    2  A    between atoms: S_6  and  C_7 
REMARK    3  A    between atoms: C_8  and  C_7 
REMARK    4  A    between atoms: N_10  and  C_11 
REMARK    5  A    between atoms: C_11  and  C_12 
REMARK    6  A    between atoms: C_21  and  O_22 
ROOT
HETATM    1  C   UNK N   1      37.460  15.716  16.206  0.00  0.00     0.182 A 
HETATM    2  C   UNK N   1      36.343  13.915  15.219  0.00  0.00     0.073 A 
HETATM    3  C   UNK N   1      35.729  13.621  16.391  0.00  0.00     0.103 A 
HETATM    4  C   UNK N   1      35.975  14.389  17.517  0.00  0.00     0.129 A 
HETATM    5  C   UNK N   1      35.923  12.995  14.294  0.00  0.00     0.015 A 
HETATM    6  C   UNK N   1      35.042  12.150  14.976  0.00  0.00     0.099 A 
HETATM    7  N   UNK N   1      34.928  12.549  16.268  0.00  0.00    -0.360 N 
HETATM    8  N   UNK N   1      36.846  15.434  17.404  0.00  0.00    -0.337 N 
ATOM      9  HN  UNK N   1      37.044  16.014  18.219  1.00  0.00     0.168 HD
HETATM   10  N   UNK N   1      37.208  14.951  15.098  0.00  0.00    -0.350 N 
ATOM     11  HN  UNK N   1      37.660  15.154  14.206  1.00  0.00     0.166 HD
HETATM   12  H   UNK N   1      34.372  12.139  16.970  0.00  0.00     0.165 HD
ENDROOT
BRANCH   5  13
HETATM   13  C   UNK N   1      36.325  12.890  12.847  0.00  0.00     0.315 C 
BRANCH  13  14
HETATM   14  N   UNK N   1      35.265  13.432  12.004  0.00  0.00     0.095 N 
HETATM   15  C   UNK N   1      35.330  12.938  10.627  0.00  0.00     0.280 C 
HETATM   16  C   UNK N   1      35.027  14.137   9.726  0.00  0.00     0.054 C 
HETATM   17  C   UNK N   1      34.505  15.184  10.699  0.00  0.00     0.152 C 
HETATM   18  C   UNK N   1      35.354  14.882  11.897  0.00  0.00     0.304 C 
BRANCH  16  19
HETATM   19  C   UNK N   1      34.048  13.783   8.604  0.00  0.00     0.082 C 
BRANCH  19  20
HETATM   20  S   UNK N   1      33.540  12.032   8.654  0.00  0.00    -0.173 SA
HETATM   21  C   UNK N   1      33.436  11.909   6.850  0.00  0.00     0.089 C 
ENDBRANCH  19  20
ENDBRANCH  16  19
BRANCH  17  22
HETATM   22  O   UNK N   1      33.169  14.932  11.038  0.00  0.00    -0.393 OA
HETATM   23  H   UNK N   1      32.414  14.377  10.784  0.00  0.00     0.210 HD
ENDBRANCH  17  22
ENDBRANCH  13  14
ENDBRANCH   5  13
BRANCH   4  24
HETATM   24  N   UNK N   1      35.350  14.102  18.747  0.00  0.00    -0.384 N 
HETATM   25  H   UNK N   1      35.385  14.754  19.483  0.00  0.00     0.157 HD
HETATM   26  H   UNK N   1      34.878  13.246  18.871  0.00  0.00     0.157 HD
ENDBRANCH   4  24
TORSDOF 6
ENDMDL
MODEL 6
REMARK VINA RESULT:      -5.5      2.954      3.818
REMARK  6 active torsions:
REMARK  status: ('A' for Active; 'I' for Inactive)
REMARK    1  A    between atoms: C_4  and  N_15 
REMARK    2  A    between atoms: S_6  and  C_7 
REMARK    3  A    between atoms: C_8  and  C_7 
REMARK    4  A    between atoms: N_10  and  C_11 
REMARK    5  A    between atoms: C_11  and  C_12 
REMARK    6  A    between atoms: C_21  and  O_22 
ROOT
HETATM    1  C   UNK N   1      29.087  17.975   4.887  0.00  0.00     0.182 A 
HETATM    2  C   UNK N   1      29.326  17.821   7.207  0.00  0.00     0.073 A 
HETATM    3  C   UNK N   1      28.270  18.649   7.396  0.00  0.00     0.103 A 
HETATM    4  C   UNK N   1      27.587  19.165   6.307  0.00  0.00     0.129 A 
HETATM    5  C   UNK N   1      29.805  17.478   8.445  0.00  0.00     0.015 A 
HETATM    6  C   UNK N   1      28.988  18.144   9.363  0.00  0.00     0.099 A 
HETATM    7  N   UNK N   1      28.042  18.860   8.704  0.00  0.00    -0.360 N 
HETATM    8  N   UNK N   1      28.013  18.815   5.058  0.00  0.00    -0.337 N 
ATOM      9  HN  UNK N   1      27.527  19.183   4.240  1.00  0.00     0.168 HD
HETATM   10  N   UNK N   1      29.755  17.468   5.971  0.00  0.00    -0.350 N 
ATOM     11  HN  UNK N   1      30.552  16.844   5.851  1.00  0.00     0.166 HD
HETATM   12  H   UNK N   1      27.334  19.417   9.100  0.00  0.00     0.165 HD
ENDROOT
BRANCH   5  13
HETATM   13  C   UNK N   1      30.974  16.586   8.769  0.00  0.00     0.315 C 
BRANCH  13  14
HETATM   14  N   UNK N   1      32.082  16.885   7.869  0.00  0.00     0.095 N 
HETATM   15  C   UNK N   1      32.574  15.700   7.165  0.00  0.00     0.280 C 
HETATM   16  C   UNK N   1      34.101  15.806   7.158  0.00  0.00     0.054 C 
HETATM   17  C   UNK N   1      34.354  17.237   7.612  0.00  0.00     0.152 C 
HETATM   18  C   UNK N   1      33.234  17.407   8.593  0.00  0.00     0.304 C 
BRANCH  16  19
HETATM   19  C   UNK N   1      34.697  15.470   5.789  0.00  0.00     0.082 C 
BRANCH  19  20
HETATM   20  S   UNK N   1      36.244  14.514   5.922  0.00  0.00    -0.173 SA
HETATM   21  C   UNK N   1      35.724  13.700   7.454  0.00  0.00     0.089 C 
ENDBRANCH  19  20
ENDBRANCH  16  19
BRANCH  17  22
HETATM   22  O   UNK N   1      34.154  18.140   6.560  0.00  0.00    -0.393 OA
HETATM   23  H   UNK N   1      34.641  18.732   5.965  0.00  0.00     0.210 HD
ENDBRANCH  17  22
ENDBRANCH  13  14
ENDBRANCH   5  13
BRANCH   4  24
HETATM   24  N   UNK N   1      26.487  20.029   6.478  0.00  0.00    -0.384 N 
HETATM   25  H   UNK N   1      25.754  20.030   5.822  0.00  0.00     0.157 HD
HETATM   26  H   UNK N   1      26.453  20.633   7.256  0.00  0.00     0.157 HD
ENDBRANCH   4  24
TORSDOF 6
ENDMDL
MODEL 7
REMARK VINA RESULT:      -5.5      2.441      3.042
REMARK  6 active torsions:
REMARK  status: ('A' for Active; 'I' for Inactive)
REMARK    1  A    between atoms: C_4  and  N_15 
REMARK    2  A    between atoms: S_6  and  C_7 
REMARK    3  A    between atoms: C_8  and  C_7 
REMARK    4  A    between atoms: N_10  and  C_11 
REMARK    5  A    between atoms: C_11  and  C_12 
REMARK    6  A    between atoms: C_21  and  O_22 
ROOT
HETATM    1  C   UNK N   1      27.436  19.923   7.120  0.00  0.00     0.182 A 
HETATM    2  C   UNK N   1      28.982  18.333   6.385  0.00  0.00     0.073 A 
HETATM    3  C   UNK N   1      28.708  18.627   5.091  0.00  0.00     0.103 A 
HETATM    4  C   UNK N   1      27.772  19.600   4.783  0.00  0.00     0.129 A 
HETATM    5  C   UNK N   1      29.928  17.340   6.388  0.00  0.00     0.015 A 
HETATM    6  C   UNK N   1      30.191  17.066   5.042  0.00  0.00     0.099 A 
HETATM    7  N   UNK N   1      29.435  17.870   4.252  0.00  0.00    -0.360 N 
HETATM    8  N   UNK N   1      27.145  20.237   5.814  0.00  0.00    -0.337 N 
ATOM      9  HN  UNK N   1      26.451  20.957   5.613  1.00  0.00     0.168 HD
HETATM   10  N   UNK N   1      28.365  18.960   7.415  0.00  0.00    -0.350 N 
ATOM     11  HN  UNK N   1      28.586  18.722   8.381  1.00  0.00     0.166 HD
HETATM   12  H   UNK N   1      29.423  17.894   3.268  0.00  0.00     0.165 HD
ENDROOT
BRANCH   5  13
HETATM   13  C   UNK N   1      30.554  16.663   7.579  0.00  0.00     0.315 C 
BRANCH  13  14
HETATM   14  N   UNK N   1      32.004  16.805   7.516  0.00  0.00     0.095 N 
HETATM   15  C   UNK N   1      32.709  15.714   8.192  0.00  0.00     0.280 C 
HETATM   16  C   UNK N   1      33.871  16.358   8.951  0.00  0.00     0.054 C 
HETATM   17  C   UNK N   1      33.915  17.772   8.390  0.00  0.00     0.152 C 
HETATM   18  C   UNK N   1      32.452  18.022   8.181  0.00  0.00     0.304 C 
BRANCH  16  19
HETATM   19  C   UNK N   1      35.175  15.576   8.780  0.00  0.00     0.082 C 
BRANCH  19  20
HETATM   20  S   UNK N   1      36.063  15.353  10.357  0.00  0.00    -0.173 SA
HETATM   21  C   UNK N   1      34.552  14.921  11.258  0.00  0.00     0.089 C 
ENDBRANCH  19  20
ENDBRANCH  16  19
BRANCH  17  22
HETATM   22  O   UNK N   1      34.545  17.796   7.139  0.00  0.00    -0.393 OA
HETATM   23  H   UNK N   1      34.558  18.293   6.306  0.00  0.00     0.210 HD
ENDBRANCH  17  22
ENDBRANCH  13  14
ENDBRANCH   5  13
BRANCH   4  24
HETATM   24  N   UNK N   1      27.469  19.923   3.445  0.00  0.00    -0.384 N 
HETATM   25  H   UNK N   1      28.142  20.366   2.880  0.00  0.00     0.157 HD
HETATM   26  H   UNK N   1      26.582  19.707   3.075  0.00  0.00     0.157 HD
ENDBRANCH   4  24
TORSDOF 6
ENDMDL
MODEL 8
REMARK VINA RESULT:      -5.5     14.285     16.080
REMARK  6 active torsions:
REMARK  status: ('A' for Active; 'I' for Inactive)
REMARK    1  A    between atoms: C_4  and  N_15 
REMARK    2  A    between atoms: S_6  and  C_7 
REMARK    3  A    between atoms: C_8  and  C_7 
REMARK    4  A    between atoms: N_10  and  C_11 
REMARK    5  A    between atoms: C_11  and  C_12 
REMARK    6  A    between atoms: C_21  and  O_22 
ROOT
HETATM    1  C   UNK N   1      25.590  27.861  -3.947  0.00  0.00     0.182 A 
HETATM    2  C   UNK N   1      27.859  27.304  -4.011  0.00  0.00     0.073 A 
HETATM    3  C   UNK N   1      28.190  28.478  -3.420  0.00  0.00     0.103 A 
HETATM    4  C   UNK N   1      27.202  29.384  -3.072  0.00  0.00     0.129 A 
HETATM    5  C   UNK N   1      29.024  26.621  -4.245  0.00  0.00     0.015 A 
HETATM    6  C   UNK N   1      30.048  27.446  -3.771  0.00  0.00     0.099 A 
HETATM    7  N   UNK N   1      29.520  28.588  -3.259  0.00  0.00    -0.360 N 
HETATM    8  N   UNK N   1      25.905  29.056  -3.345  0.00  0.00    -0.337 N 
ATOM      9  HN  UNK N   1      25.160  29.708  -3.100  1.00  0.00     0.168 HD
HETATM   10  N   UNK N   1      26.575  26.970  -4.285  0.00  0.00    -0.350 N 
ATOM     11  HN  UNK N   1      26.348  26.082  -4.731  1.00  0.00     0.166 HD
HETATM   12  H   UNK N   1      30.009  29.340  -2.854  0.00  0.00     0.165 HD
ENDROOT
BRANCH   5  13
HETATM   13  C   UNK N   1      29.190  25.271  -4.891  0.00  0.00     0.315 C 
BRANCH  13  14
HETATM   14  N   UNK N   1      29.820  24.351  -3.951  0.00  0.00     0.095 N 
HETATM   15  C   UNK N   1      30.431  23.197  -4.612  0.00  0.00     0.280 C 
HETATM   16  C   UNK N   1      30.104  21.981  -3.741  0.00  0.00     0.054 C 
HETATM   17  C   UNK N   1      29.570  22.602  -2.459  0.00  0.00     0.152 C 
HETATM   18  C   UNK N   1      28.850  23.792  -3.017  0.00  0.00     0.304 C 
BRANCH  16  19
HETATM   19  C   UNK N   1      31.319  21.074  -3.538  0.00  0.00     0.082 C 
BRANCH  19  20
HETATM   20  S   UNK N   1      32.834  21.767  -4.279  0.00  0.00    -0.173 SA
HETATM   21  C   UNK N   1      33.921  20.731  -3.266  0.00  0.00     0.089 C 
ENDBRANCH  19  20
ENDBRANCH  16  19
BRANCH  17  22
HETATM   22  O   UNK N   1      30.617  23.065  -1.651  0.00  0.00    -0.393 OA
HETATM   23  H   UNK N   1      31.418  23.612  -1.688  0.00  0.00     0.210 HD
ENDBRANCH  17  22
ENDBRANCH  13  14
ENDBRANCH   5  13
BRANCH   4  24
HETATM   24  N   UNK N   1      27.521  30.612  -2.458  0.00  0.00    -0.384 N 
HETATM   25  H   UNK N   1      26.822  31.130  -1.998  0.00  0.00     0.157 HD
HETATM   26  H   UNK N   1      28.445  30.952  -2.490  0.00  0.00     0.157 HD
ENDBRANCH   4  24
TORSDOF 6
ENDMDL
MODEL 9
REMARK VINA RESULT:      -5.4     10.707     13.025
REMARK  6 active torsions:
REMARK  status: ('A' for Active; 'I' for Inactive)
REMARK    1  A    between atoms: C_4  and  N_15 
REMARK    2  A    between atoms: S_6  and  C_7 
REMARK    3  A    between atoms: C_8  and  C_7 
REMARK    4  A    between atoms: N_10  and  C_11 
REMARK    5  A    between atoms: C_11  and  C_12 
REMARK    6  A    between atoms: C_21  and  O_22 
ROOT
HETATM    1  C   UNK N   1      23.957  12.259   9.509  0.00  0.00     0.182 A 
HETATM    2  C   UNK N   1      22.236  13.736   8.944  0.00  0.00     0.073 A 
HETATM    3  C   UNK N   1      21.471  13.274   9.963  0.00  0.00     0.103 A 
HETATM    4  C   UNK N   1      21.949  12.274  10.793  0.00  0.00     0.129 A 
HETATM    5  C   UNK N   1      21.513  14.703   8.295  0.00  0.00     0.015 A 
HETATM    6  C   UNK N   1      20.294  14.784   8.975  0.00  0.00     0.099 A 
HETATM    7  N   UNK N   1      20.282  13.899  10.004  0.00  0.00    -0.360 N 
HETATM    8  N   UNK N   1      23.196  11.778  10.548  0.00  0.00    -0.337 N 
ATOM      9  HN  UNK N   1      23.570  11.040  11.145  1.00  0.00     0.168 HD
HETATM   10  N   UNK N   1      23.475  13.250   8.694  0.00  0.00    -0.350 N 
ATOM     11  HN  UNK N   1      24.034  13.612   7.922  1.00  0.00     0.166 HD
HETATM   12  H   UNK N   1      19.553  13.748  10.649  0.00  0.00     0.165 HD
ENDROOT
BRANCH   5  13
HETATM   13  C   UNK N   1      21.923  15.511   7.092  0.00  0.00     0.315 C 
BRANCH  13  14
HETATM   14  N   UNK N   1      20.825  15.552   6.132  0.00  0.00     0.095 N 
HETATM   15  C   UNK N   1      21.049  14.678   4.979  0.00  0.00     0.280 C 
HETATM   16  C   UNK N   1      20.576  15.458   3.751  0.00  0.00     0.054 C 
HETATM   17  C   UNK N   1      19.821  16.634   4.351  0.00  0.00     0.152 C 
HETATM   18  C   UNK N   1      20.650  16.887   5.575  0.00  0.00     0.304 C 
BRANCH  16  19
HETATM   19  C   UNK N   1      19.738  14.593   2.806  0.00  0.00     0.082 C 
BRANCH  19  20
HETATM   20  S   UNK N   1      20.025  15.001   1.052  0.00  0.00    -0.173 SA
HETATM   21  C   UNK N   1      21.794  14.622   1.152  0.00  0.00     0.089 C 
ENDBRANCH  19  20
ENDBRANCH  16  19
BRANCH  17  22
HETATM   22  O   UNK N   1      18.539  16.249   4.765  0.00  0.00    -0.393 OA
HETATM   23  H   UNK N   1      17.601  16.404   4.572  0.00  0.00     0.210 HD
ENDBRANCH  17  22
ENDBRANCH  13  14
ENDBRANCH   5  13
BRANCH   4  24
HETATM   24  N   UNK N   1      21.171  11.776  11.857  0.00  0.00    -0.384 N 
HETATM   25  H   UNK N   1      21.221  10.824  12.102  0.00  0.00     0.157 HD
HETATM   26  H   UNK N   1      20.576  12.381  12.358  0.00  0.00     0.157 HD
ENDBRANCH   4  24
TORSDOF 6
ENDMDL
