MODEL 1
REMARK VINA RESULT:      -8.3      0.000      0.000
REMARK  6 active torsions:
REMARK  status: ('A' for Active; 'I' for Inactive)
REMARK    1  A    between atoms: C_6  and  O_7 
REMARK    2  A    between atoms: C_14  and  C_16 
REMARK    3  A    between atoms: C_16  and  O_17 
REMARK    4  A    between atoms: O_17  and  C_18 
REMARK    5  A    between atoms: C_23  and  C_24 
REMARK    6  A    between atoms: C_25  and  C_24 
ROOT
HETATM    1  C   UNK N   1      27.649  22.061  -8.370  0.00  0.00     0.213 C 
ENDROOT
BRANCH   1   2
HETATM    2  C   UNK N   1      28.979  21.864  -7.639  0.00  0.00     0.086 C 
HETATM    3  C   UNK N   1      29.334  20.377  -7.595  0.00  0.00     0.045 C 
HETATM    4  C   UNK N   1      30.605  20.152  -6.759  0.00  0.00     0.045 C 
HETATM    5  C   UNK N   1      30.596  20.971  -5.487  0.00  0.00    -0.015 A 
HETATM    6  C   UNK N   1      31.495  20.689  -4.444  0.00  0.00    -0.019 A 
HETATM    7  C   UNK N   1      29.664  22.020  -5.340  0.00  0.00     0.083 A 
HETATM    8  C   UNK N   1      32.507  19.595  -4.586  0.00  0.00     0.052 C 
HETATM    9  C   UNK N   1      31.439  21.434  -3.253  0.00  0.00     0.078 A 
HETATM   10  C   UNK N   1      30.485  22.455  -3.100  0.00  0.00    -0.020 A 
HETATM   11  C   UNK N   1      29.598  22.747  -4.148  0.00  0.00    -0.019 A 
HETATM   12  C   UNK N   1      30.425  23.229  -1.822  0.00  0.00     0.052 C 
HETATM   13  C   UNK N   1      28.581  23.836  -4.007  0.00  0.00     0.052 C 
HETATM   14  O   UNK N   1      28.818  22.331  -6.352  0.00  0.00    -0.337 OA
HETATM   15  C   UNK N   1      30.124  22.611  -8.334  0.00  0.00     0.049 C 
BRANCH   9  16
HETATM   16  O   UNK N   1      32.297  21.163  -2.250  0.00  0.00    -0.360 OA
HETATM   17  H   UNK N   1      32.276  20.350  -1.785  0.00  0.00     0.217 HD
ENDBRANCH   9  16
ENDBRANCH   1   2
BRANCH   1  18
HETATM   18  O   UNK N   1      26.581  22.140  -7.490  0.00  0.00    -0.348 OA
BRANCH  18  19
HETATM   19  C   UNK N   1      26.145  23.353  -7.079  0.00  0.00     0.068 A 
HETATM   20  C   UNK N   1      25.656  23.544  -5.774  0.00  0.00     0.037 A 
HETATM   21  C   UNK N   1      25.350  24.844  -5.321  0.00  0.00     0.010 A 
HETATM   22  C   UNK N   1      25.519  25.941  -6.181  0.00  0.00    -0.056 A 
HETATM   23  C   UNK N   1      25.943  25.710  -7.496  0.00  0.00     0.010 A 
HETATM   24  C   UNK N   1      26.256  24.448  -7.936  0.00  0.00     0.037 A 
BRANCH  22  25
HETATM   25  C   UNK N   1      25.353  27.372  -5.698  0.00  0.00     0.063 C 
BRANCH  25  26
HETATM   26  C   UNK N   1      26.624  27.830  -4.945  0.00  0.00     0.153 C 
HETATM   27  S   UNK N   1      27.619  29.218  -5.591  0.00  0.00    -0.054 SA
HETATM   28  C   UNK N   1      28.203  29.394  -3.884  0.00  0.00     0.287 C 
HETATM   29  O   UNK N   1      29.247  29.949  -3.593  0.00  0.00    -0.260 OA
HETATM   30  N   UNK N   1      27.389  28.894  -2.949  0.00  0.00    -0.287 N 
HETATM   31  C   UNK N   1      26.413  28.165  -3.488  0.00  0.00     0.239 C 
HETATM   32  H   UNK N   1      27.497  29.046  -1.983  0.00  0.00     0.172 HD
HETATM   33  O   UNK N   1      25.445  27.808  -2.837  0.00  0.00    -0.272 OA
ENDBRANCH  25  26
ENDBRANCH  22  25
ENDBRANCH  18  19
ENDBRANCH   1  18
TORSDOF 6
ENDMDL
MODEL 2
REMARK VINA RESULT:      -8.1     18.882     22.340
REMARK  6 active torsions:
REMARK  status: ('A' for Active; 'I' for Inactive)
REMARK    1  A    between atoms: C_6  and  O_7 
REMARK    2  A    between atoms: C_14  and  C_16 
REMARK    3  A    between atoms: C_16  and  O_17 
REMARK    4  A    between atoms: O_17  and  C_18 
REMARK    5  A    between atoms: C_23  and  C_24 
REMARK    6  A    between atoms: C_25  and  C_24 
ROOT
HETATM    1  C   UNK N   1      34.989  12.851  12.826  0.00  0.00     0.213 C 
ENDROOT
BRANCH   1   2
HETATM    2  C   UNK N   1      35.497  11.850  13.867  0.00  0.00     0.086 C 
HETATM    3  C   UNK N   1      34.745  10.525  13.726  0.00  0.00     0.045 C 
HETATM    4  C   UNK N   1      35.159   9.550  14.841  0.00  0.00     0.045 C 
HETATM    5  C   UNK N   1      35.247  10.237  16.187  0.00  0.00    -0.015 A 
HETATM    6  C   UNK N   1      35.302   9.488  17.375  0.00  0.00    -0.019 A 
HETATM    7  C   UNK N   1      35.259  11.647  16.250  0.00  0.00     0.083 A 
HETATM    8  C   UNK N   1      35.312   7.991  17.330  0.00  0.00     0.052 C 
HETATM    9  C   UNK N   1      35.338  10.147  18.616  0.00  0.00     0.078 A 
HETATM   10  C   UNK N   1      35.315  11.551  18.672  0.00  0.00    -0.020 A 
HETATM   11  C   UNK N   1      35.276  12.300  17.486  0.00  0.00    -0.019 A 
HETATM   12  C   UNK N   1      35.337  12.241  19.999  0.00  0.00     0.052 C 
HETATM   13  C   UNK N   1      35.259  13.796  17.526  0.00  0.00     0.052 C 
HETATM   14  O   UNK N   1      35.247  12.384  15.112  0.00  0.00    -0.337 OA
HETATM   15  C   UNK N   1      36.996  11.571  13.700  0.00  0.00     0.049 C 
BRANCH   9  16
HETATM   16  O   UNK N   1      35.387   9.431  19.756  0.00  0.00    -0.360 OA
HETATM   17  H   UNK N   1      36.039   9.586  20.411  0.00  0.00     0.217 HD
ENDBRANCH   9  16
ENDBRANCH   1   2
BRANCH   1  18
HETATM   18  O   UNK N   1      36.024  13.397  12.084  0.00  0.00    -0.348 OA
BRANCH  18  19
HETATM   19  C   UNK N   1      35.758  14.378  11.191  0.00  0.00     0.068 A 
HETATM   20  C   UNK N   1      35.387  14.073   9.868  0.00  0.00     0.037 A 
HETATM   21  C   UNK N   1      34.970  15.102   8.999  0.00  0.00     0.010 A 
HETATM   22  C   UNK N   1      34.941  16.431   9.454  0.00  0.00    -0.056 A 
HETATM   23  C   UNK N   1      35.379  16.709  10.755  0.00  0.00     0.010 A 
HETATM   24  C   UNK N   1      35.773  15.709  11.608  0.00  0.00     0.037 A 
BRANCH  22  25
HETATM   25  C   UNK N   1      34.354  17.553   8.615  0.00  0.00     0.063 C 
BRANCH  25  26
HETATM   26  C   UNK N   1      33.135  17.038   7.815  0.00  0.00     0.153 C 
HETATM   27  S   UNK N   1      31.442  17.391   8.401  0.00  0.00    -0.054 SA
HETATM   28  C   UNK N   1      30.955  17.135   6.675  0.00  0.00     0.287 C 
HETATM   29  O   UNK N   1      29.821  16.842   6.341  0.00  0.00    -0.260 OA
HETATM   30  N   UNK N   1      31.927  17.318   5.775  0.00  0.00    -0.287 N 
HETATM   31  C   UNK N   1      33.119  17.435   6.359  0.00  0.00     0.239 C 
HETATM   32  H   UNK N   1      31.779  17.361   4.803  0.00  0.00     0.172 HD
HETATM   33  O   UNK N   1      34.097  17.825   5.744  0.00  0.00    -0.272 OA
ENDBRANCH  25  26
ENDBRANCH  22  25
ENDBRANCH  18  19
ENDBRANCH   1  18
TORSDOF 6
ENDMDL
MODEL 3
REMARK VINA RESULT:      -8.0     19.612     23.156
REMARK  6 active torsions:
REMARK  status: ('A' for Active; 'I' for Inactive)
REMARK    1  A    between atoms: C_6  and  O_7 
REMARK    2  A    between atoms: C_14  and  C_16 
REMARK    3  A    between atoms: C_16  and  O_17 
REMARK    4  A    between atoms: O_17  and  C_18 
REMARK    5  A    between atoms: C_23  and  C_24 
REMARK    6  A    between atoms: C_25  and  C_24 
ROOT
HETATM    1  C   UNK N   1      35.813  11.712  13.288  0.00  0.00     0.213 C 
ENDROOT
BRANCH   1   2
HETATM    2  C   UNK N   1      35.254  11.695  14.713  0.00  0.00     0.086 C 
HETATM    3  C   UNK N   1      35.319  13.101  15.313  0.00  0.00     0.045 C 
HETATM    4  C   UNK N   1      34.873  13.078  16.785  0.00  0.00     0.045 C 
HETATM    5  C   UNK N   1      35.461  11.902  17.534  0.00  0.00    -0.015 A 
HETATM    6  C   UNK N   1      35.440  11.860  18.939  0.00  0.00    -0.019 A 
HETATM    7  C   UNK N   1      36.050  10.841  16.813  0.00  0.00     0.083 A 
HETATM    8  C   UNK N   1      34.801  12.964  19.723  0.00  0.00     0.052 C 
HETATM    9  C   UNK N   1      36.032  10.779  19.615  0.00  0.00     0.078 A 
HETATM   10  C   UNK N   1      36.648   9.744  18.892  0.00  0.00    -0.020 A 
HETATM   11  C   UNK N   1      36.655   9.776  17.489  0.00  0.00    -0.019 A 
HETATM   12  C   UNK N   1      37.289   8.607  19.623  0.00  0.00     0.052 C 
HETATM   13  C   UNK N   1      37.298   8.678  16.701  0.00  0.00     0.052 C 
HETATM   14  O   UNK N   1      36.043  10.846  15.458  0.00  0.00    -0.337 OA
HETATM   15  C   UNK N   1      33.794  11.226  14.744  0.00  0.00     0.049 C 
BRANCH   9  16
HETATM   16  O   UNK N   1      36.017  10.739  20.962  0.00  0.00    -0.360 OA
HETATM   17  H   UNK N   1      36.395  11.420  21.482  0.00  0.00     0.217 HD
ENDBRANCH   9  16
ENDBRANCH   1   2
BRANCH   1  18
HETATM   18  O   UNK N   1      34.821  11.931  12.345  0.00  0.00    -0.348 OA
BRANCH  18  19
HETATM   19  C   UNK N   1      34.925  12.983  11.500  0.00  0.00     0.068 A 
HETATM   20  C   UNK N   1      34.815  12.809  10.108  0.00  0.00     0.037 A 
HETATM   21  C   UNK N   1      34.776  13.934   9.260  0.00  0.00     0.010 A 
HETATM   22  C   UNK N   1      34.862  15.224   9.807  0.00  0.00    -0.056 A 
HETATM   23  C   UNK N   1      35.039  15.361  11.190  0.00  0.00     0.010 A 
HETATM   24  C   UNK N   1      35.063  14.269  12.020  0.00  0.00     0.037 A 
BRANCH  22  25
HETATM   25  C   UNK N   1      34.670  16.470   8.959  0.00  0.00     0.063 C 
BRANCH  25  26
HETATM   26  C   UNK N   1      33.484  16.273   7.986  0.00  0.00     0.153 C 
HETATM   27  S   UNK N   1      31.771  16.292   8.618  0.00  0.00    -0.054 SA
HETATM   28  C   UNK N   1      31.312  16.734   6.922  0.00  0.00     0.287 C 
HETATM   29  O   UNK N   1      30.196  16.556   6.468  0.00  0.00    -0.260 OA
HETATM   30  N   UNK N   1      32.282  17.303   6.199  0.00  0.00    -0.287 N 
HETATM   31  C   UNK N   1      33.462  17.222   6.813  0.00  0.00     0.239 C 
HETATM   32  H   UNK N   1      32.141  17.729   5.323  0.00  0.00     0.172 HD
HETATM   33  O   UNK N   1      34.426  17.866   6.434  0.00  0.00    -0.272 OA
ENDBRANCH  25  26
ENDBRANCH  22  25
ENDBRANCH  18  19
ENDBRANCH   1  18
TORSDOF 6
ENDMDL
MODEL 4
REMARK VINA RESULT:      -8.0     12.121     15.481
REMARK  6 active torsions:
REMARK  status: ('A' for Active; 'I' for Inactive)
REMARK    1  A    between atoms: C_6  and  O_7 
REMARK    2  A    between atoms: C_14  and  C_16 
REMARK    3  A    between atoms: C_16  and  O_17 
REMARK    4  A    between atoms: O_17  and  C_18 
REMARK    5  A    between atoms: C_23  and  C_24 
REMARK    6  A    between atoms: C_25  and  C_24 
ROOT
HETATM    1  C   UNK N   1      26.587  16.873   5.757  0.00  0.00     0.213 C 
ENDROOT
BRANCH   1   2
HETATM    2  C   UNK N   1      25.597  17.418   4.724  0.00  0.00     0.086 C 
HETATM    3  C   UNK N   1      25.567  18.946   4.789  0.00  0.00     0.045 C 
HETATM    4  C   UNK N   1      24.491  19.503   3.842  0.00  0.00     0.045 C 
HETATM    5  C   UNK N   1      23.204  18.711   3.924  0.00  0.00    -0.015 A 
HETATM    6  C   UNK N   1      22.009  19.223   3.388  0.00  0.00    -0.019 A 
HETATM    7  C   UNK N   1      23.200  17.451   4.558  0.00  0.00     0.083 A 
HETATM    8  C   UNK N   1      21.994  20.548   2.691  0.00  0.00     0.052 C 
HETATM    9  C   UNK N   1      20.816  18.490   3.514  0.00  0.00     0.078 A 
HETATM   10  C   UNK N   1      20.813  17.252   4.178  0.00  0.00    -0.020 A 
HETATM   11  C   UNK N   1      22.008  16.732   4.699  0.00  0.00    -0.019 A 
HETATM   12  C   UNK N   1      19.534  16.489   4.321  0.00  0.00     0.052 C 
HETATM   13  C   UNK N   1      22.027  15.411   5.402  0.00  0.00     0.052 C 
HETATM   14  O   UNK N   1      24.351  16.925   5.044  0.00  0.00    -0.337 OA
HETATM   15  C   UNK N   1      25.982  17.004   3.299  0.00  0.00     0.049 C 
BRANCH   9  16
HETATM   16  O   UNK N   1      19.669  18.981   3.005  0.00  0.00    -0.360 OA
HETATM   17  H   UNK N   1      18.994  18.421   2.677  0.00  0.00     0.217 HD
ENDBRANCH   9  16
ENDBRANCH   1   2
BRANCH   1  18
HETATM   18  O   UNK N   1      27.485  17.842   6.176  0.00  0.00    -0.348 OA
BRANCH  18  19
HETATM   19  C   UNK N   1      28.797  17.533   6.284  0.00  0.00     0.068 A 
HETATM   20  C   UNK N   1      29.562  17.213   5.147  0.00  0.00     0.037 A 
HETATM   21  C   UNK N   1      30.957  17.042   5.263  0.00  0.00     0.010 A 
HETATM   22  C   UNK N   1      31.575  17.177   6.517  0.00  0.00    -0.056 A 
HETATM   23  C   UNK N   1      30.777  17.429   7.640  0.00  0.00     0.010 A 
HETATM   24  C   UNK N   1      29.421  17.610   7.529  0.00  0.00     0.037 A 
BRANCH  22  25
HETATM   25  C   UNK N   1      33.086  17.157   6.673  0.00  0.00     0.063 C 
BRANCH  25  26
HETATM   26  C   UNK N   1      33.465  17.058   8.169  0.00  0.00     0.153 C 
HETATM   27  S   UNK N   1      33.859  15.434   8.906  0.00  0.00    -0.054 SA
HETATM   28  C   UNK N   1      34.770  16.390  10.147  0.00  0.00     0.287 C 
HETATM   29  O   UNK N   1      35.034  15.958  11.255  0.00  0.00    -0.260 OA
HETATM   30  N   UNK N   1      35.164  17.605   9.755  0.00  0.00    -0.287 N 
HETATM   31  C   UNK N   1      34.605  17.950   8.595  0.00  0.00     0.239 C 
HETATM   32  H   UNK N   1      35.789  18.173  10.259  0.00  0.00     0.172 HD
HETATM   33  O   UNK N   1      34.997  18.912   7.957  0.00  0.00    -0.272 OA
ENDBRANCH  25  26
ENDBRANCH  22  25
ENDBRANCH  18  19
ENDBRANCH   1  18
TORSDOF 6
ENDMDL
MODEL 5
REMARK VINA RESULT:      -8.0     20.516     24.177
REMARK  6 active torsions:
REMARK  status: ('A' for Active; 'I' for Inactive)
REMARK    1  A    between atoms: C_6  and  O_7 
REMARK    2  A    between atoms: C_14  and  C_16 
REMARK    3  A    between atoms: C_16  and  O_17 
REMARK    4  A    between atoms: O_17  and  C_18 
REMARK    5  A    between atoms: C_23  and  C_24 
REMARK    6  A    between atoms: C_25  and  C_24 
ROOT
HETATM    1  C   UNK N   1      35.857   9.026  13.930  0.00  0.00     0.213 C 
ENDROOT
BRANCH   1   2
HETATM    2  C   UNK N   1      36.146   9.409  15.384  0.00  0.00     0.086 C 
HETATM    3  C   UNK N   1      35.319   8.532  16.326  0.00  0.00     0.045 C 
HETATM    4  C   UNK N   1      35.507   8.985  17.784  0.00  0.00     0.045 C 
HETATM    5  C   UNK N   1      35.471  10.492  17.916  0.00  0.00    -0.015 A 
HETATM    6  C   UNK N   1      35.312  11.100  19.174  0.00  0.00    -0.019 A 
HETATM    7  C   UNK N   1      35.583  11.295  16.762  0.00  0.00     0.083 A 
HETATM    8  C   UNK N   1      35.213  10.267  20.415  0.00  0.00     0.052 C 
HETATM    9  C   UNK N   1      35.235  12.500  19.268  0.00  0.00     0.078 A 
HETATM   10  C   UNK N   1      35.313  13.293  18.110  0.00  0.00    -0.020 A 
HETATM   11  C   UNK N   1      35.488  12.687  16.856  0.00  0.00    -0.019 A 
HETATM   12  C   UNK N   1      35.214  14.781  18.222  0.00  0.00     0.052 C 
HETATM   13  C   UNK N   1      35.580  13.515  15.613  0.00  0.00     0.052 C 
HETATM   14  O   UNK N   1      35.776  10.726  15.547  0.00  0.00    -0.337 OA
HETATM   15  C   UNK N   1      37.628   9.226  15.733  0.00  0.00     0.049 C 
BRANCH   9  16
HETATM   16  O   UNK N   1      35.079  13.085  20.472  0.00  0.00    -0.360 OA
HETATM   17  H   UNK N   1      34.468  12.763  21.104  0.00  0.00     0.217 HD
ENDBRANCH   9  16
ENDBRANCH   1   2
BRANCH   1  18
HETATM   18  O   UNK N   1      36.678   9.705  13.043  0.00  0.00    -0.348 OA
BRANCH  18  19
HETATM   19  C   UNK N   1      36.302  10.921  12.584  0.00  0.00     0.068 A 
HETATM   20  C   UNK N   1      34.947  11.226  12.365  0.00  0.00     0.037 A 
HETATM   21  C   UNK N   1      34.567  12.543  12.032  0.00  0.00     0.010 A 
HETATM   22  C   UNK N   1      35.547  13.541  11.906  0.00  0.00    -0.056 A 
HETATM   23  C   UNK N   1      36.893  13.190  12.065  0.00  0.00     0.010 A 
HETATM   24  C   UNK N   1      37.265  11.913  12.402  0.00  0.00     0.037 A 
BRANCH  22  25
HETATM   25  C   UNK N   1      35.182  15.002  11.703  0.00  0.00     0.063 C 
BRANCH  25  26
HETATM   26  C   UNK N   1      34.927  15.284  10.204  0.00  0.00     0.153 C 
HETATM   27  S   UNK N   1      33.356  14.765   9.431  0.00  0.00    -0.054 SA
HETATM   28  C   UNK N   1      33.709  16.054   8.208  0.00  0.00     0.287 C 
HETATM   29  O   UNK N   1      33.225  16.060   7.090  0.00  0.00    -0.260 OA
HETATM   30  N   UNK N   1      34.524  17.028   8.625  0.00  0.00    -0.287 N 
HETATM   31  C   UNK N   1      35.089  16.727   9.793  0.00  0.00     0.239 C 
HETATM   32  H   UNK N   1      34.686  17.864   8.130  0.00  0.00     0.172 HD
HETATM   33  O   UNK N   1      35.686  17.563  10.451  0.00  0.00    -0.272 OA
ENDBRANCH  25  26
ENDBRANCH  22  25
ENDBRANCH  18  19
ENDBRANCH   1  18
TORSDOF 6
ENDMDL
MODEL 6
REMARK VINA RESULT:      -7.9     12.243     16.000
REMARK  6 active torsions:
REMARK  status: ('A' for Active; 'I' for Inactive)
REMARK    1  A    between atoms: C_6  and  O_7 
REMARK    2  A    between atoms: C_14  and  C_16 
REMARK    3  A    between atoms: C_16  and  O_17 
REMARK    4  A    between atoms: O_17  and  C_18 
REMARK    5  A    between atoms: C_23  and  C_24 
REMARK    6  A    between atoms: C_25  and  C_24 
ROOT
HETATM    1  C   UNK N   1      28.254  16.428   6.306  0.00  0.00     0.213 C 
ENDROOT
BRANCH   1   2
HETATM    2  C   UNK N   1      27.637  17.205   5.140  0.00  0.00     0.086 C 
HETATM    3  C   UNK N   1      28.217  18.620   5.094  0.00  0.00     0.045 C 
HETATM    4  C   UNK N   1      27.519  19.450   4.003  0.00  0.00     0.045 C 
HETATM    5  C   UNK N   1      26.021  19.240   4.006  0.00  0.00    -0.015 A 
HETATM    6  C   UNK N   1      25.170  20.120   3.314  0.00  0.00    -0.019 A 
HETATM    7  C   UNK N   1      25.470  18.157   4.723  0.00  0.00     0.083 A 
HETATM    8  C   UNK N   1      25.733  21.263   2.528  0.00  0.00     0.052 C 
HETATM    9  C   UNK N   1      23.778  19.931   3.367  0.00  0.00     0.078 A 
HETATM   10  C   UNK N   1      23.235  18.871   4.112  0.00  0.00    -0.020 A 
HETATM   11  C   UNK N   1      24.085  17.983   4.790  0.00  0.00    -0.019 A 
HETATM   12  C   UNK N   1      21.751  18.690   4.174  0.00  0.00     0.052 C 
HETATM   13  C   UNK N   1      23.526  16.842   5.582  0.00  0.00     0.052 C 
HETATM   14  O   UNK N   1      26.279  17.277   5.362  0.00  0.00    -0.337 OA
HETATM   15  C   UNK N   1      27.920  16.525   3.795  0.00  0.00     0.049 C 
BRANCH   9  16
HETATM   16  O   UNK N   1      22.960  20.775   2.708  0.00  0.00    -0.360 OA
HETATM   17  H   UNK N   1      22.804  20.696   1.788  0.00  0.00     0.217 HD
ENDBRANCH   9  16
ENDBRANCH   1   2
BRANCH   1  18
HETATM   18  O   UNK N   1      29.269  15.583   5.886  0.00  0.00    -0.348 OA
BRANCH  18  19
HETATM   19  C   UNK N   1      30.538  15.810   6.296  0.00  0.00     0.068 A 
HETATM   20  C   UNK N   1      30.865  16.958   7.043  0.00  0.00     0.037 A 
HETATM   21  C   UNK N   1      32.158  17.100   7.586  0.00  0.00     0.010 A 
HETATM   22  C   UNK N   1      33.120  16.100   7.367  0.00  0.00    -0.056 A 
HETATM   23  C   UNK N   1      32.784  15.003   6.564  0.00  0.00     0.010 A 
HETATM   24  C   UNK N   1      31.523  14.855   6.045  0.00  0.00     0.037 A 
BRANCH  22  25
HETATM   25  C   UNK N   1      34.474  16.126   8.056  0.00  0.00     0.063 C 
BRANCH  25  26
HETATM   26  C   UNK N   1      34.329  15.686   9.531  0.00  0.00     0.153 C 
HETATM   27  S   UNK N   1      34.611  13.943   9.997  0.00  0.00    -0.054 SA
HETATM   28  C   UNK N   1      34.943  14.599  11.653  0.00  0.00     0.287 C 
HETATM   29  O   UNK N   1      34.857  13.925  12.664  0.00  0.00    -0.260 OA
HETATM   30  N   UNK N   1      35.321  15.880  11.694  0.00  0.00    -0.287 N 
HETATM   31  C   UNK N   1      35.159  16.477  10.514  0.00  0.00     0.239 C 
HETATM   32  H   UNK N   1      35.677  16.327  12.496  0.00  0.00     0.172 HD
HETATM   33  O   UNK N   1      35.645  17.570  10.276  0.00  0.00    -0.272 OA
ENDBRANCH  25  26
ENDBRANCH  22  25
ENDBRANCH  18  19
ENDBRANCH   1  18
TORSDOF 6
ENDMDL
MODEL 7
REMARK VINA RESULT:      -7.9      1.514      2.000
REMARK  6 active torsions:
REMARK  status: ('A' for Active; 'I' for Inactive)
REMARK    1  A    between atoms: C_6  and  O_7 
REMARK    2  A    between atoms: C_14  and  C_16 
REMARK    3  A    between atoms: C_16  and  O_17 
REMARK    4  A    between atoms: O_17  and  C_18 
REMARK    5  A    between atoms: C_23  and  C_24 
REMARK    6  A    between atoms: C_25  and  C_24 
ROOT
HETATM    1  C   UNK N   1      29.157  20.767  -8.911  0.00  0.00     0.213 C 
ENDROOT
BRANCH   1   2
HETATM    2  C   UNK N   1      30.352  20.912  -7.964  0.00  0.00     0.086 C 
HETATM    3  C   UNK N   1      30.998  19.546  -7.729  0.00  0.00     0.045 C 
HETATM    4  C   UNK N   1      32.123  19.656  -6.687  0.00  0.00     0.045 C 
HETATM    5  C   UNK N   1      31.722  20.521  -5.512  0.00  0.00    -0.015 A 
HETATM    6  C   UNK N   1      32.466  20.505  -4.319  0.00  0.00    -0.019 A 
HETATM    7  C   UNK N   1      30.580  21.343  -5.611  0.00  0.00     0.083 A 
HETATM    8  C   UNK N   1      33.694  19.656  -4.200  0.00  0.00     0.052 C 
HETATM    9  C   UNK N   1      32.049  21.283  -3.226  0.00  0.00     0.078 A 
HETATM   10  C   UNK N   1      30.890  22.072  -3.319  0.00  0.00    -0.020 A 
HETATM   11  C   UNK N   1      30.157  22.102  -4.515  0.00  0.00    -0.019 A 
HETATM   12  C   UNK N   1      30.448  22.883  -2.143  0.00  0.00     0.052 C 
HETATM   13  C   UNK N   1      28.925  22.943  -4.637  0.00  0.00     0.052 C 
HETATM   14  O   UNK N   1      29.875  21.401  -6.767  0.00  0.00    -0.337 OA
HETATM   15  C   UNK N   1      31.416  21.856  -8.537  0.00  0.00     0.049 C 
BRANCH   9  16
HETATM   16  O   UNK N   1      32.758  21.265  -2.080  0.00  0.00    -0.360 OA
HETATM   17  H   UNK N   1      32.388  21.538  -1.264  0.00  0.00     0.217 HD
ENDBRANCH   9  16
ENDBRANCH   1   2
BRANCH   1  18
HETATM   18  O   UNK N   1      28.625  21.997  -9.265  0.00  0.00    -0.348 OA
BRANCH  18  19
HETATM   19  C   UNK N   1      27.720  22.590  -8.452  0.00  0.00     0.068 A 
HETATM   20  C   UNK N   1      26.674  21.851  -7.869  0.00  0.00     0.037 A 
HETATM   21  C   UNK N   1      25.835  22.454  -6.911  0.00  0.00     0.010 A 
HETATM   22  C   UNK N   1      26.038  23.797  -6.552  0.00  0.00    -0.056 A 
HETATM   23  C   UNK N   1      27.045  24.524  -7.199  0.00  0.00     0.010 A 
HETATM   24  C   UNK N   1      27.872  23.937  -8.123  0.00  0.00     0.037 A 
BRANCH  22  25
HETATM   25  C   UNK N   1      25.267  24.450  -5.417  0.00  0.00     0.063 C 
BRANCH  25  26
HETATM   26  C   UNK N   1      25.873  25.835  -5.090  0.00  0.00     0.153 C 
HETATM   27  S   UNK N   1      24.915  27.353  -5.422  0.00  0.00    -0.054 SA
HETATM   28  C   UNK N   1      25.974  28.114  -4.165  0.00  0.00     0.287 C 
HETATM   29  O   UNK N   1      26.160  29.316  -4.092  0.00  0.00    -0.260 OA
HETATM   30  N   UNK N   1      26.524  27.264  -3.292  0.00  0.00    -0.287 N 
HETATM   31  C   UNK N   1      26.354  25.998  -3.668  0.00  0.00     0.239 C 
HETATM   32  H   UNK N   1      26.995  27.541  -2.473  0.00  0.00     0.172 HD
HETATM   33  O   UNK N   1      26.580  25.069  -2.911  0.00  0.00    -0.272 OA
ENDBRANCH  25  26
ENDBRANCH  22  25
ENDBRANCH  18  19
ENDBRANCH   1  18
TORSDOF 6
ENDMDL
MODEL 8
REMARK VINA RESULT:      -7.9     10.978     12.974
REMARK  6 active torsions:
REMARK  status: ('A' for Active; 'I' for Inactive)
REMARK    1  A    between atoms: C_6  and  O_7 
REMARK    2  A    between atoms: C_14  and  C_16 
REMARK    3  A    between atoms: C_16  and  O_17 
REMARK    4  A    between atoms: O_17  and  C_18 
REMARK    5  A    between atoms: C_23  and  C_24 
REMARK    6  A    between atoms: C_25  and  C_24 
ROOT
HETATM    1  C   UNK N   1      27.185  15.323   3.676  0.00  0.00     0.213 C 
ENDROOT
BRANCH   1   2
HETATM    2  C   UNK N   1      28.582  15.586   4.245  0.00  0.00     0.086 C 
HETATM    3  C   UNK N   1      29.245  14.262   4.629  0.00  0.00     0.045 C 
HETATM    4  C   UNK N   1      30.599  14.518   5.313  0.00  0.00     0.045 C 
HETATM    5  C   UNK N   1      30.520  15.650   6.314  0.00  0.00    -0.015 A 
HETATM    6  C   UNK N   1      31.540  15.844   7.262  0.00  0.00    -0.019 A 
HETATM    7  C   UNK N   1      29.403  16.512   6.305  0.00  0.00     0.083 A 
HETATM    8  C   UNK N   1      32.745  14.956   7.276  0.00  0.00     0.052 C 
HETATM    9  C   UNK N   1      31.425  16.875   8.211  0.00  0.00     0.078 A 
HETATM   10  C   UNK N   1      30.293  17.707   8.219  0.00  0.00    -0.020 A 
HETATM   11  C   UNK N   1      29.282  17.524   7.262  0.00  0.00    -0.019 A 
HETATM   12  C   UNK N   1      30.174  18.789   9.244  0.00  0.00     0.052 C 
HETATM   13  C   UNK N   1      28.072  18.405   7.249  0.00  0.00     0.052 C 
HETATM   14  O   UNK N   1      28.431  16.363   5.373  0.00  0.00    -0.337 OA
HETATM   15  C   UNK N   1      29.483  16.298   3.228  0.00  0.00     0.049 C 
BRANCH   9  16
HETATM   16  O   UNK N   1      32.400  17.060   9.123  0.00  0.00    -0.360 OA
HETATM   17  H   UNK N   1      33.144  17.602   8.949  0.00  0.00     0.217 HD
ENDBRANCH   9  16
ENDBRANCH   1   2
BRANCH   1  18
HETATM   18  O   UNK N   1      26.607  16.476   3.168  0.00  0.00    -0.348 OA
BRANCH  18  19
HETATM   19  C   UNK N   1      25.459  16.941   3.712  0.00  0.00     0.068 A 
HETATM   20  C   UNK N   1      25.426  18.169   4.398  0.00  0.00     0.037 A 
HETATM   21  C   UNK N   1      24.193  18.704   4.824  0.00  0.00     0.010 A 
HETATM   22  C   UNK N   1      23.004  18.000   4.576  0.00  0.00    -0.056 A 
HETATM   23  C   UNK N   1      23.077  16.749   3.951  0.00  0.00     0.010 A 
HETATM   24  C   UNK N   1      24.273  16.231   3.522  0.00  0.00     0.037 A 
BRANCH  22  25
HETATM   25  C   UNK N   1      21.640  18.600   4.873  0.00  0.00     0.063 C 
BRANCH  25  26
HETATM   26  C   UNK N   1      21.126  19.388   3.646  0.00  0.00     0.153 C 
HETATM   27  S   UNK N   1      22.302  20.303   2.590  0.00  0.00    -0.054 SA
HETATM   28  C   UNK N   1      21.032  20.150   1.307  0.00  0.00     0.287 C 
HETATM   29  O   UNK N   1      20.969  20.893   0.344  0.00  0.00    -0.260 OA
HETATM   30  N   UNK N   1      20.174  19.139   1.471  0.00  0.00    -0.287 N 
HETATM   31  C   UNK N   1      20.298  18.582   2.675  0.00  0.00     0.239 C 
HETATM   32  H   UNK N   1      19.532  18.842   0.786  0.00  0.00     0.172 HD
HETATM   33  O   UNK N   1      19.772  17.515   2.945  0.00  0.00    -0.272 OA
ENDBRANCH  25  26
ENDBRANCH  22  25
ENDBRANCH  18  19
ENDBRANCH   1  18
TORSDOF 6
ENDMDL
MODEL 9
REMARK VINA RESULT:      -7.7     16.756     20.771
REMARK  6 active torsions:
REMARK  status: ('A' for Active; 'I' for Inactive)
REMARK    1  A    between atoms: C_6  and  O_7 
REMARK    2  A    between atoms: C_14  and  C_16 
REMARK    3  A    between atoms: C_16  and  O_17 
REMARK    4  A    between atoms: O_17  and  C_18 
REMARK    5  A    between atoms: C_23  and  C_24 
REMARK    6  A    between atoms: C_25  and  C_24 
ROOT
HETATM    1  C   UNK N   1      34.273  15.762   9.642  0.00  0.00     0.213 C 
ENDROOT
BRANCH   1   2
HETATM    2  C   UNK N   1      33.595  15.710   8.270  0.00  0.00     0.086 C 
HETATM    3  C   UNK N   1      34.468  16.418   7.232  0.00  0.00     0.045 C 
HETATM    4  C   UNK N   1      33.745  16.479   5.875  0.00  0.00     0.045 C 
HETATM    5  C   UNK N   1      32.288  16.855   6.029  0.00  0.00    -0.015 A 
HETATM    6  C   UNK N   1      31.530  17.267   4.919  0.00  0.00    -0.019 A 
HETATM    7  C   UNK N   1      31.686  16.804   7.304  0.00  0.00     0.083 A 
HETATM    8  C   UNK N   1      32.142  17.307   3.553  0.00  0.00     0.052 C 
HETATM    9  C   UNK N   1      30.190  17.654   5.092  0.00  0.00     0.078 A 
HETATM   10  C   UNK N   1      29.607  17.635   6.371  0.00  0.00    -0.020 A 
HETATM   11  C   UNK N   1      30.358  17.207   7.477  0.00  0.00    -0.019 A 
HETATM   12  C   UNK N   1      28.185  18.064   6.545  0.00  0.00     0.052 C 
HETATM   13  C   UNK N   1      29.753  17.172   8.845  0.00  0.00     0.052 C 
HETATM   14  O   UNK N   1      32.390  16.371   8.377  0.00  0.00    -0.337 OA
HETATM   15  C   UNK N   1      33.369  14.267   7.805  0.00  0.00     0.049 C 
BRANCH   9  16
HETATM   16  O   UNK N   1      29.463  18.053   4.030  0.00  0.00    -0.360 OA
HETATM   17  H   UNK N   1      29.061  17.441   3.446  0.00  0.00     0.217 HD
ENDBRANCH   9  16
ENDBRANCH   1   2
BRANCH   1  18
HETATM   18  O   UNK N   1      34.851  14.549   9.980  0.00  0.00    -0.348 OA
BRANCH  18  19
HETATM   19  C   UNK N   1      35.167  14.298  11.272  0.00  0.00     0.068 A 
HETATM   20  C   UNK N   1      34.904  13.043  11.852  0.00  0.00     0.037 A 
HETATM   21  C   UNK N   1      35.376  12.756  13.149  0.00  0.00     0.010 A 
HETATM   22  C   UNK N   1      36.094  13.730  13.863  0.00  0.00    -0.056 A 
HETATM   23  C   UNK N   1      36.280  14.991  13.284  0.00  0.00     0.010 A 
HETATM   24  C   UNK N   1      35.834  15.270  12.016  0.00  0.00     0.037 A 
BRANCH  22  25
HETATM   25  C   UNK N   1      36.757  13.422  15.195  0.00  0.00     0.063 C 
BRANCH  25  26
HETATM   26  C   UNK N   1      35.840  12.515  16.049  0.00  0.00     0.153 C 
HETATM   27  S   UNK N   1      36.321  10.785  16.383  0.00  0.00    -0.054 SA
HETATM   28  C   UNK N   1      35.229  10.920  17.822  0.00  0.00     0.287 C 
HETATM   29  O   UNK N   1      34.738   9.953  18.376  0.00  0.00    -0.260 OA
HETATM   30  N   UNK N   1      35.016  12.164  18.262  0.00  0.00    -0.287 N 
HETATM   31  C   UNK N   1      35.479  13.073  17.404  0.00  0.00     0.239 C 
HETATM   32  H   UNK N   1      34.574  12.382  19.114  0.00  0.00     0.172 HD
HETATM   33  O   UNK N   1      35.586  14.248  17.711  0.00  0.00    -0.272 OA
ENDBRANCH  25  26
ENDBRANCH  22  25
ENDBRANCH  18  19
ENDBRANCH   1  18
TORSDOF 6
ENDMDL
