MODEL 1
REMARK VINA RESULT:      -7.4      0.000      0.000
REMARK  4 active torsions:
REMARK  status: ('A' for Active; 'I' for Inactive)
REMARK       I    between atoms: N_1  and  C_2 
REMARK    1  A    between atoms: C_2  and  C_5 
REMARK    2  A    between atoms: C_5  and  C_10 
REMARK    3  A    between atoms: C_5  and  O_12 
REMARK       I    between atoms: N_13  and  C_18 
REMARK    4  A    between atoms: C_18  and  C_19 
ROOT
HETATM    1  C   UNK N   1      21.705  13.029   8.250  0.00  0.00     0.032 C 
HETATM    2  C   UNK N   1      20.841  13.394   9.282  0.00  0.00     0.018 C 
HETATM    3  C   UNK N   1      22.960  12.476   8.543  0.00  0.00     0.018 C 
HETATM    4  C   UNK N   1      21.193  13.103  10.602  0.00  0.00     0.024 C 
HETATM    5  C   UNK N   1      23.287  12.149   9.842  0.00  0.00     0.024 C 
HETATM    6  C   UNK N   1      22.394  12.426  10.864  0.00  0.00     0.044 C 
HETATM    7  C   UNK N   1      22.732  11.980  12.174  0.00  0.00     0.099 C 
HETATM    8  N   UNK N   1      23.059  11.597  13.213  0.00  0.00    -0.191 NA
ENDROOT
BRANCH   1   9
HETATM    9  C   UNK N   1      21.166  12.903   6.895  0.00  0.00     0.254 C 
HETATM   10  N   UNK N   1      21.248  13.947   5.994  0.00  0.00    -0.340 N 
HETATM   11  C   UNK N   1      20.554  13.794   4.736  0.00  0.00     0.151 C 
HETATM   12  C   UNK N   1      21.850  15.261   6.302  0.00  0.00     0.101 C 
HETATM   13  C   UNK N   1      19.901  15.077   4.184  0.00  0.00     0.101 C 
HETATM   14  N   UNK N   1      20.233  16.338   4.903  0.00  0.00    -0.341 N 
HETATM   15  C   UNK N   1      20.528  15.110   2.790  0.00  0.00     0.034 C 
HETATM   16  C   UNK N   1      20.150  17.532   4.234  0.00  0.00     0.263 C 
HETATM   17  C   UNK N   1      20.832  16.321   6.213  0.00  0.00     0.151 C 
HETATM   18  O   UNK N   1      19.407  17.616   3.264  0.00  0.00    -0.270 OA
HETATM   19  C   UNK N   1      23.306  15.662   6.438  0.00  0.00     0.034 C 
HETATM   20  O   UNK N   1      20.676  11.834   6.555  0.00  0.00    -0.267 OA
BRANCH  16  21
HETATM   21  C   UNK N   1      21.233  18.621   4.414  0.00  0.00     0.233 C 
HETATM   22  C   UNK N   1      20.782  19.824   3.588  0.00  0.00     0.066 C 
BRANCH  21  23
HETATM   23  C   UNK N   1      22.729  18.375   4.113  0.00  0.00     0.427 C 
HETATM   24  F   UNK N   1      23.154  19.372   3.240  0.00  0.00    -0.167 F 
HETATM   25  F   UNK N   1      22.982  17.158   3.511  0.00  0.00    -0.167 F 
HETATM   26  F   UNK N   1      23.483  18.483   5.266  0.00  0.00    -0.167 F 
ENDBRANCH  21  23
BRANCH  21  27
HETATM   27  O   UNK N   1      21.166  19.033   5.746  0.00  0.00    -0.373 OA
HETATM   28  H   UNK N   1      20.336  19.257   6.193  0.00  0.00     0.211 HD
ENDBRANCH  21  27
ENDBRANCH  16  21
ENDBRANCH   1   9
TORSDOF 4
ENDMDL
MODEL 2
REMARK VINA RESULT:      -7.3     12.970     15.251
REMARK  4 active torsions:
REMARK  status: ('A' for Active; 'I' for Inactive)
REMARK       I    between atoms: N_1  and  C_2 
REMARK    1  A    between atoms: C_2  and  C_5 
REMARK    2  A    between atoms: C_5  and  C_10 
REMARK    3  A    between atoms: C_5  and  O_12 
REMARK       I    between atoms: N_13  and  C_18 
REMARK    4  A    between atoms: C_18  and  C_19 
ROOT
HETATM    1  C   UNK N   1      33.629  16.521   6.829  0.00  0.00     0.032 C 
HETATM    2  C   UNK N   1      32.330  16.059   6.620  0.00  0.00     0.018 C 
HETATM    3  C   UNK N   1      33.858  17.646   7.632  0.00  0.00     0.018 C 
HETATM    4  C   UNK N   1      31.273  16.663   7.305  0.00  0.00     0.024 C 
HETATM    5  C   UNK N   1      32.821  18.212   8.343  0.00  0.00     0.024 C 
HETATM    6  C   UNK N   1      31.540  17.701   8.211  0.00  0.00     0.044 C 
HETATM    7  C   UNK N   1      30.521  18.252   9.039  0.00  0.00     0.099 C 
HETATM    8  N   UNK N   1      29.736  18.739   9.733  0.00  0.00    -0.191 NA
ENDROOT
BRANCH   1   9
HETATM    9  C   UNK N   1      34.749  15.637   6.500  0.00  0.00     0.254 C 
HETATM   10  N   UNK N   1      35.274  14.769   7.440  0.00  0.00    -0.340 N 
HETATM   11  C   UNK N   1      36.474  14.049   7.080  0.00  0.00     0.151 C 
HETATM   12  C   UNK N   1      34.788  14.663   8.831  0.00  0.00     0.101 C 
HETATM   13  C   UNK N   1      37.486  13.844   8.225  0.00  0.00     0.101 C 
HETATM   14  N   UNK N   1      37.019  14.232   9.584  0.00  0.00    -0.341 N 
HETATM   15  C   UNK N   1      37.649  12.326   8.160  0.00  0.00     0.034 C 
HETATM   16  C   UNK N   1      37.589  13.641  10.682  0.00  0.00     0.263 C 
HETATM   17  C   UNK N   1      35.851  15.053   9.773  0.00  0.00     0.151 C 
HETATM   18  O   UNK N   1      38.720  13.180  10.585  0.00  0.00    -0.270 OA
HETATM   19  C   UNK N   1      33.530  14.019   9.381  0.00  0.00     0.034 C 
HETATM   20  O   UNK N   1      35.189  15.646   5.358  0.00  0.00    -0.267 OA
BRANCH  16  21
HETATM   21  C   UNK N   1      36.725  13.191  11.883  0.00  0.00     0.233 C 
HETATM   22  C   UNK N   1      35.791  12.101  11.363  0.00  0.00     0.066 C 
BRANCH  21  23
HETATM   23  C   UNK N   1      35.881  14.175  12.726  0.00  0.00     0.427 C 
HETATM   24  F   UNK N   1      35.994  13.794  14.059  0.00  0.00    -0.167 F 
HETATM   25  F   UNK N   1      34.538  14.172  12.403  0.00  0.00    -0.167 F 
HETATM   26  F   UNK N   1      36.377  15.460  12.617  0.00  0.00    -0.167 F 
ENDBRANCH  21  23
BRANCH  21  27
HETATM   27  O   UNK N   1      37.587  12.553  12.777  0.00  0.00    -0.373 OA
HETATM   28  H   UNK N   1      37.693  11.590  12.819  0.00  0.00     0.211 HD
ENDBRANCH  21  27
ENDBRANCH  16  21
ENDBRANCH   1   9
TORSDOF 4
ENDMDL
MODEL 3
REMARK VINA RESULT:      -7.3      7.811      9.166
REMARK  4 active torsions:
REMARK  status: ('A' for Active; 'I' for Inactive)
REMARK       I    between atoms: N_1  and  C_2 
REMARK    1  A    between atoms: C_2  and  C_5 
REMARK    2  A    between atoms: C_5  and  C_10 
REMARK    3  A    between atoms: C_5  and  O_12 
REMARK       I    between atoms: N_13  and  C_18 
REMARK    4  A    between atoms: C_18  and  C_19 
ROOT
HETATM    1  C   UNK N   1      32.221  15.213   6.631  0.00  0.00     0.032 C 
HETATM    2  C   UNK N   1      33.346  15.590   5.898  0.00  0.00     0.018 C 
HETATM    3  C   UNK N   1      31.989  15.760   7.900  0.00  0.00     0.018 C 
HETATM    4  C   UNK N   1      34.177  16.597   6.395  0.00  0.00     0.024 C 
HETATM    5  C   UNK N   1      32.784  16.785   8.368  0.00  0.00     0.024 C 
HETATM    6  C   UNK N   1      33.851  17.228   7.604  0.00  0.00     0.044 C 
HETATM    7  C   UNK N   1      34.582  18.354   8.082  0.00  0.00     0.099 C 
HETATM    8  N   UNK N   1      35.139  19.266   8.520  0.00  0.00    -0.191 NA
ENDROOT
BRANCH   1   9
HETATM    9  C   UNK N   1      31.129  14.527   5.937  0.00  0.00     0.254 C 
HETATM   10  N   UNK N   1      30.053  15.230   5.429  0.00  0.00    -0.340 N 
HETATM   11  C   UNK N   1      28.950  14.462   4.900  0.00  0.00     0.151 C 
HETATM   12  C   UNK N   1      29.890  16.693   5.548  0.00  0.00     0.101 C 
HETATM   13  C   UNK N   1      27.550  15.051   5.167  0.00  0.00     0.101 C 
HETATM   14  N   UNK N   1      27.520  16.419   5.752  0.00  0.00    -0.341 N 
HETATM   15  C   UNK N   1      27.011  15.101   3.737  0.00  0.00     0.034 C 
HETATM   16  C   UNK N   1      26.418  17.209   5.553  0.00  0.00     0.263 C 
HETATM   17  C   UNK N   1      28.693  17.010   6.345  0.00  0.00     0.151 C 
HETATM   18  O   UNK N   1      25.342  16.674   5.318  0.00  0.00    -0.270 OA
HETATM   19  C   UNK N   1      30.587  17.819   4.808  0.00  0.00     0.034 C 
HETATM   20  O   UNK N   1      31.206  13.317   5.773  0.00  0.00    -0.267 OA
BRANCH  16  21
HETATM   21  C   UNK N   1      26.565  18.714   5.225  0.00  0.00     0.233 C 
HETATM   22  C   UNK N   1      25.151  19.267   5.072  0.00  0.00     0.066 C 
BRANCH  21  23
HETATM   23  C   UNK N   1      27.408  19.236   4.039  0.00  0.00     0.427 C 
HETATM   24  F   UNK N   1      27.866  18.131   3.327  0.00  0.00    -0.167 F 
HETATM   25  F   UNK N   1      28.512  19.972   4.423  0.00  0.00    -0.167 F 
HETATM   26  F   UNK N   1      26.630  19.989   3.181  0.00  0.00    -0.167 F 
ENDBRANCH  21  23
BRANCH  21  27
HETATM   27  O   UNK N   1      27.086  19.321   6.369  0.00  0.00    -0.373 OA
HETATM   28  H   UNK N   1      27.896  19.021   6.809  0.00  0.00     0.211 HD
ENDBRANCH  21  27
ENDBRANCH  16  21
ENDBRANCH   1   9
TORSDOF 4
ENDMDL
MODEL 4
REMARK VINA RESULT:      -7.2     16.062     17.826
REMARK  4 active torsions:
REMARK  status: ('A' for Active; 'I' for Inactive)
REMARK       I    between atoms: N_1  and  C_2 
REMARK    1  A    between atoms: C_2  and  C_5 
REMARK    2  A    between atoms: C_5  and  C_10 
REMARK    3  A    between atoms: C_5  and  O_12 
REMARK       I    between atoms: N_13  and  C_18 
REMARK    4  A    between atoms: C_18  and  C_19 
ROOT
HETATM    1  C   UNK N   1      26.142  26.212  -6.554  0.00  0.00     0.032 C 
HETATM    2  C   UNK N   1      25.171  26.354  -5.563  0.00  0.00     0.018 C 
HETATM    3  C   UNK N   1      27.062  27.243  -6.792  0.00  0.00     0.018 C 
HETATM    4  C   UNK N   1      25.195  27.483  -4.740  0.00  0.00     0.024 C 
HETATM    5  C   UNK N   1      27.113  28.334  -5.951  0.00  0.00     0.024 C 
HETATM    6  C   UNK N   1      26.209  28.437  -4.906  0.00  0.00     0.044 C 
HETATM    7  C   UNK N   1      26.364  29.530  -4.006  0.00  0.00     0.099 C 
HETATM    8  N   UNK N   1      26.536  30.436  -3.311  0.00  0.00    -0.191 NA
ENDROOT
BRANCH   1   9
HETATM    9  C   UNK N   1      26.409  24.876  -7.089  0.00  0.00     0.254 C 
HETATM   10  N   UNK N   1      27.406  24.080  -6.557  0.00  0.00    -0.340 N 
HETATM   11  C   UNK N   1      27.705  22.844  -7.244  0.00  0.00     0.151 C 
HETATM   12  C   UNK N   1      28.288  24.489  -5.445  0.00  0.00     0.101 C 
HETATM   13  C   UNK N   1      29.195  22.451  -7.271  0.00  0.00     0.101 C 
HETATM   14  N   UNK N   1      30.102  23.275  -6.427  0.00  0.00    -0.341 N 
HETATM   15  C   UNK N   1      29.103  21.041  -6.688  0.00  0.00     0.034 C 
HETATM   16  C   UNK N   1      31.279  22.732  -5.980  0.00  0.00     0.263 C 
HETATM   17  C   UNK N   1      29.687  24.550  -5.899  0.00  0.00     0.151 C 
HETATM   18  O   UNK N   1      31.780  21.808  -6.608  0.00  0.00    -0.270 OA
HETATM   19  C   UNK N   1      28.001  24.601  -3.960  0.00  0.00     0.034 C 
HETATM   20  O   UNK N   1      25.701  24.454  -7.993  0.00  0.00    -0.267 OA
BRANCH  16  21
HETATM   21  C   UNK N   1      31.766  22.971  -4.531  0.00  0.00     0.233 C 
HETATM   22  C   UNK N   1      33.166  22.370  -4.437  0.00  0.00     0.066 C 
BRANCH  21  23
HETATM   23  C   UNK N   1      30.968  22.508  -3.290  0.00  0.00     0.427 C 
HETATM   24  F   UNK N   1      31.780  21.640  -2.566  0.00  0.00    -0.167 F 
HETATM   25  F   UNK N   1      29.804  21.832  -3.598  0.00  0.00    -0.167 F 
HETATM   26  F   UNK N   1      30.673  23.581  -2.471  0.00  0.00    -0.167 F 
ENDBRANCH  21  23
BRANCH  21  27
HETATM   27  O   UNK N   1      31.938  24.349  -4.391  0.00  0.00    -0.373 OA
HETATM   28  H   UNK N   1      32.346  24.907  -5.072  0.00  0.00     0.211 HD
ENDBRANCH  21  27
ENDBRANCH  16  21
ENDBRANCH   1   9
TORSDOF 4
ENDMDL
MODEL 5
REMARK VINA RESULT:      -7.1     12.659     14.394
REMARK  4 active torsions:
REMARK  status: ('A' for Active; 'I' for Inactive)
REMARK       I    between atoms: N_1  and  C_2 
REMARK    1  A    between atoms: C_2  and  C_5 
REMARK    2  A    between atoms: C_5  and  C_10 
REMARK    3  A    between atoms: C_5  and  O_12 
REMARK       I    between atoms: N_13  and  C_18 
REMARK    4  A    between atoms: C_18  and  C_19 
ROOT
HETATM    1  C   UNK N   1      35.916  13.394  13.743  0.00  0.00     0.032 C 
HETATM    2  C   UNK N   1      34.820  12.706  14.263  0.00  0.00     0.018 C 
HETATM    3  C   UNK N   1      36.706  14.196  14.578  0.00  0.00     0.018 C 
HETATM    4  C   UNK N   1      34.584  12.738  15.639  0.00  0.00     0.024 C 
HETATM    5  C   UNK N   1      36.500  14.191  15.941  0.00  0.00     0.024 C 
HETATM    6  C   UNK N   1      35.468  13.437  16.475  0.00  0.00     0.044 C 
HETATM    7  C   UNK N   1      35.356  13.384  17.894  0.00  0.00     0.099 C 
HETATM    8  N   UNK N   1      35.312  13.379  19.049  0.00  0.00    -0.191 NA
ENDROOT
BRANCH   1   9
HETATM    9  C   UNK N   1      36.431  13.003  12.429  0.00  0.00     0.254 C 
HETATM   10  N   UNK N   1      36.064  13.688  11.286  0.00  0.00    -0.340 N 
HETATM   11  C   UNK N   1      36.492  13.141  10.019  0.00  0.00     0.151 C 
HETATM   12  C   UNK N   1      35.130  14.833  11.271  0.00  0.00     0.101 C 
HETATM   13  C   UNK N   1      35.478  13.279   8.867  0.00  0.00     0.101 C 
HETATM   14  N   UNK N   1      34.285  14.124   9.147  0.00  0.00    -0.341 N 
HETATM   15  C   UNK N   1      36.357  13.974   7.827  0.00  0.00     0.034 C 
HETATM   16  C   UNK N   1      33.625  14.718   8.102  0.00  0.00     0.263 C 
HETATM   17  C   UNK N   1      33.927  14.499  10.491  0.00  0.00     0.151 C 
HETATM   18  O   UNK N   1      33.712  14.220   6.987  0.00  0.00    -0.270 OA
HETATM   19  C   UNK N   1      35.340  16.272  11.702  0.00  0.00     0.034 C 
HETATM   20  O   UNK N   1      37.233  12.081  12.363  0.00  0.00    -0.267 OA
BRANCH  16  21
HETATM   21  C   UNK N   1      33.121  16.177   8.206  0.00  0.00     0.233 C 
HETATM   22  C   UNK N   1      32.029  16.337   7.151  0.00  0.00     0.066 C 
BRANCH  21  23
HETATM   23  C   UNK N   1      34.062  17.399   8.101  0.00  0.00     0.427 C 
HETATM   24  F   UNK N   1      34.562  17.438   6.803  0.00  0.00    -0.167 F 
HETATM   25  F   UNK N   1      35.141  17.345   8.962  0.00  0.00    -0.167 F 
HETATM   26  F   UNK N   1      33.364  18.573   8.313  0.00  0.00    -0.167 F 
ENDBRANCH  21  23
BRANCH  21  27
HETATM   27  O   UNK N   1      32.475  16.289   9.437  0.00  0.00    -0.373 OA
HETATM   28  H   UNK N   1      32.115  15.529   9.921  0.00  0.00     0.211 HD
ENDBRANCH  21  27
ENDBRANCH  16  21
ENDBRANCH   1   9
TORSDOF 4
ENDMDL
MODEL 6
REMARK VINA RESULT:      -6.9      8.486     11.369
REMARK  4 active torsions:
REMARK  status: ('A' for Active; 'I' for Inactive)
REMARK       I    between atoms: N_1  and  C_2 
REMARK    1  A    between atoms: C_2  and  C_5 
REMARK    2  A    between atoms: C_5  and  C_10 
REMARK    3  A    between atoms: C_5  and  O_12 
REMARK       I    between atoms: N_13  and  C_18 
REMARK    4  A    between atoms: C_18  and  C_19 
ROOT
HETATM    1  C   UNK N   1      27.994  18.667   5.438  0.00  0.00     0.032 C 
HETATM    2  C   UNK N   1      26.922  17.855   5.069  0.00  0.00     0.018 C 
HETATM    3  C   UNK N   1      28.171  19.920   4.835  0.00  0.00     0.018 C 
HETATM    4  C   UNK N   1      25.969  18.348   4.175  0.00  0.00     0.024 C 
HETATM    5  C   UNK N   1      27.207  20.423   3.988  0.00  0.00     0.024 C 
HETATM    6  C   UNK N   1      26.091  19.658   3.687  0.00  0.00     0.044 C 
HETATM    7  C   UNK N   1      25.076  20.258   2.889  0.00  0.00     0.099 C 
HETATM    8  N   UNK N   1      24.288  20.795   2.237  0.00  0.00    -0.191 NA
ENDROOT
BRANCH   1   9
HETATM    9  C   UNK N   1      28.711  18.361   6.677  0.00  0.00     0.254 C 
HETATM   10  N   UNK N   1      29.882  17.628   6.662  0.00  0.00    -0.340 N 
HETATM   11  C   UNK N   1      30.438  17.240   7.938  0.00  0.00     0.151 C 
HETATM   12  C   UNK N   1      30.499  17.078   5.437  0.00  0.00     0.101 C 
HETATM   13  C   UNK N   1      31.086  15.841   7.975  0.00  0.00     0.101 C 
HETATM   14  N   UNK N   1      31.235  15.157   6.662  0.00  0.00    -0.341 N 
HETATM   15  C   UNK N   1      32.469  16.208   8.514  0.00  0.00     0.034 C 
HETATM   16  C   UNK N   1      32.212  14.207   6.508  0.00  0.00     0.263 C 
HETATM   17  C   UNK N   1      30.521  15.606   5.494  0.00  0.00     0.151 C 
HETATM   18  O   UNK N   1      32.625  13.619   7.499  0.00  0.00    -0.270 OA
HETATM   19  C   UNK N   1      31.276  17.773   4.336  0.00  0.00     0.034 C 
HETATM   20  O   UNK N   1      28.278  18.807   7.731  0.00  0.00    -0.267 OA
BRANCH  16  21
HETATM   21  C   UNK N   1      33.065  14.144   5.220  0.00  0.00     0.233 C 
HETATM   22  C   UNK N   1      33.886  12.860   5.303  0.00  0.00     0.066 C 
BRANCH  21  23
HETATM   23  C   UNK N   1      34.015  15.285   4.786  0.00  0.00     0.427 C 
HETATM   24  F   UNK N   1      35.309  14.776   4.774  0.00  0.00    -0.167 F 
HETATM   25  F   UNK N   1      34.002  16.373   5.637  0.00  0.00    -0.167 F 
HETATM   26  F   UNK N   1      33.721  15.703   3.502  0.00  0.00    -0.167 F 
ENDBRANCH  21  23
BRANCH  21  27
HETATM   27  O   UNK N   1      32.176  13.955   4.162  0.00  0.00    -0.373 OA
HETATM   28  H   UNK N   1      31.715  13.118   3.997  0.00  0.00     0.211 HD
ENDBRANCH  21  27
ENDBRANCH  16  21
ENDBRANCH   1   9
TORSDOF 4
ENDMDL
MODEL 7
REMARK VINA RESULT:      -6.7     11.780     14.541
REMARK  4 active torsions:
REMARK  status: ('A' for Active; 'I' for Inactive)
REMARK       I    between atoms: N_1  and  C_2 
REMARK    1  A    between atoms: C_2  and  C_5 
REMARK    2  A    between atoms: C_5  and  C_10 
REMARK    3  A    between atoms: C_5  and  O_12 
REMARK       I    between atoms: N_13  and  C_18 
REMARK    4  A    between atoms: C_18  and  C_19 
ROOT
HETATM    1  C   UNK N   1      32.948  17.553   6.838  0.00  0.00     0.032 C 
HETATM    2  C   UNK N   1      33.499  17.503   5.558  0.00  0.00     0.018 C 
HETATM    3  C   UNK N   1      31.642  17.094   7.062  0.00  0.00     0.018 C 
HETATM    4  C   UNK N   1      32.779  16.893   4.528  0.00  0.00     0.024 C 
HETATM    5  C   UNK N   1      30.951  16.452   6.057  0.00  0.00     0.024 C 
HETATM    6  C   UNK N   1      31.529  16.317   4.805  0.00  0.00     0.044 C 
HETATM    7  C   UNK N   1      30.820  15.561   3.829  0.00  0.00     0.099 C 
HETATM    8  N   UNK N   1      30.200  14.940   3.078  0.00  0.00    -0.191 NA
ENDROOT
BRANCH   1   9
HETATM    9  C   UNK N   1      33.842  17.754   7.980  0.00  0.00     0.254 C 
HETATM   10  N   UNK N   1      34.393  16.680   8.654  0.00  0.00    -0.340 N 
HETATM   11  C   UNK N   1      35.135  16.964   9.860  0.00  0.00     0.151 C 
HETATM   12  C   UNK N   1      34.128  15.267   8.315  0.00  0.00     0.101 C 
HETATM   13  C   UNK N   1      34.973  15.929  10.991  0.00  0.00     0.101 C 
HETATM   14  N   UNK N   1      34.243  14.683  10.634  0.00  0.00    -0.341 N 
HETATM   15  C   UNK N   1      36.442  15.598  11.254  0.00  0.00     0.034 C 
HETATM   16  C   UNK N   1      34.483  13.538  11.349  0.00  0.00     0.263 C 
HETATM   17  C   UNK N   1      33.450  14.592   9.434  0.00  0.00     0.151 C 
HETATM   18  O   UNK N   1      34.905  13.634  12.494  0.00  0.00    -0.270 OA
HETATM   19  C   UNK N   1      34.645  14.423   7.165  0.00  0.00     0.034 C 
HETATM   20  O   UNK N   1      34.132  18.898   8.303  0.00  0.00    -0.267 OA
BRANCH  16  21
HETATM   21  C   UNK N   1      34.616  12.170  10.640  0.00  0.00     0.233 C 
HETATM   22  C   UNK N   1      34.698  11.115  11.741  0.00  0.00     0.066 C 
BRANCH  21  23
HETATM   23  C   UNK N   1      35.727  11.863   9.609  0.00  0.00     0.427 C 
HETATM   24  F   UNK N   1      36.481  10.804  10.102  0.00  0.00    -0.167 F 
HETATM   25  F   UNK N   1      36.587  12.921   9.388  0.00  0.00    -0.167 F 
HETATM   26  F   UNK N   1      35.179  11.459   8.406  0.00  0.00    -0.167 F 
ENDBRANCH  21  23
BRANCH  21  27
HETATM   27  O   UNK N   1      33.405  11.939   9.987  0.00  0.00    -0.373 OA
HETATM   28  H   UNK N   1      32.968  12.600   9.427  0.00  0.00     0.211 HD
ENDBRANCH  21  27
ENDBRANCH  16  21
ENDBRANCH   1   9
TORSDOF 4
ENDMDL
MODEL 8
REMARK VINA RESULT:      -6.6     12.206     13.711
REMARK  4 active torsions:
REMARK  status: ('A' for Active; 'I' for Inactive)
REMARK       I    between atoms: N_1  and  C_2 
REMARK    1  A    between atoms: C_2  and  C_5 
REMARK    2  A    between atoms: C_5  and  C_10 
REMARK    3  A    between atoms: C_5  and  O_12 
REMARK       I    between atoms: N_13  and  C_18 
REMARK    4  A    between atoms: C_18  and  C_19 
ROOT
HETATM    1  C   UNK N   1      35.956  13.769  11.050  0.00  0.00     0.032 C 
HETATM    2  C   UNK N   1      37.276  13.455  10.727  0.00  0.00     0.018 C 
HETATM    3  C   UNK N   1      35.185  12.879  11.811  0.00  0.00     0.018 C 
HETATM    4  C   UNK N   1      37.853  12.300  11.260  0.00  0.00     0.024 C 
HETATM    5  C   UNK N   1      35.768  11.764  12.373  0.00  0.00     0.024 C 
HETATM    6  C   UNK N   1      37.105  11.494  12.132  0.00  0.00     0.044 C 
HETATM    7  C   UNK N   1      37.688  10.388  12.814  0.00  0.00     0.099 C 
HETATM    8  N   UNK N   1      38.106   9.479  13.392  0.00  0.00    -0.191 NA
ENDROOT
BRANCH   1   9
HETATM    9  C   UNK N   1      35.505  15.153  10.892  0.00  0.00     0.254 C 
HETATM   10  N   UNK N   1      34.750  15.538   9.801  0.00  0.00    -0.340 N 
HETATM   11  C   UNK N   1      34.482  16.949   9.644  0.00  0.00     0.151 C 
HETATM   12  C   UNK N   1      34.351  14.628   8.707  0.00  0.00     0.101 C 
HETATM   13  C   UNK N   1      34.482  17.462   8.190  0.00  0.00     0.101 C 
HETATM   14  N   UNK N   1      34.558  16.418   7.132  0.00  0.00    -0.341 N 
HETATM   15  C   UNK N   1      33.107  18.127   8.148  0.00  0.00     0.034 C 
HETATM   16  C   UNK N   1      34.061  16.693   5.884  0.00  0.00     0.263 C 
HETATM   17  C   UNK N   1      34.949  15.065   7.435  0.00  0.00     0.151 C 
HETATM   18  O   UNK N   1      33.990  17.860   5.519  0.00  0.00    -0.270 OA
HETATM   19  C   UNK N   1      33.292  13.543   8.676  0.00  0.00     0.034 C 
HETATM   20  O   UNK N   1      35.772  15.961  11.771  0.00  0.00    -0.267 OA
BRANCH  16  21
HETATM   21  C   UNK N   1      33.239  15.639   5.105  0.00  0.00     0.233 C 
HETATM   22  C   UNK N   1      33.012  16.210   3.707  0.00  0.00     0.066 C 
BRANCH  21  23
HETATM   23  C   UNK N   1      31.889  15.084   5.614  0.00  0.00     0.427 C 
HETATM   24  F   UNK N   1      30.918  15.404   4.670  0.00  0.00    -0.167 F 
HETATM   25  F   UNK N   1      31.489  15.619   6.823  0.00  0.00    -0.167 F 
HETATM   26  F   UNK N   1      31.934  13.707   5.713  0.00  0.00    -0.167 F 
ENDBRANCH  21  23
BRANCH  21  27
HETATM   27  O   UNK N   1      34.073  14.534   4.929  0.00  0.00    -0.373 OA
HETATM   28  H   UNK N   1      33.741  13.630   4.816  0.00  0.00     0.211 HD
ENDBRANCH  21  27
ENDBRANCH  16  21
ENDBRANCH   1   9
TORSDOF 4
ENDMDL
MODEL 9
REMARK VINA RESULT:      -6.3      4.939      7.368
REMARK  4 active torsions:
REMARK  status: ('A' for Active; 'I' for Inactive)
REMARK       I    between atoms: N_1  and  C_2 
REMARK    1  A    between atoms: C_2  and  C_5 
REMARK    2  A    between atoms: C_5  and  C_10 
REMARK    3  A    between atoms: C_5  and  O_12 
REMARK       I    between atoms: N_13  and  C_18 
REMARK    4  A    between atoms: C_18  and  C_19 
ROOT
HETATM    1  C   UNK N   1      21.267  18.917   3.577  0.00  0.00     0.032 C 
HETATM    2  C   UNK N   1      20.656  18.231   2.527  0.00  0.00     0.018 C 
HETATM    3  C   UNK N   1      21.036  18.529   4.903  0.00  0.00     0.018 C 
HETATM    4  C   UNK N   1      19.903  17.089   2.807  0.00  0.00     0.024 C 
HETATM    5  C   UNK N   1      20.330  17.376   5.174  0.00  0.00     0.024 C 
HETATM    6  C   UNK N   1      19.797  16.637   4.131  0.00  0.00     0.044 C 
HETATM    7  C   UNK N   1      19.162  15.403   4.453  0.00  0.00     0.099 C 
HETATM    8  N   UNK N   1      18.658  14.415   4.773  0.00  0.00    -0.191 NA
ENDROOT
BRANCH   1   9
HETATM    9  C   UNK N   1      22.397  19.799   3.275  0.00  0.00     0.254 C 
HETATM   10  N   UNK N   1      23.698  19.399   3.515  0.00  0.00    -0.340 N 
HETATM   11  C   UNK N   1      24.738  20.385   3.336  0.00  0.00     0.151 C 
HETATM   12  C   UNK N   1      24.069  18.093   4.099  0.00  0.00     0.101 C 
HETATM   13  C   UNK N   1      25.900  20.306   4.347  0.00  0.00     0.101 C 
HETATM   14  N   UNK N   1      25.904  19.118   5.243  0.00  0.00    -0.341 N 
HETATM   15  C   UNK N   1      27.081  20.217   3.382  0.00  0.00     0.034 C 
HETATM   16  C   UNK N   1      27.090  18.690   5.782  0.00  0.00     0.263 C 
HETATM   17  C   UNK N   1      24.738  18.286   5.396  0.00  0.00     0.151 C 
HETATM   18  O   UNK N   1      28.007  19.492   5.907  0.00  0.00    -0.270 OA
HETATM   19  C   UNK N   1      24.078  16.710   3.475  0.00  0.00     0.034 C 
HETATM   20  O   UNK N   1      22.172  20.887   2.763  0.00  0.00    -0.267 OA
BRANCH  16  21
HETATM   21  C   UNK N   1      27.432  17.183   5.859  0.00  0.00     0.233 C 
HETATM   22  C   UNK N   1      28.684  17.064   6.723  0.00  0.00     0.066 C 
BRANCH  21  23
HETATM   23  C   UNK N   1      27.638  16.304   4.604  0.00  0.00     0.427 C 
HETATM   24  F   UNK N   1      28.981  15.942   4.557  0.00  0.00    -0.167 F 
HETATM   25  F   UNK N   1      27.338  16.947   3.419  0.00  0.00    -0.167 F 
HETATM   26  F   UNK N   1      26.898  15.141   4.695  0.00  0.00    -0.167 F 
ENDBRANCH  21  23
BRANCH  21  27
HETATM   27  O   UNK N   1      26.409  16.580   6.592  0.00  0.00    -0.373 OA
HETATM   28  H   UNK N   1      25.580  17.030   6.820  0.00  0.00     0.211 HD
ENDBRANCH  21  27
ENDBRANCH  16  21
ENDBRANCH   1   9
TORSDOF 4
ENDMDL
