REMARK  4 active torsions:
REMARK  status: ('A' for Active; 'I' for Inactive)
REMARK       I    between atoms: N_1  and  C_2 
REMARK    1  A    between atoms: C_2  and  C_5 
REMARK    2  A    between atoms: C_5  and  C_10 
REMARK    3  A    between atoms: C_5  and  O_12 
REMARK       I    between atoms: N_13  and  C_18 
REMARK    4  A    between atoms: C_18  and  C_19 
ROOT
HETATM    1  C   UNK N   1      -2.670  -1.701  -0.326  0.00  0.00     0.032 C 
HETATM    2  C   UNK N   1      -3.732  -1.940   0.546  0.00  0.00     0.018 C 
HETATM    3  C   UNK N   1      -2.694  -0.589  -1.179  0.00  0.00     0.018 C 
HETATM    4  C   UNK N   1      -4.764  -1.003   0.637  0.00  0.00     0.024 C 
HETATM    5  C   UNK N   1      -3.689   0.357  -1.056  0.00  0.00     0.024 C 
HETATM    6  C   UNK N   1      -4.700   0.172  -0.127  0.00  0.00     0.044 C 
HETATM    7  C   UNK N   1      -5.649   1.222   0.033  0.00  0.00     0.099 C 
HETATM    8  N   UNK N   1      -6.390   2.104   0.118  0.00  0.00    -0.191 NA
ENDROOT
BRANCH   1   9
HETATM    9  C   UNK N   1      -1.405  -2.403  -0.100  0.00  0.00     0.254 C 
HETATM   10  N   UNK N   1      -0.264  -1.717   0.271  0.00  0.00    -0.340 N 
HETATM   11  C   UNK N   1       0.972  -2.463   0.320  0.00  0.00     0.151 C 
HETATM   12  C   UNK N   1      -0.201  -0.252   0.452  0.00  0.00     0.101 C 
HETATM   13  C   UNK N   1       2.224  -1.693  -0.145  0.00  0.00     0.101 C 
HETATM   14  N   UNK N   1       2.039  -0.237  -0.392  0.00  0.00    -0.341 N 
HETATM   15  C   UNK N   1       3.120  -1.889   1.078  0.00  0.00     0.034 C 
HETATM   16  C   UNK N   1       3.120   0.601  -0.298  0.00  0.00     0.263 C 
HETATM   17  C   UNK N   1       0.727   0.343  -0.524  0.00  0.00     0.151 C 
HETATM   18  O   UNK N   1       4.242   0.140  -0.466  0.00  0.00    -0.270 OA
HETATM   19  C   UNK N   1      -0.726   0.618   1.578  0.00  0.00     0.034 C 
HETATM   20  O   UNK N   1      -1.384  -3.622  -0.203  0.00  0.00    -0.267 OA
BRANCH  16  21
HETATM   21  C   UNK N   1       3.000   1.981   0.390  0.00  0.00     0.233 C 
HETATM   22  C   UNK N   1       2.176   1.766   1.657  0.00  0.00     0.066 C 
BRANCH  21  23
HETATM   23  C   UNK N   1       2.444   3.232  -0.329  0.00  0.00     0.427 C 
HETATM   24  F   UNK N   1       2.463   4.285   0.580  0.00  0.00    -0.167 F 
HETATM   25  F   UNK N   1       1.144   3.086  -0.772  0.00  0.00    -0.167 F 
HETATM   26  F   UNK N   1       3.254   3.585  -1.391  0.00  0.00    -0.167 F 
ENDBRANCH  21  23
BRANCH  21  27
HETATM   27  O   UNK N   1       4.281   2.321   0.827  0.00  0.00    -0.373 OA
HETATM   28  H   UNK N   1       4.931   1.668   1.130  0.00  0.00     0.211 HD
ENDBRANCH  21  27
ENDBRANCH  16  21
ENDBRANCH   1   9
TORSDOF 4
