MODEL 1
REMARK VINA RESULT:      -8.0      0.000      0.000
REMARK  8 active torsions:
REMARK  status: ('A' for Active; 'I' for Inactive)
REMARK    1  A    between atoms: C_1  and  S_2 
REMARK    2  A    between atoms: S_2  and  N_5 
REMARK    3  A    between atoms: N_5  and  C_10 
REMARK    4  A    between atoms: N_5  and  C_11 
REMARK    5  A    between atoms: C_12  and  N_17 
REMARK       I    between atoms: N_17  and  C_20 
REMARK    6  A    between atoms: C_20  and  C_22 
REMARK    7  A    between atoms: C_22  and  C_24 
REMARK    8  A    between atoms: C_22  and  O_26 
ROOT
HETATM    1  C   UNK N   1      34.984  15.793   8.895  0.00  0.00     0.080 A 
HETATM    2  C   UNK N   1      35.495  14.493   9.004  0.00  0.00     0.034 A 
HETATM    3  C   UNK N   1      34.934  16.604  10.022  0.00  0.00     0.027 A 
HETATM    4  C   UNK N   1      35.981  14.026  10.234  0.00  0.00    -0.034 A 
HETATM    5  C   UNK N   1      35.422  16.155  11.239  0.00  0.00     0.031 A 
HETATM    6  C   UNK N   1      35.966  14.870  11.363  0.00  0.00     0.040 A 
HETATM    7  C   UNK N   1      36.534  12.645  10.320  0.00  0.00     0.050 C 
ENDROOT
BRANCH   1   8
HETATM    8  S   UNK N   1      34.401  16.419   7.313  0.00  0.00     0.265 S 
HETATM    9  O   UNK N   1      35.299  16.013   6.134  0.00  0.00    -0.200 OA
HETATM   10  O   UNK N   1      34.585  17.946   7.296  0.00  0.00    -0.200 OA
BRANCH   8  11
HETATM   11  N   UNK N   1      32.729  16.188   6.747  0.00  0.00    -0.272 N 
BRANCH  11  12
HETATM   12  C   UNK N   1      31.624  16.924   7.291  0.00  0.00     0.045 A 
HETATM   13  C   UNK N   1      31.744  17.637   8.491  0.00  0.00     0.030 A 
HETATM   14  C   UNK N   1      30.672  18.372   9.004  0.00  0.00     0.002 A 
HETATM   15  C   UNK N   1      29.451  18.386   8.331  0.00  0.00     0.000 A 
HETATM   16  C   UNK N   1      29.304  17.666   7.144  0.00  0.00     0.002 A 
HETATM   17  C   UNK N   1      30.384  16.945   6.624  0.00  0.00     0.030 A 
ENDBRANCH  11  12
BRANCH  11  18
HETATM   18  C   UNK N   1      32.477  15.200   5.718  0.00  0.00     0.137 C 
HETATM   19  C   UNK N   1      32.557  13.797   6.294  0.00  0.00     0.028 C 
ENDBRANCH  11  18
ENDBRANCH   8  11
ENDBRANCH   1   8
BRANCH   6  20
HETATM   20  N   UNK N   1      36.508  14.420  12.604  0.00  0.00    -0.324 N 
HETATM   21  C   UNK N   1      35.823  13.723  13.558  0.00  0.00     0.265 C 
HETATM   22  O   UNK N   1      34.634  13.465  13.410  0.00  0.00    -0.269 OA
HETATM   23  H   UNK N   1      37.453  14.627  12.787  0.00  0.00     0.169 HD
BRANCH  21  24
HETATM   24  C   UNK N   1      36.534  13.279  14.817  0.00  0.00     0.233 C 
HETATM   25  C   UNK N   1      35.581  13.294  16.012  0.00  0.00     0.066 C 
BRANCH  24  26
HETATM   26  C   UNK N   1      37.100  11.860  14.643  0.00  0.00     0.427 C 
HETATM   27  F   UNK N   1      36.913  11.120  15.799  0.00  0.00    -0.167 F 
HETATM   28  F   UNK N   1      36.454  11.214  13.603  0.00  0.00    -0.167 F 
HETATM   29  F   UNK N   1      38.455  11.915  14.362  0.00  0.00    -0.167 F 
ENDBRANCH  24  26
BRANCH  24  30
HETATM   30  O   UNK N   1      37.579  14.166  15.086  0.00  0.00    -0.373 OA
HETATM   31  H   UNK N   1      38.509  14.387  14.920  0.00  0.00     0.211 HD
ENDBRANCH  24  30
ENDBRANCH  21  24
ENDBRANCH   6  20
TORSDOF 8
ENDMDL
MODEL 2
REMARK VINA RESULT:      -7.9      1.092      2.364
REMARK  8 active torsions:
REMARK  status: ('A' for Active; 'I' for Inactive)
REMARK    1  A    between atoms: C_1  and  S_2 
REMARK    2  A    between atoms: S_2  and  N_5 
REMARK    3  A    between atoms: N_5  and  C_10 
REMARK    4  A    between atoms: N_5  and  C_11 
REMARK    5  A    between atoms: C_12  and  N_17 
REMARK       I    between atoms: N_17  and  C_20 
REMARK    6  A    between atoms: C_20  and  C_22 
REMARK    7  A    between atoms: C_22  and  C_24 
REMARK    8  A    between atoms: C_22  and  O_26 
ROOT
HETATM    1  C   UNK N   1      35.059  15.798   9.126  0.00  0.00     0.080 A 
HETATM    2  C   UNK N   1      35.515  14.475   9.200  0.00  0.00     0.034 A 
HETATM    3  C   UNK N   1      35.078  16.592  10.266  0.00  0.00     0.027 A 
HETATM    4  C   UNK N   1      36.015  13.967  10.409  0.00  0.00    -0.034 A 
HETATM    5  C   UNK N   1      35.581  16.101  11.462  0.00  0.00     0.031 A 
HETATM    6  C   UNK N   1      36.070  14.792  11.550  0.00  0.00     0.040 A 
HETATM    7  C   UNK N   1      36.507  12.561  10.457  0.00  0.00     0.050 C 
ENDROOT
BRANCH   1   8
HETATM    8  S   UNK N   1      34.460  16.475   7.571  0.00  0.00     0.265 S 
HETATM    9  O   UNK N   1      35.253  15.981   6.351  0.00  0.00    -0.200 OA
HETATM   10  O   UNK N   1      34.790  17.977   7.535  0.00  0.00    -0.200 OA
BRANCH   8  11
HETATM   11  N   UNK N   1      32.747  16.408   7.093  0.00  0.00    -0.272 N 
BRANCH  11  12
HETATM   12  C   UNK N   1      32.332  16.374   5.719  0.00  0.00     0.045 A 
HETATM   13  C   UNK N   1      32.497  17.484   4.882  0.00  0.00     0.030 A 
HETATM   14  C   UNK N   1      32.114  17.439   3.539  0.00  0.00     0.002 A 
HETATM   15  C   UNK N   1      31.536  16.281   3.018  0.00  0.00     0.000 A 
HETATM   16  C   UNK N   1      31.344  15.170   3.841  0.00  0.00     0.002 A 
HETATM   17  C   UNK N   1      31.745  15.213   5.181  0.00  0.00     0.030 A 
ENDBRANCH  11  12
BRANCH  11  18
HETATM   18  C   UNK N   1      31.737  16.416   8.131  0.00  0.00     0.137 C 
HETATM   19  C   UNK N   1      31.419  17.838   8.557  0.00  0.00     0.028 C 
ENDBRANCH  11  18
ENDBRANCH   8  11
ENDBRANCH   1   8
BRANCH   6  20
HETATM   20  N   UNK N   1      36.626  14.298  12.768  0.00  0.00    -0.324 N 
HETATM   21  C   UNK N   1      35.925  13.677  13.761  0.00  0.00     0.265 C 
HETATM   22  O   UNK N   1      34.710  13.535  13.674  0.00  0.00    -0.269 OA
HETATM   23  H   UNK N   1      37.595  14.413  12.902  0.00  0.00     0.169 HD
BRANCH  21  24
HETATM   24  C   UNK N   1      36.651  13.172  14.989  0.00  0.00     0.233 C 
HETATM   25  C   UNK N   1      35.724  13.167  16.204  0.00  0.00     0.066 C 
BRANCH  24  26
HETATM   26  C   UNK N   1      37.179  11.748  14.754  0.00  0.00     0.427 C 
HETATM   27  F   UNK N   1      38.529  11.778  14.445  0.00  0.00    -0.167 F 
HETATM   28  F   UNK N   1      37.010  10.983  15.895  0.00  0.00    -0.167 F 
HETATM   29  F   UNK N   1      36.495  11.149  13.708  0.00  0.00    -0.167 F 
ENDBRANCH  24  26
BRANCH  24  30
HETATM   30  O   UNK N   1      37.723  14.025  15.266  0.00  0.00    -0.373 OA
HETATM   31  H   UNK N   1      38.409  14.272  15.905  0.00  0.00     0.211 HD
ENDBRANCH  24  30
ENDBRANCH  21  24
ENDBRANCH   6  20
TORSDOF 8
ENDMDL
MODEL 3
REMARK VINA RESULT:      -7.9      4.057      8.891
REMARK  8 active torsions:
REMARK  status: ('A' for Active; 'I' for Inactive)
REMARK    1  A    between atoms: C_1  and  S_2 
REMARK    2  A    between atoms: S_2  and  N_5 
REMARK    3  A    between atoms: N_5  and  C_10 
REMARK    4  A    between atoms: N_5  and  C_11 
REMARK    5  A    between atoms: C_12  and  N_17 
REMARK       I    between atoms: N_17  and  C_20 
REMARK    6  A    between atoms: C_20  and  C_22 
REMARK    7  A    between atoms: C_22  and  C_24 
REMARK    8  A    between atoms: C_22  and  O_26 
ROOT
HETATM    1  C   UNK N   1      36.326  13.110  12.679  0.00  0.00     0.080 A 
HETATM    2  C   UNK N   1      37.157  13.284  11.564  0.00  0.00     0.034 A 
HETATM    3  C   UNK N   1      35.062  13.685  12.684  0.00  0.00     0.027 A 
HETATM    4  C   UNK N   1      36.703  14.007  10.451  0.00  0.00    -0.034 A 
HETATM    5  C   UNK N   1      34.601  14.392  11.584  0.00  0.00     0.031 A 
HETATM    6  C   UNK N   1      35.403  14.552  10.448  0.00  0.00     0.040 A 
HETATM    7  C   UNK N   1      37.601  14.165   9.272  0.00  0.00     0.050 C 
ENDROOT
BRANCH   1   8
HETATM    8  S   UNK N   1      36.880  12.146  14.092  0.00  0.00     0.265 S 
HETATM    9  O   UNK N   1      37.917  12.879  14.956  0.00  0.00    -0.200 OA
HETATM   10  O   UNK N   1      37.723  10.967  13.576  0.00  0.00    -0.200 OA
BRANCH   8  11
HETATM   11  N   UNK N   1      35.749  11.386  15.238  0.00  0.00    -0.272 N 
BRANCH  11  12
HETATM   12  C   UNK N   1      35.582  11.858  16.582  0.00  0.00     0.045 A 
HETATM   13  C   UNK N   1      35.300  13.203  16.852  0.00  0.00     0.030 A 
HETATM   14  C   UNK N   1      35.114  13.654  18.161  0.00  0.00     0.002 A 
HETATM   15  C   UNK N   1      35.230  12.762  19.228  0.00  0.00     0.000 A 
HETATM   16  C   UNK N   1      35.531  11.421  18.982  0.00  0.00     0.002 A 
HETATM   17  C   UNK N   1      35.699  10.970  17.669  0.00  0.00     0.030 A 
ENDBRANCH  11  12
BRANCH  11  18
HETATM   18  C   UNK N   1      34.992  10.231  14.800  0.00  0.00     0.137 C 
HETATM   19  C   UNK N   1      33.626  10.650  14.286  0.00  0.00     0.028 C 
ENDBRANCH  11  18
ENDBRANCH   8  11
ENDBRANCH   1   8
BRANCH   6  20
HETATM   20  N   UNK N   1      34.916  15.242   9.297  0.00  0.00    -0.324 N 
HETATM   21  C   UNK N   1      34.737  16.593   9.205  0.00  0.00     0.265 C 
HETATM   22  O   UNK N   1      34.961  17.320  10.166  0.00  0.00    -0.269 OA
HETATM   23  H   UNK N   1      34.692  14.702   8.506  0.00  0.00     0.169 HD
BRANCH  21  24
HETATM   24  C   UNK N   1      34.242  17.197   7.909  0.00  0.00     0.233 C 
HETATM   25  C   UNK N   1      34.549  16.274   6.729  0.00  0.00     0.066 C 
BRANCH  24  26
HETATM   26  C   UNK N   1      32.726  17.441   7.975  0.00  0.00     0.427 C 
HETATM   27  F   UNK N   1      32.461  18.687   8.518  0.00  0.00    -0.167 F 
HETATM   28  F   UNK N   1      32.180  17.396   6.703  0.00  0.00    -0.167 F 
HETATM   29  F   UNK N   1      32.118  16.474   8.757  0.00  0.00    -0.167 F 
ENDBRANCH  24  26
BRANCH  24  30
HETATM   30  O   UNK N   1      34.900  18.410   7.691  0.00  0.00    -0.373 OA
HETATM   31  H   UNK N   1      34.822  19.318   7.359  0.00  0.00     0.211 HD
ENDBRANCH  24  30
ENDBRANCH  21  24
ENDBRANCH   6  20
TORSDOF 8
ENDMDL
MODEL 4
REMARK VINA RESULT:      -7.7      1.362      1.920
REMARK  8 active torsions:
REMARK  status: ('A' for Active; 'I' for Inactive)
REMARK    1  A    between atoms: C_1  and  S_2 
REMARK    2  A    between atoms: S_2  and  N_5 
REMARK    3  A    between atoms: N_5  and  C_10 
REMARK    4  A    between atoms: N_5  and  C_11 
REMARK    5  A    between atoms: C_12  and  N_17 
REMARK       I    between atoms: N_17  and  C_20 
REMARK    6  A    between atoms: C_20  and  C_22 
REMARK    7  A    between atoms: C_22  and  C_24 
REMARK    8  A    between atoms: C_22  and  O_26 
ROOT
HETATM    1  C   UNK N   1      34.478  16.005   8.781  0.00  0.00     0.080 A 
HETATM    2  C   UNK N   1      34.250  14.638   8.985  0.00  0.00     0.034 A 
HETATM    3  C   UNK N   1      34.947  16.784   9.831  0.00  0.00     0.027 A 
HETATM    4  C   UNK N   1      34.521  14.055  10.232  0.00  0.00    -0.034 A 
HETATM    5  C   UNK N   1      35.228  16.214  11.064  0.00  0.00     0.031 A 
HETATM    6  C   UNK N   1      35.036  14.843  11.280  0.00  0.00     0.040 A 
HETATM    7  C   UNK N   1      34.284  12.595  10.419  0.00  0.00     0.050 C 
ENDROOT
BRANCH   1   8
HETATM    8  S   UNK N   1      34.178  16.754   7.174  0.00  0.00     0.265 S 
HETATM    9  O   UNK N   1      35.097  16.208   6.070  0.00  0.00    -0.200 OA
HETATM   10  O   UNK N   1      34.639  18.221   7.226  0.00  0.00    -0.200 OA
BRANCH   8  11
HETATM   11  N   UNK N   1      32.555  16.848   6.447  0.00  0.00    -0.272 N 
BRANCH  11  12
HETATM   12  C   UNK N   1      31.400  17.257   7.193  0.00  0.00     0.045 A 
HETATM   13  C   UNK N   1      30.105  16.945   6.761  0.00  0.00     0.030 A 
HETATM   14  C   UNK N   1      28.985  17.325   7.505  0.00  0.00     0.002 A 
HETATM   15  C   UNK N   1      29.145  18.047   8.687  0.00  0.00     0.000 A 
HETATM   16  C   UNK N   1      30.427  18.387   9.125  0.00  0.00     0.002 A 
HETATM   17  C   UNK N   1      31.547  17.989   8.388  0.00  0.00     0.030 A 
ENDBRANCH  11  12
BRANCH  11  18
HETATM   18  C   UNK N   1      32.396  16.468   5.058  0.00  0.00     0.137 C 
HETATM   19  C   UNK N   1      32.553  17.676   4.152  0.00  0.00     0.028 C 
ENDBRANCH  11  18
ENDBRANCH   8  11
ENDBRANCH   1   8
BRANCH   6  20
HETATM   20  N   UNK N   1      35.365  14.246  12.534  0.00  0.00    -0.324 N 
HETATM   21  C   UNK N   1      36.504  13.539  12.797  0.00  0.00     0.265 C 
HETATM   22  O   UNK N   1      37.331  13.336  11.915  0.00  0.00    -0.269 OA
HETATM   23  H   UNK N   1      34.720  14.354  13.269  0.00  0.00     0.169 HD
BRANCH  21  24
HETATM   24  C   UNK N   1      36.739  12.987  14.186  0.00  0.00     0.233 C 
HETATM   25  C   UNK N   1      36.767  14.113  15.219  0.00  0.00     0.066 C 
BRANCH  24  26
HETATM   26  C   UNK N   1      35.632  11.988  14.561  0.00  0.00     0.427 C 
HETATM   27  F   UNK N   1      35.189  11.314  13.437  0.00  0.00    -0.167 F 
HETATM   28  F   UNK N   1      36.117  11.058  15.464  0.00  0.00    -0.167 F 
HETATM   29  F   UNK N   1      34.561  12.653  15.136  0.00  0.00    -0.167 F 
ENDBRANCH  24  26
BRANCH  24  30
HETATM   30  O   UNK N   1      37.978  12.341  14.215  0.00  0.00    -0.373 OA
HETATM   31  H   UNK N   1      38.474  11.569  14.528  0.00  0.00     0.211 HD
ENDBRANCH  24  30
ENDBRANCH  21  24
ENDBRANCH   6  20
TORSDOF 8
ENDMDL
MODEL 5
REMARK VINA RESULT:      -7.3      1.936      2.532
REMARK  8 active torsions:
REMARK  status: ('A' for Active; 'I' for Inactive)
REMARK    1  A    between atoms: C_1  and  S_2 
REMARK    2  A    between atoms: S_2  and  N_5 
REMARK    3  A    between atoms: N_5  and  C_10 
REMARK    4  A    between atoms: N_5  and  C_11 
REMARK    5  A    between atoms: C_12  and  N_17 
REMARK       I    between atoms: N_17  and  C_20 
REMARK    6  A    between atoms: C_20  and  C_22 
REMARK    7  A    between atoms: C_22  and  C_24 
REMARK    8  A    between atoms: C_22  and  O_26 
ROOT
HETATM    1  C   UNK N   1      34.228  15.467   8.348  0.00  0.00     0.080 A 
HETATM    2  C   UNK N   1      34.961  15.975   9.429  0.00  0.00     0.034 A 
HETATM    3  C   UNK N   1      33.641  14.211   8.451  0.00  0.00     0.027 A 
HETATM    4  C   UNK N   1      35.075  15.236  10.616  0.00  0.00    -0.034 A 
HETATM    5  C   UNK N   1      33.740  13.479   9.624  0.00  0.00     0.031 A 
HETATM    6  C   UNK N   1      34.441  13.982  10.727  0.00  0.00     0.040 A 
HETATM    7  C   UNK N   1      35.847  15.807  11.756  0.00  0.00     0.050 C 
ENDROOT
BRANCH   1   8
HETATM    8  S   UNK N   1      34.036  16.425   6.839  0.00  0.00     0.265 S 
HETATM    9  O   UNK N   1      34.926  15.929   5.689  0.00  0.00    -0.200 OA
HETATM   10  O   UNK N   1      34.631  17.825   7.073  0.00  0.00    -0.200 OA
BRANCH   8  11
HETATM   11  N   UNK N   1      32.447  16.758   6.109  0.00  0.00    -0.272 N 
BRANCH  11  12
HETATM   12  C   UNK N   1      31.336  17.247   6.875  0.00  0.00     0.045 A 
HETATM   13  C   UNK N   1      31.509  17.746   8.172  0.00  0.00     0.030 A 
HETATM   14  C   UNK N   1      30.428  18.244   8.904  0.00  0.00     0.002 A 
HETATM   15  C   UNK N   1      29.146  18.228   8.353  0.00  0.00     0.000 A 
HETATM   16  C   UNK N   1      28.949  17.716   7.069  0.00  0.00     0.002 A 
HETATM   17  C   UNK N   1      30.036  17.235   6.332  0.00  0.00     0.030 A 
ENDBRANCH  11  12
BRANCH  11  18
HETATM   18  C   UNK N   1      32.266  16.498   4.696  0.00  0.00     0.137 C 
HETATM   19  C   UNK N   1      32.639  17.719   3.875  0.00  0.00     0.028 C 
ENDBRANCH  11  18
ENDBRANCH   8  11
ENDBRANCH   1   8
BRANCH   6  20
HETATM   20  N   UNK N   1      34.508  13.249  11.950  0.00  0.00    -0.324 N 
HETATM   21  C   UNK N   1      35.292  12.153  12.171  0.00  0.00     0.265 C 
HETATM   22  O   UNK N   1      35.987  11.691  11.274  0.00  0.00    -0.269 OA
HETATM   23  H   UNK N   1      33.946  13.561  12.696  0.00  0.00     0.169 HD
BRANCH  21  24
HETATM   24  C   UNK N   1      35.288  11.491  13.532  0.00  0.00     0.233 C 
HETATM   25  C   UNK N   1      35.131  12.531  14.640  0.00  0.00     0.066 C 
BRANCH  24  26
HETATM   26  C   UNK N   1      34.139  10.474  13.631  0.00  0.00     0.427 C 
HETATM   27  F   UNK N   1      33.512  10.332  12.405  0.00  0.00    -0.167 F 
HETATM   28  F   UNK N   1      34.629   9.238  14.015  0.00  0.00    -0.167 F 
HETATM   29  F   UNK N   1      33.206  10.895  14.565  0.00  0.00    -0.167 F 
ENDBRANCH  24  26
BRANCH  24  30
HETATM   30  O   UNK N   1      36.507  10.835  13.722  0.00  0.00    -0.373 OA
HETATM   31  H   UNK N   1      37.030  10.041  13.532  0.00  0.00     0.211 HD
ENDBRANCH  24  30
ENDBRANCH  21  24
ENDBRANCH   6  20
TORSDOF 8
ENDMDL
MODEL 6
REMARK VINA RESULT:      -7.1      4.225      9.062
REMARK  8 active torsions:
REMARK  status: ('A' for Active; 'I' for Inactive)
REMARK    1  A    between atoms: C_1  and  S_2 
REMARK    2  A    between atoms: S_2  and  N_5 
REMARK    3  A    between atoms: N_5  and  C_10 
REMARK    4  A    between atoms: N_5  and  C_11 
REMARK    5  A    between atoms: C_12  and  N_17 
REMARK       I    between atoms: N_17  and  C_20 
REMARK    6  A    between atoms: C_20  and  C_22 
REMARK    7  A    between atoms: C_22  and  C_24 
REMARK    8  A    between atoms: C_22  and  O_26 
ROOT
HETATM    1  C   UNK N   1      35.549  13.609  12.641  0.00  0.00     0.080 A 
HETATM    2  C   UNK N   1      35.039  12.754  11.655  0.00  0.00     0.034 A 
HETATM    3  C   UNK N   1      35.632  14.972  12.387  0.00  0.00     0.027 A 
HETATM    4  C   UNK N   1      34.589  13.275  10.433  0.00  0.00    -0.034 A 
HETATM    5  C   UNK N   1      35.179  15.497  11.186  0.00  0.00     0.031 A 
HETATM    6  C   UNK N   1      34.637  14.664  10.199  0.00  0.00     0.040 A 
HETATM    7  C   UNK N   1      34.037  12.346   9.406  0.00  0.00     0.050 C 
ENDROOT
BRANCH   1   8
HETATM    8  S   UNK N   1      36.087  12.958  14.229  0.00  0.00     0.265 S 
HETATM    9  O   UNK N   1      36.818  13.997  15.092  0.00  0.00    -0.200 OA
HETATM   10  O   UNK N   1      37.219  11.947  13.982  0.00  0.00    -0.200 OA
BRANCH   8  11
HETATM   11  N   UNK N   1      34.988  12.099  15.335  0.00  0.00    -0.272 N 
BRANCH  11  12
HETATM   12  C   UNK N   1      35.172  12.102  16.758  0.00  0.00     0.045 A 
HETATM   13  C   UNK N   1      35.576  10.948  17.442  0.00  0.00     0.030 A 
HETATM   14  C   UNK N   1      35.777  10.962  18.825  0.00  0.00     0.002 A 
HETATM   15  C   UNK N   1      35.556  12.132  19.550  0.00  0.00     0.000 A 
HETATM   16  C   UNK N   1      35.133  13.288  18.890  0.00  0.00     0.002 A 
HETATM   17  C   UNK N   1      34.949  13.276  17.504  0.00  0.00     0.030 A 
ENDBRANCH  11  12
BRANCH  11  18
HETATM   18  C   UNK N   1      33.885  11.349  14.771  0.00  0.00     0.137 C 
HETATM   19  C   UNK N   1      34.389  10.093  14.083  0.00  0.00     0.028 C 
ENDBRANCH  11  18
ENDBRANCH   8  11
ENDBRANCH   1   8
BRANCH   6  20
HETATM   20  N   UNK N   1      34.131  15.206   8.979  0.00  0.00    -0.324 N 
HETATM   21  C   UNK N   1      34.834  15.319   7.814  0.00  0.00     0.265 C 
HETATM   22  O   UNK N   1      36.010  14.979   7.759  0.00  0.00    -0.269 OA
HETATM   23  H   UNK N   1      33.199  15.522   8.978  0.00  0.00     0.169 HD
BRANCH  21  24
HETATM   24  C   UNK N   1      34.159  15.885   6.584  0.00  0.00     0.233 C 
HETATM   25  C   UNK N   1      32.878  15.114   6.265  0.00  0.00     0.066 C 
BRANCH  24  26
HETATM   26  C   UNK N   1      33.813  17.368   6.795  0.00  0.00     0.427 C 
HETATM   27  F   UNK N   1      34.782  17.984   7.569  0.00  0.00    -0.167 F 
HETATM   28  F   UNK N   1      33.749  18.021   5.576  0.00  0.00    -0.167 F 
HETATM   29  F   UNK N   1      32.589  17.489   7.432  0.00  0.00    -0.167 F 
ENDBRANCH  24  26
BRANCH  24  30
HETATM   30  O   UNK N   1      35.023  15.760   5.493  0.00  0.00    -0.373 OA
HETATM   31  H   UNK N   1      35.442  15.151   4.866  0.00  0.00     0.211 HD
ENDBRANCH  24  30
ENDBRANCH  21  24
ENDBRANCH   6  20
TORSDOF 8
ENDMDL
MODEL 7
REMARK VINA RESULT:      -7.0      4.184      8.705
REMARK  8 active torsions:
REMARK  status: ('A' for Active; 'I' for Inactive)
REMARK    1  A    between atoms: C_1  and  S_2 
REMARK    2  A    between atoms: S_2  and  N_5 
REMARK    3  A    between atoms: N_5  and  C_10 
REMARK    4  A    between atoms: N_5  and  C_11 
REMARK    5  A    between atoms: C_12  and  N_17 
REMARK       I    between atoms: N_17  and  C_20 
REMARK    6  A    between atoms: C_20  and  C_22 
REMARK    7  A    between atoms: C_22  and  C_24 
REMARK    8  A    between atoms: C_22  and  O_26 
ROOT
HETATM    1  C   UNK N   1      36.232  12.609  12.070  0.00  0.00     0.080 A 
HETATM    2  C   UNK N   1      36.053  13.998  12.112  0.00  0.00     0.034 A 
HETATM    3  C   UNK N   1      36.125  11.944  10.855  0.00  0.00     0.027 A 
HETATM    4  C   UNK N   1      35.797  14.714  10.933  0.00  0.00    -0.034 A 
HETATM    5  C   UNK N   1      35.883  12.644   9.683  0.00  0.00     0.031 A 
HETATM    6  C   UNK N   1      35.731  14.037   9.699  0.00  0.00     0.040 A 
HETATM    7  C   UNK N   1      35.625  16.193  11.004  0.00  0.00     0.050 C 
ENDROOT
BRANCH   1   8
HETATM    8  S   UNK N   1      36.606  11.688  13.568  0.00  0.00     0.265 S 
HETATM    9  O   UNK N   1      38.102  11.684  13.918  0.00  0.00    -0.200 OA
HETATM   10  O   UNK N   1      36.377  10.192  13.290  0.00  0.00    -0.200 OA
BRANCH   8  11
HETATM   11  N   UNK N   1      35.752  11.967  15.105  0.00  0.00    -0.272 N 
BRANCH  11  12
HETATM   12  C   UNK N   1      35.987  13.126  15.917  0.00  0.00     0.045 A 
HETATM   13  C   UNK N   1      35.310  13.317  17.127  0.00  0.00     0.030 A 
HETATM   14  C   UNK N   1      35.561  14.436  17.926  0.00  0.00     0.002 A 
HETATM   15  C   UNK N   1      36.484  15.396  17.511  0.00  0.00     0.000 A 
HETATM   16  C   UNK N   1      37.155  15.235  16.298  0.00  0.00     0.002 A 
HETATM   17  C   UNK N   1      36.914  14.105  15.508  0.00  0.00     0.030 A 
ENDBRANCH  11  12
BRANCH  11  18
HETATM   18  C   UNK N   1      34.805  10.970  15.561  0.00  0.00     0.137 C 
HETATM   19  C   UNK N   1      33.569  10.964  14.681  0.00  0.00     0.028 C 
ENDBRANCH  11  18
ENDBRANCH   8  11
ENDBRANCH   1   8
BRANCH   6  20
HETATM   20  N   UNK N   1      35.525  14.765   8.489  0.00  0.00    -0.324 N 
HETATM   21  C   UNK N   1      34.316  14.969   7.887  0.00  0.00     0.265 C 
HETATM   22  O   UNK N   1      33.295  14.481   8.356  0.00  0.00    -0.269 OA
HETATM   23  H   UNK N   1      36.318  15.154   8.055  0.00  0.00     0.169 HD
BRANCH  21  24
HETATM   24  C   UNK N   1      34.240  15.792   6.620  0.00  0.00     0.233 C 
HETATM   25  C   UNK N   1      33.197  15.217   5.662  0.00  0.00     0.066 C 
BRANCH  24  26
HETATM   26  C   UNK N   1      33.873  17.249   6.946  0.00  0.00     0.427 C 
HETATM   27  F   UNK N   1      34.829  17.815   7.771  0.00  0.00    -0.167 F 
HETATM   28  F   UNK N   1      33.805  17.995   5.782  0.00  0.00    -0.167 F 
HETATM   29  F   UNK N   1      32.644  17.302   7.584  0.00  0.00    -0.167 F 
ENDBRANCH  24  26
BRANCH  24  30
HETATM   30  O   UNK N   1      35.481  15.758   5.980  0.00  0.00    -0.373 OA
HETATM   31  H   UNK N   1      36.396  15.436   6.016  0.00  0.00     0.211 HD
ENDBRANCH  24  30
ENDBRANCH  21  24
ENDBRANCH   6  20
TORSDOF 8
ENDMDL
MODEL 8
REMARK VINA RESULT:      -7.0     16.199     19.384
REMARK  8 active torsions:
REMARK  status: ('A' for Active; 'I' for Inactive)
REMARK    1  A    between atoms: C_1  and  S_2 
REMARK    2  A    between atoms: S_2  and  N_5 
REMARK    3  A    between atoms: N_5  and  C_10 
REMARK    4  A    between atoms: N_5  and  C_11 
REMARK    5  A    between atoms: C_12  and  N_17 
REMARK       I    between atoms: N_17  and  C_20 
REMARK    6  A    between atoms: C_20  and  C_22 
REMARK    7  A    between atoms: C_22  and  C_24 
REMARK    8  A    between atoms: C_22  and  O_26 
ROOT
HETATM    1  C   UNK N   1      27.679  22.892  -6.858  0.00  0.00     0.080 A 
HETATM    2  C   UNK N   1      28.056  21.655  -7.399  0.00  0.00     0.034 A 
HETATM    3  C   UNK N   1      28.525  23.529  -5.959  0.00  0.00     0.027 A 
HETATM    4  C   UNK N   1      29.290  21.081  -7.058  0.00  0.00    -0.034 A 
HETATM    5  C   UNK N   1      29.751  22.975  -5.625  0.00  0.00     0.031 A 
HETATM    6  C   UNK N   1      30.160  21.755  -6.178  0.00  0.00     0.040 A 
HETATM    7  C   UNK N   1      29.673  19.772  -7.659  0.00  0.00     0.050 C 
ENDROOT
BRANCH   1   8
HETATM    8  S   UNK N   1      26.121  23.658  -7.323  0.00  0.00     0.265 S 
HETATM    9  O   UNK N   1      25.000  23.420  -6.300  0.00  0.00    -0.200 OA
HETATM   10  O   UNK N   1      25.555  22.911  -8.543  0.00  0.00    -0.200 OA
BRANCH   8  11
HETATM   11  N   UNK N   1      25.995  25.373  -7.784  0.00  0.00    -0.272 N 
BRANCH  11  12
HETATM   12  C   UNK N   1      26.174  26.439  -6.840  0.00  0.00     0.045 A 
HETATM   13  C   UNK N   1      27.340  27.214  -6.829  0.00  0.00     0.030 A 
HETATM   14  C   UNK N   1      27.499  28.266  -5.923  0.00  0.00     0.002 A 
HETATM   15  C   UNK N   1      26.495  28.546  -4.996  0.00  0.00     0.000 A 
HETATM   16  C   UNK N   1      25.332  27.772  -4.977  0.00  0.00     0.002 A 
HETATM   17  C   UNK N   1      25.170  26.730  -5.896  0.00  0.00     0.030 A 
ENDBRANCH  11  12
BRANCH  11  18
HETATM   18  C   UNK N   1      25.673  25.699  -9.158  0.00  0.00     0.137 C 
HETATM   19  C   UNK N   1      26.931  25.737 -10.008  0.00  0.00     0.028 C 
ENDBRANCH  11  18
ENDBRANCH   8  11
ENDBRANCH   1   8
BRANCH   6  20
HETATM   20  N   UNK N   1      31.440  21.203  -5.870  0.00  0.00    -0.324 N 
HETATM   21  C   UNK N   1      31.745  20.504  -4.737  0.00  0.00     0.265 C 
HETATM   22  O   UNK N   1      30.905  20.337  -3.860  0.00  0.00    -0.269 OA
HETATM   23  H   UNK N   1      32.160  21.335  -6.527  0.00  0.00     0.169 HD
BRANCH  21  24
HETATM   24  C   UNK N   1      33.140  19.946  -4.554  0.00  0.00     0.233 C 
HETATM   25  C   UNK N   1      33.800  19.683  -5.907  0.00  0.00     0.066 C 
BRANCH  24  26
HETATM   26  C   UNK N   1      34.010  20.927  -3.752  0.00  0.00     0.427 C 
HETATM   27  F   UNK N   1      33.596  20.972  -2.432  0.00  0.00    -0.167 F 
HETATM   28  F   UNK N   1      35.333  20.521  -3.779  0.00  0.00    -0.167 F 
HETATM   29  F   UNK N   1      33.922  22.199  -4.293  0.00  0.00    -0.167 F 
ENDBRANCH  24  26
BRANCH  24  30
HETATM   30  O   UNK N   1      33.057  18.731  -3.869  0.00  0.00    -0.373 OA
HETATM   31  H   UNK N   1      32.490  17.984  -3.624  0.00  0.00     0.211 HD
ENDBRANCH  24  30
ENDBRANCH  21  24
ENDBRANCH   6  20
TORSDOF 8
ENDMDL
MODEL 9
REMARK VINA RESULT:      -7.0      6.239     11.577
REMARK  8 active torsions:
REMARK  status: ('A' for Active; 'I' for Inactive)
REMARK    1  A    between atoms: C_1  and  S_2 
REMARK    2  A    between atoms: S_2  and  N_5 
REMARK    3  A    between atoms: N_5  and  C_10 
REMARK    4  A    between atoms: N_5  and  C_11 
REMARK    5  A    between atoms: C_12  and  N_17 
REMARK       I    between atoms: N_17  and  C_20 
REMARK    6  A    between atoms: C_20  and  C_22 
REMARK    7  A    between atoms: C_22  and  C_24 
REMARK    8  A    between atoms: C_22  and  O_26 
ROOT
HETATM    1  C   UNK N   1      35.442  10.523  18.979  0.00  0.00     0.080 A 
HETATM    2  C   UNK N   1      36.031   9.823  17.917  0.00  0.00     0.034 A 
HETATM    3  C   UNK N   1      35.124  11.866  18.818  0.00  0.00     0.027 A 
HETATM    4  C   UNK N   1      36.269  10.465  16.693  0.00  0.00    -0.034 A 
HETATM    5  C   UNK N   1      35.346  12.506  17.608  0.00  0.00     0.031 A 
HETATM    6  C   UNK N   1      35.905  11.816  16.525  0.00  0.00     0.040 A 
HETATM    7  C   UNK N   1      36.884   9.694  15.575  0.00  0.00     0.050 C 
ENDROOT
BRANCH   1   8
HETATM    8  S   UNK N   1      35.088   9.697  20.536  0.00  0.00     0.265 S 
HETATM    9  O   UNK N   1      36.055  10.092  21.663  0.00  0.00    -0.200 OA
HETATM   10  O   UNK N   1      35.426   8.204  20.383  0.00  0.00    -0.200 OA
BRANCH   8  11
HETATM   11  N   UNK N   1      33.467   9.690  21.272  0.00  0.00    -0.272 N 
BRANCH  11  12
HETATM   12  C   UNK N   1      32.553   8.596  21.108  0.00  0.00     0.045 A 
HETATM   13  C   UNK N   1      32.618   7.463  21.927  0.00  0.00     0.030 A 
HETATM   14  C   UNK N   1      31.709   6.412  21.778  0.00  0.00     0.002 A 
HETATM   15  C   UNK N   1      30.730   6.471  20.787  0.00  0.00     0.000 A 
HETATM   16  C   UNK N   1      30.661   7.584  19.945  0.00  0.00     0.002 A 
HETATM   17  C   UNK N   1      31.561   8.642  20.108  0.00  0.00     0.030 A 
ENDBRANCH  11  12
BRANCH  11  18
HETATM   18  C   UNK N   1      33.051  10.844  22.041  0.00  0.00     0.137 C 
HETATM   19  C   UNK N   1      32.925  10.490  23.512  0.00  0.00     0.028 C 
ENDBRANCH  11  18
ENDBRANCH   8  11
ENDBRANCH   1   8
BRANCH   6  20
HETATM   20  N   UNK N   1      36.096  12.461  15.266  0.00  0.00    -0.324 N 
HETATM   21  C   UNK N   1      35.145  12.592  14.295  0.00  0.00     0.265 C 
HETATM   22  O   UNK N   1      34.030  12.106  14.442  0.00  0.00    -0.269 OA
HETATM   23  H   UNK N   1      36.984  12.843  15.083  0.00  0.00     0.169 HD
BRANCH  21  24
HETATM   24  C   UNK N   1      35.477  13.331  13.016  0.00  0.00     0.233 C 
HETATM   25  C   UNK N   1      36.246  14.617  13.317  0.00  0.00     0.066 C 
BRANCH  24  26
HETATM   26  C   UNK N   1      36.323  12.444  12.088  0.00  0.00     0.427 C 
HETATM   27  F   UNK N   1      37.668  12.575  12.389  0.00  0.00    -0.167 F 
HETATM   28  F   UNK N   1      35.969  11.115  12.246  0.00  0.00    -0.167 F 
HETATM   29  F   UNK N   1      36.123  12.806  10.766  0.00  0.00    -0.167 F 
ENDBRANCH  24  26
BRANCH  24  30
HETATM   30  O   UNK N   1      34.288  13.678  12.370  0.00  0.00    -0.373 OA
HETATM   31  H   UNK N   1      33.334  13.823  12.466  0.00  0.00     0.211 HD
ENDBRANCH  24  30
ENDBRANCH  21  24
ENDBRANCH   6  20
TORSDOF 8
ENDMDL
