REMARK  8 active torsions:
REMARK  status: ('A' for Active; 'I' for Inactive)
REMARK    1  A    between atoms: C_1  and  S_2 
REMARK    2  A    between atoms: S_2  and  N_5 
REMARK    3  A    between atoms: N_5  and  C_10 
REMARK    4  A    between atoms: N_5  and  C_11 
REMARK    5  A    between atoms: C_12  and  N_17 
REMARK       I    between atoms: N_17  and  C_20 
REMARK    6  A    between atoms: C_20  and  C_22 
REMARK    7  A    between atoms: C_22  and  C_24 
REMARK    8  A    between atoms: C_22  and  O_26 
ROOT
HETATM    1  C   UNK N   1      -0.852   1.727  -0.459  0.00  0.00     0.080 A 
HETATM    2  C   UNK N   1       0.137   2.694  -0.234  0.00  0.00     0.034 A 
HETATM    3  C   UNK N   1      -0.504   0.382  -0.460  0.00  0.00     0.027 A 
HETATM    4  C   UNK N   1       1.461   2.305   0.018  0.00  0.00    -0.034 A 
HETATM    5  C   UNK N   1       0.800  -0.012  -0.201  0.00  0.00     0.031 A 
HETATM    6  C   UNK N   1       1.797   0.937   0.057  0.00  0.00     0.040 A 
HETATM    7  C   UNK N   1       2.491   3.353   0.269  0.00  0.00     0.050 C 
ENDROOT
BRANCH   1   8
HETATM    8  S   UNK N   1      -2.561   2.212  -0.737  0.00  0.00     0.265 S 
HETATM    9  O   UNK N   1      -2.916   2.352  -2.225  0.00  0.00    -0.200 OA
HETATM   10  O   UNK N   1      -2.737   3.666  -0.266  0.00  0.00    -0.200 OA
BRANCH   8  11
HETATM   11  N   UNK N   1      -3.934   1.358   0.008  0.00  0.00    -0.272 N 
BRANCH  11  12
HETATM   12  C   UNK N   1      -4.051  -0.072  -0.008  0.00  0.00     0.045 A 
HETATM   13  C   UNK N   1      -3.035  -0.880  -0.533  0.00  0.00     0.030 A 
HETATM   14  C   UNK N   1      -3.143  -2.273  -0.524  0.00  0.00     0.002 A 
HETATM   15  C   UNK N   1      -4.287  -2.880  -0.006  0.00  0.00     0.000 A 
HETATM   16  C   UNK N   1      -5.321  -2.092   0.504  0.00  0.00     0.002 A 
HETATM   17  C   UNK N   1      -5.202  -0.698   0.509  0.00  0.00     0.030 A 
ENDBRANCH  11  12
BRANCH  11  18
HETATM   18  C   UNK N   1      -4.983   2.142   0.627  0.00  0.00     0.137 C 
HETATM   19  C   UNK N   1      -5.734   2.949  -0.417  0.00  0.00     0.028 C 
ENDBRANCH  11  18
ENDBRANCH   8  11
ENDBRANCH   1   8
BRANCH   6  20
HETATM   20  N   UNK N   1       3.131   0.533   0.366  0.00  0.00    -0.324 N 
HETATM   21  C   UNK N   1       3.529  -0.749   0.617  0.00  0.00     0.265 C 
HETATM   22  O   UNK N   1       2.715  -1.665   0.629  0.00  0.00    -0.269 OA
HETATM   23  H   UNK N   1       3.820   1.235   0.399  0.00  0.00     0.169 HD
BRANCH  21  24
HETATM   24  C   UNK N   1       4.987  -1.039   0.900  0.00  0.00     0.233 C 
HETATM   25  C   UNK N   1       5.199  -2.526   1.183  0.00  0.00     0.066 C 
BRANCH  24  26
HETATM   26  C   UNK N   1       5.859  -0.626  -0.297  0.00  0.00     0.427 C 
HETATM   27  F   UNK N   1       5.765   0.738  -0.515  0.00  0.00    -0.167 F 
HETATM   28  F   UNK N   1       7.185  -0.937  -0.050  0.00  0.00    -0.167 F 
HETATM   29  F   UNK N   1       5.449  -1.291  -1.441  0.00  0.00    -0.167 F 
ENDBRANCH  24  26
BRANCH  24  30
HETATM   30  O   UNK N   1       5.382  -0.322   2.032  0.00  0.00    -0.373 OA
HETATM   31  H   UNK N   1       5.950  -0.310   2.818  0.00  0.00     0.211 HD
ENDBRANCH  24  30
ENDBRANCH  21  24
ENDBRANCH   6  20
TORSDOF 8
