REMARK  9 active torsions:
REMARK  status: ('A' for Active; 'I' for Inactive)
REMARK    1  A    between atoms: C_1  and  O_4 
REMARK    2  A    between atoms: O_4  and  C_8 
REMARK    3  A    between atoms: C_8  and  C_10 
REMARK    4  A    between atoms: C_9  and  C_11 
REMARK    5  A    between atoms: C_11  and  C_14 
REMARK       I    between atoms: C_14  and  N_17 
REMARK    6  A    between atoms: N_17  and  C_20 
REMARK    7  A    between atoms: C_19  and  C_21 
REMARK    8  A    between atoms: C_20  and  C_22 
REMARK    9  A    between atoms: C_22  and  N_25 
ROOT
HETATM    1  C   UNK N   1       0.116  -1.064  -0.017  0.00  0.00     0.090 A 
HETATM    2  C   UNK N   1       1.268  -0.220  -0.003  0.00  0.00     0.068 A 
HETATM    3  C   UNK N   1       0.313  -2.457  -0.009  0.00  0.00     0.039 A 
HETATM    4  C   UNK N   1       2.532  -0.790   0.009  0.00  0.00     0.034 A 
HETATM    5 Cl   UNK N   1       1.243   1.541   0.015  0.00  0.00    -0.081 Cl
HETATM    6  C   UNK N   1       1.606  -3.005   0.002  0.00  0.00     0.010 A 
HETATM    7  C   UNK N   1       2.728  -2.168   0.009  0.00  0.00    -0.048 A 
ENDROOT
BRANCH   1   8
HETATM    8  O   UNK N   1      -1.166  -0.595  -0.037  0.00  0.00    -0.345 OA
BRANCH   8   9
HETATM    9  C   UNK N   1      -1.476   0.736  -0.210  0.00  0.00     0.214 C 
BRANCH   9  10
HETATM   10  C   UNK N   1      -2.916   1.095  -0.068  0.00  0.00    -0.034 A 
HETATM   11  C   UNK N   1      -3.913   0.152   0.212  0.00  0.00     0.010 A 
HETATM   12  C   UNK N   1      -5.246   0.567   0.342  0.00  0.00     0.008 A 
HETATM   13  C   UNK N   1      -5.591   1.921   0.184  0.00  0.00    -0.055 A 
HETATM   14  C   UNK N   1      -4.581   2.853  -0.094  0.00  0.00     0.008 A 
HETATM   15  C   UNK N   1      -3.256   2.440  -0.216  0.00  0.00     0.010 A 
BRANCH  13  16
HETATM   16  C   UNK N   1      -7.031   2.355   0.339  0.00  0.00     0.010 C 
HETATM   17  C   UNK N   1      -7.241   3.849   0.123  0.00  0.00     0.015 C 
HETATM   18  C   UNK N   1      -7.938   1.598  -0.613  0.00  0.00     0.015 C 
ENDBRANCH  13  16
ENDBRANCH   9  10
ENDBRANCH   8   9
ENDBRANCH   1   8
BRANCH   7  19
HETATM   19  C   UNK N   1       4.123  -2.767   0.015  0.00  0.00     0.141 C 
BRANCH  19  20
HETATM   20  C   UNK N   1       5.308  -1.810   0.007  0.00  0.00     0.221 C 
HETATM   21  N   UNK N   1       6.568  -2.308   0.009  0.00  0.00    -0.359 N 
HETATM   22  H   UNK N   1       6.709  -3.282   0.017  0.00  0.00     0.162 HD
HETATM   23  O   UNK N   1       5.142  -0.599  -0.003  0.00  0.00    -0.273 OA
BRANCH  21  24
HETATM   24  C   UNK N   1       7.705  -1.418   0.001  0.00  0.00     0.141 C 
BRANCH  24  25
HETATM   25  C   UNK N   1       8.998  -2.200   0.005  0.00  0.00     0.130 C 
BRANCH  25  26
HETATM   26  N   UNK N   1      10.112  -1.270  -0.001  0.00  0.00    -0.429 N 
HETATM   27  H   UNK N   1      11.070  -1.621  -0.005  0.00  0.00     0.149 HD
HETATM   28  H   UNK N   1       9.937  -0.265  -0.001  0.00  0.00     0.149 HD
ENDBRANCH  25  26
ENDBRANCH  24  25
ENDBRANCH  21  24
ENDBRANCH  19  20
ENDBRANCH   7  19
TORSDOF 9
