MODEL 1
REMARK VINA RESULT:      -6.8      0.000      0.000
REMARK  9 active torsions:
REMARK  status: ('A' for Active; 'I' for Inactive)
REMARK    1  A    between atoms: C_1  and  O_4 
REMARK    2  A    between atoms: O_4  and  C_8 
REMARK    3  A    between atoms: C_8  and  C_10 
REMARK    4  A    between atoms: C_9  and  C_11 
REMARK    5  A    between atoms: C_11  and  C_14 
REMARK       I    between atoms: C_14  and  N_17 
REMARK    6  A    between atoms: N_17  and  C_20 
REMARK    7  A    between atoms: C_19  and  C_21 
REMARK    8  A    between atoms: C_20  and  C_22 
REMARK    9  A    between atoms: C_22  and  N_25 
ROOT
HETATM    1  C   UNK N   1      27.495  19.501   6.198  0.00  0.00     0.090 A 
HETATM    2  C   UNK N   1      26.463  20.487   6.247  0.00  0.00     0.068 A 
HETATM    3  C   UNK N   1      27.671  18.782   5.001  0.00  0.00     0.039 A 
HETATM    4  C   UNK N   1      25.668  20.699   5.131  0.00  0.00     0.034 A 
HETATM    5 Cl   UNK N   1      26.094  21.510   7.632  0.00  0.00    -0.081 Cl
HETATM    6  C   UNK N   1      26.849  19.018   3.887  0.00  0.00     0.010 A 
HETATM    7  C   UNK N   1      25.836  19.983   3.949  0.00  0.00    -0.048 A 
ENDROOT
BRANCH   1   8
HETATM    8  O   UNK N   1      28.322  19.217   7.247  0.00  0.00    -0.345 OA
BRANCH   8   9
HETATM    9  C   UNK N   1      28.636  17.932   7.629  0.00  0.00     0.214 C 
BRANCH   9  10
HETATM   10  C   UNK N   1      30.082  17.572   7.586  0.00  0.00    -0.034 A 
HETATM   11  C   UNK N   1      31.007  18.015   8.540  0.00  0.00     0.010 A 
HETATM   12  C   UNK N   1      32.350  17.626   8.439  0.00  0.00     0.008 A 
HETATM   13  C   UNK N   1      32.778  16.803   7.382  0.00  0.00    -0.055 A 
HETATM   14  C   UNK N   1      31.839  16.366   6.436  0.00  0.00     0.008 A 
HETATM   15  C   UNK N   1      30.504  16.748   6.542  0.00  0.00     0.010 A 
BRANCH  13  16
HETATM   16  C   UNK N   1      34.227  16.382   7.294  0.00  0.00     0.010 C 
HETATM   17  C   UNK N   1      34.592  15.256   8.255  0.00  0.00     0.015 C 
HETATM   18  C   UNK N   1      34.588  15.949   5.885  0.00  0.00     0.015 C 
ENDBRANCH  13  16
ENDBRANCH   9  10
ENDBRANCH   8   9
ENDBRANCH   1   8
BRANCH   7  19
HETATM   19  C   UNK N   1      24.947  20.229   2.743  0.00  0.00     0.141 C 
BRANCH  19  20
HETATM   20  C   UNK N   1      23.458  20.439   2.989  0.00  0.00     0.221 C 
HETATM   21  N   UNK N   1      22.689  19.388   3.362  0.00  0.00    -0.359 N 
HETATM   22  H   UNK N   1      23.095  18.498   3.471  0.00  0.00     0.162 HD
HETATM   23  O   UNK N   1      22.945  21.540   2.856  0.00  0.00    -0.273 OA
BRANCH  21  24
HETATM   24  C   UNK N   1      21.275  19.565   3.600  0.00  0.00     0.141 C 
BRANCH  24  25
HETATM   25  C   UNK N   1      20.467  19.062   2.427  0.00  0.00     0.130 C 
BRANCH  25  26
HETATM   26  N   UNK N   1      19.459  18.137   2.910  0.00  0.00    -0.429 N 
HETATM   27  H   UNK N   1      18.913  18.365   3.741  0.00  0.00     0.149 HD
HETATM   28  H   UNK N   1      19.297  17.257   2.419  0.00  0.00     0.149 HD
ENDBRANCH  25  26
ENDBRANCH  24  25
ENDBRANCH  21  24
ENDBRANCH  19  20
ENDBRANCH   7  19
TORSDOF 9
ENDMDL
MODEL 2
REMARK VINA RESULT:      -6.7     12.603     14.080
REMARK  9 active torsions:
REMARK  status: ('A' for Active; 'I' for Inactive)
REMARK    1  A    between atoms: C_1  and  O_4 
REMARK    2  A    between atoms: O_4  and  C_8 
REMARK    3  A    between atoms: C_8  and  C_10 
REMARK    4  A    between atoms: C_9  and  C_11 
REMARK    5  A    between atoms: C_11  and  C_14 
REMARK       I    between atoms: C_14  and  N_17 
REMARK    6  A    between atoms: N_17  and  C_20 
REMARK    7  A    between atoms: C_19  and  C_21 
REMARK    8  A    between atoms: C_20  and  C_22 
REMARK    9  A    between atoms: C_22  and  N_25 
ROOT
HETATM    1  C   UNK N   1      25.559  25.297  -5.237  0.00  0.00     0.090 A 
HETATM    2  C   UNK N   1      26.360  25.387  -4.058  0.00  0.00     0.068 A 
HETATM    3  C   UNK N   1      25.072  26.490  -5.802  0.00  0.00     0.039 A 
HETATM    4  C   UNK N   1      26.625  26.631  -3.506  0.00  0.00     0.034 A 
HETATM    5 Cl   UNK N   1      27.085  24.024  -3.210  0.00  0.00    -0.081 Cl
HETATM    6  C   UNK N   1      25.357  27.736  -5.219  0.00  0.00     0.010 A 
HETATM    7  C   UNK N   1      26.138  27.811  -4.060  0.00  0.00    -0.048 A 
ENDROOT
BRANCH   1   8
HETATM    8  O   UNK N   1      25.239  24.118  -5.846  0.00  0.00    -0.345 OA
BRANCH   8   9
HETATM    9  C   UNK N   1      25.643  23.800  -7.124  0.00  0.00     0.214 C 
BRANCH   9  10
HETATM   10  C   UNK N   1      26.782  22.843  -7.230  0.00  0.00    -0.034 A 
HETATM   11  C   UNK N   1      28.001  23.032  -6.566  0.00  0.00     0.010 A 
HETATM   12  C   UNK N   1      29.023  22.083  -6.706  0.00  0.00     0.008 A 
HETATM   13  C   UNK N   1      28.837  20.947  -7.514  0.00  0.00    -0.055 A 
HETATM   14  C   UNK N   1      27.611  20.772  -8.170  0.00  0.00     0.008 A 
HETATM   15  C   UNK N   1      26.594  21.712  -8.025  0.00  0.00     0.010 A 
BRANCH  13  16
HETATM   16  C   UNK N   1      29.945  19.926  -7.645  0.00  0.00     0.010 C 
HETATM   17  C   UNK N   1      30.910  19.924  -6.466  0.00  0.00     0.015 C 
HETATM   18  C   UNK N   1      29.384  18.526  -7.812  0.00  0.00     0.015 C 
ENDBRANCH  13  16
ENDBRANCH   9  10
ENDBRANCH   8   9
ENDBRANCH   1   8
BRANCH   7  19
HETATM   19  C   UNK N   1      26.437  29.161  -3.432  0.00  0.00     0.141 C 
BRANCH  19  20
HETATM   20  C   UNK N   1      27.695  29.287  -2.582  0.00  0.00     0.221 C 
HETATM   21  N   UNK N   1      28.908  29.310  -3.185  0.00  0.00    -0.359 N 
HETATM   22  H   UNK N   1      28.968  29.244  -4.165  0.00  0.00     0.162 HD
HETATM   23  O   UNK N   1      27.629  29.369  -1.364  0.00  0.00    -0.273 OA
BRANCH  21  24
HETATM   24  C   UNK N   1      30.112  29.429  -2.398  0.00  0.00     0.141 C 
BRANCH  24  25
HETATM   25  C   UNK N   1      31.216  28.573  -2.974  0.00  0.00     0.130 C 
BRANCH  25  26
HETATM   26  N   UNK N   1      30.720  27.221  -3.154  0.00  0.00    -0.429 N 
HETATM   27  H   UNK N   1      31.353  26.481  -3.458  0.00  0.00     0.149 HD
HETATM   28  H   UNK N   1      29.737  27.011  -2.978  0.00  0.00     0.149 HD
ENDBRANCH  25  26
ENDBRANCH  24  25
ENDBRANCH  21  24
ENDBRANCH  19  20
ENDBRANCH   7  19
TORSDOF 9
ENDMDL
MODEL 3
REMARK VINA RESULT:      -6.7      6.599     11.817
REMARK  9 active torsions:
REMARK  status: ('A' for Active; 'I' for Inactive)
REMARK    1  A    between atoms: C_1  and  O_4 
REMARK    2  A    between atoms: O_4  and  C_8 
REMARK    3  A    between atoms: C_8  and  C_10 
REMARK    4  A    between atoms: C_9  and  C_11 
REMARK    5  A    between atoms: C_11  and  C_14 
REMARK       I    between atoms: C_14  and  N_17 
REMARK    6  A    between atoms: N_17  and  C_20 
REMARK    7  A    between atoms: C_19  and  C_21 
REMARK    8  A    between atoms: C_20  and  C_22 
REMARK    9  A    between atoms: C_22  and  N_25 
ROOT
HETATM    1  C   UNK N   1      32.943  16.240   8.327  0.00  0.00     0.090 A 
HETATM    2  C   UNK N   1      34.194  16.820   8.697  0.00  0.00     0.068 A 
HETATM    3  C   UNK N   1      32.668  14.927   8.749  0.00  0.00     0.039 A 
HETATM    4  C   UNK N   1      35.096  16.077   9.445  0.00  0.00     0.034 A 
HETATM    5 Cl   UNK N   1      34.723  18.451   8.296  0.00  0.00    -0.081 Cl
HETATM    6  C   UNK N   1      33.602  14.199   9.504  0.00  0.00     0.010 A 
HETATM    7  C   UNK N   1      34.828  14.775   9.856  0.00  0.00    -0.048 A 
ENDROOT
BRANCH   1   8
HETATM    8  O   UNK N   1      31.997  16.890   7.587  0.00  0.00    -0.345 OA
BRANCH   8   9
HETATM    9  C   UNK N   1      30.709  16.425   7.439  0.00  0.00     0.214 C 
BRANCH   9  10
HETATM   10  C   UNK N   1      29.716  17.406   6.916  0.00  0.00    -0.034 A 
HETATM   11  C   UNK N   1      29.401  17.521   5.556  0.00  0.00     0.010 A 
HETATM   12  C   UNK N   1      28.447  18.461   5.141  0.00  0.00     0.008 A 
HETATM   13  C   UNK N   1      27.812  19.297   6.077  0.00  0.00    -0.055 A 
HETATM   14  C   UNK N   1      28.137  19.168   7.435  0.00  0.00     0.008 A 
HETATM   15  C   UNK N   1      29.080  18.228   7.847  0.00  0.00     0.010 A 
BRANCH  13  16
HETATM   16  C   UNK N   1      26.778  20.297   5.615  0.00  0.00     0.010 C 
HETATM   17  C   UNK N   1      26.967  21.686   6.213  0.00  0.00     0.015 C 
HETATM   18  C   UNK N   1      26.771  20.421   4.103  0.00  0.00     0.015 C 
ENDBRANCH  13  16
ENDBRANCH   9  10
ENDBRANCH   8   9
ENDBRANCH   1   8
BRANCH   7  19
HETATM   19  C   UNK N   1      35.835  13.981  10.668  0.00  0.00     0.141 C 
BRANCH  19  20
HETATM   20  C   UNK N   1      35.651  13.933  12.180  0.00  0.00     0.221 C 
HETATM   21  N   UNK N   1      36.734  14.036  12.987  0.00  0.00    -0.359 N 
HETATM   22  H   UNK N   1      37.630  14.140  12.593  0.00  0.00     0.162 HD
HETATM   23  O   UNK N   1      34.542  13.805  12.677  0.00  0.00    -0.273 OA
BRANCH  21  24
HETATM   24  C   UNK N   1      36.582  13.994  14.423  0.00  0.00     0.141 C 
BRANCH  24  25
HETATM   25  C   UNK N   1      36.939  12.628  14.960  0.00  0.00     0.130 C 
BRANCH  25  26
HETATM   26  N   UNK N   1      38.089  12.122  14.235  0.00  0.00    -0.429 N 
HETATM   27  H   UNK N   1      38.222  12.365  13.253  0.00  0.00     0.149 HD
HETATM   28  H   UNK N   1      38.766  11.522  14.707  0.00  0.00     0.149 HD
ENDBRANCH  25  26
ENDBRANCH  24  25
ENDBRANCH  21  24
ENDBRANCH  19  20
ENDBRANCH   7  19
TORSDOF 9
ENDMDL
MODEL 4
REMARK VINA RESULT:      -6.6      5.285      9.989
REMARK  9 active torsions:
REMARK  status: ('A' for Active; 'I' for Inactive)
REMARK    1  A    between atoms: C_1  and  O_4 
REMARK    2  A    between atoms: O_4  and  C_8 
REMARK    3  A    between atoms: C_8  and  C_10 
REMARK    4  A    between atoms: C_9  and  C_11 
REMARK    5  A    between atoms: C_11  and  C_14 
REMARK       I    between atoms: C_14  and  N_17 
REMARK    6  A    between atoms: N_17  and  C_20 
REMARK    7  A    between atoms: C_19  and  C_21 
REMARK    8  A    between atoms: C_20  and  C_22 
REMARK    9  A    between atoms: C_22  and  N_25 
ROOT
HETATM    1  C   UNK N   1      31.095  16.321   5.224  0.00  0.00     0.090 A 
HETATM    2  C   UNK N   1      32.413  16.666   4.795  0.00  0.00     0.068 A 
HETATM    3  C   UNK N   1      30.716  16.652   6.538  0.00  0.00     0.039 A 
HETATM    4  C   UNK N   1      33.274  17.301   5.678  0.00  0.00     0.034 A 
HETATM    5 Cl   UNK N   1      33.076  16.366   3.191  0.00  0.00    -0.081 Cl
HETATM    6  C   UNK N   1      31.611  17.294   7.409  0.00  0.00     0.010 A 
HETATM    7  C   UNK N   1      32.903  17.621   6.980  0.00  0.00    -0.048 A 
ENDROOT
BRANCH   1   8
HETATM    8  O   UNK N   1      30.182  15.689   4.430  0.00  0.00    -0.345 OA
BRANCH   8   9
HETATM    9  C   UNK N   1      29.635  16.269   3.306  0.00  0.00     0.214 C 
BRANCH   9  10
HETATM   10  C   UNK N   1      28.351  16.999   3.507  0.00  0.00    -0.034 A 
HETATM   11  C   UNK N   1      27.102  16.443   3.199  0.00  0.00     0.010 A 
HETATM   12  C   UNK N   1      25.935  17.187   3.425  0.00  0.00     0.008 A 
HETATM   13  C   UNK N   1      26.009  18.490   3.949  0.00  0.00    -0.055 A 
HETATM   14  C   UNK N   1      27.267  19.031   4.254  0.00  0.00     0.008 A 
HETATM   15  C   UNK N   1      28.425  18.288   4.035  0.00  0.00     0.010 A 
BRANCH  13  16
HETATM   16  C   UNK N   1      24.742  19.275   4.198  0.00  0.00     0.010 C 
HETATM   17  C   UNK N   1      24.538  20.426   3.219  0.00  0.00     0.015 C 
HETATM   18  C   UNK N   1      23.520  18.377   4.146  0.00  0.00     0.015 C 
ENDBRANCH  13  16
ENDBRANCH   9  10
ENDBRANCH   8   9
ENDBRANCH   1   8
BRANCH   7  19
HETATM   19  C   UNK N   1      33.867  18.310   7.929  0.00  0.00     0.141 C 
BRANCH  19  20
HETATM   20  C   UNK N   1      34.630  17.443   8.922  0.00  0.00     0.221 C 
HETATM   21  N   UNK N   1      34.448  16.100   8.912  0.00  0.00    -0.359 N 
HETATM   22  H   UNK N   1      33.825  15.696   8.267  0.00  0.00     0.162 HD
HETATM   23  O   UNK N   1      35.406  17.937   9.727  0.00  0.00    -0.273 OA
BRANCH  21  24
HETATM   24  C   UNK N   1      35.162  15.260   9.845  0.00  0.00     0.141 C 
BRANCH  24  25
HETATM   25  C   UNK N   1      34.283  14.895  11.019  0.00  0.00     0.130 C 
BRANCH  25  26
HETATM   26  N   UNK N   1      32.895  14.921  10.596  0.00  0.00    -0.429 N 
HETATM   27  H   UNK N   1      32.660  15.161   9.632  0.00  0.00     0.149 HD
HETATM   28  H   UNK N   1      32.155  14.700  11.262  0.00  0.00     0.149 HD
ENDBRANCH  25  26
ENDBRANCH  24  25
ENDBRANCH  21  24
ENDBRANCH  19  20
ENDBRANCH   7  19
TORSDOF 9
ENDMDL
MODEL 5
REMARK VINA RESULT:      -6.6      7.419     11.230
REMARK  9 active torsions:
REMARK  status: ('A' for Active; 'I' for Inactive)
REMARK    1  A    between atoms: C_1  and  O_4 
REMARK    2  A    between atoms: O_4  and  C_8 
REMARK    3  A    between atoms: C_8  and  C_10 
REMARK    4  A    between atoms: C_9  and  C_11 
REMARK    5  A    between atoms: C_11  and  C_14 
REMARK       I    between atoms: C_14  and  N_17 
REMARK    6  A    between atoms: N_17  and  C_20 
REMARK    7  A    between atoms: C_19  and  C_21 
REMARK    8  A    between atoms: C_20  and  C_22 
REMARK    9  A    between atoms: C_22  and  N_25 
ROOT
HETATM    1  C   UNK N   1      35.424  14.473  11.459  0.00  0.00     0.090 A 
HETATM    2  C   UNK N   1      34.653  14.074  10.325  0.00  0.00     0.068 A 
HETATM    3  C   UNK N   1      35.676  15.845  11.641  0.00  0.00     0.039 A 
HETATM    4  C   UNK N   1      34.187  15.037   9.443  0.00  0.00     0.034 A 
HETATM    5 Cl   UNK N   1      34.205  12.417   9.928  0.00  0.00    -0.081 Cl
HETATM    6  C   UNK N   1      35.191  16.797  10.729  0.00  0.00     0.010 A 
HETATM    7  C   UNK N   1      34.442  16.394   9.618  0.00  0.00    -0.048 A 
ENDROOT
BRANCH   1   8
HETATM    8  O   UNK N   1      35.931  13.598  12.376  0.00  0.00    -0.345 OA
BRANCH   8   9
HETATM    9  C   UNK N   1      36.464  13.999  13.581  0.00  0.00     0.214 C 
BRANCH   9  10
HETATM   10  C   UNK N   1      36.251  13.073  14.730  0.00  0.00    -0.034 A 
HETATM   11  C   UNK N   1      36.752  11.765  14.759  0.00  0.00     0.010 A 
HETATM   12  C   UNK N   1      36.519  10.956  15.880  0.00  0.00     0.008 A 
HETATM   13  C   UNK N   1      35.779  11.444  16.972  0.00  0.00    -0.055 A 
HETATM   14  C   UNK N   1      35.286  12.755  16.928  0.00  0.00     0.008 A 
HETATM   15  C   UNK N   1      35.524  13.561  15.816  0.00  0.00     0.010 A 
BRANCH  13  16
HETATM   16  C   UNK N   1      35.547  10.563  18.178  0.00  0.00     0.010 C 
HETATM   17  C   UNK N   1      36.660   9.549  18.413  0.00  0.00     0.015 C 
HETATM   18  C   UNK N   1      35.376  11.392  19.438  0.00  0.00     0.015 C 
ENDBRANCH  13  16
ENDBRANCH   9  10
ENDBRANCH   8   9
ENDBRANCH   1   8
BRANCH   7  19
HETATM   19  C   UNK N   1      33.926  17.427   8.633  0.00  0.00     0.141 C 
BRANCH  19  20
HETATM   20  C   UNK N   1      32.471  17.327   8.193  0.00  0.00     0.221 C 
HETATM   21  N   UNK N   1      31.485  17.477   9.109  0.00  0.00    -0.359 N 
HETATM   22  H   UNK N   1      31.714  17.648  10.051  0.00  0.00     0.162 HD
HETATM   23  O   UNK N   1      32.178  17.114   7.025  0.00  0.00    -0.273 OA
BRANCH  21  24
HETATM   24  C   UNK N   1      30.100  17.386   8.712  0.00  0.00     0.141 C 
BRANCH  24  25
HETATM   25  C   UNK N   1      29.207  18.076   9.718  0.00  0.00     0.130 C 
BRANCH  25  26
HETATM   26  N   UNK N   1      27.992  18.508   9.052  0.00  0.00    -0.429 N 
HETATM   27  H   UNK N   1      27.518  17.883   8.399  0.00  0.00     0.149 HD
HETATM   28  H   UNK N   1      27.612  19.436   9.238  0.00  0.00     0.149 HD
ENDBRANCH  25  26
ENDBRANCH  24  25
ENDBRANCH  21  24
ENDBRANCH  19  20
ENDBRANCH   7  19
TORSDOF 9
ENDMDL
MODEL 6
REMARK VINA RESULT:      -6.6      7.834     11.789
REMARK  9 active torsions:
REMARK  status: ('A' for Active; 'I' for Inactive)
REMARK    1  A    between atoms: C_1  and  O_4 
REMARK    2  A    between atoms: O_4  and  C_8 
REMARK    3  A    between atoms: C_8  and  C_10 
REMARK    4  A    between atoms: C_9  and  C_11 
REMARK    5  A    between atoms: C_11  and  C_14 
REMARK       I    between atoms: C_14  and  N_17 
REMARK    6  A    between atoms: N_17  and  C_20 
REMARK    7  A    between atoms: C_19  and  C_21 
REMARK    8  A    between atoms: C_20  and  C_22 
REMARK    9  A    between atoms: C_22  and  N_25 
ROOT
HETATM    1  C   UNK N   1      35.108  14.352  11.803  0.00  0.00     0.090 A 
HETATM    2  C   UNK N   1      35.027  13.367  10.772  0.00  0.00     0.068 A 
HETATM    3  C   UNK N   1      35.187  15.704  11.424  0.00  0.00     0.039 A 
HETATM    4  C   UNK N   1      35.039  13.765   9.444  0.00  0.00     0.034 A 
HETATM    5 Cl   UNK N   1      34.896  11.629  11.029  0.00  0.00    -0.081 Cl
HETATM    6  C   UNK N   1      35.198  16.077  10.070  0.00  0.00     0.010 A 
HETATM    7  C   UNK N   1      35.125  15.102   9.068  0.00  0.00    -0.048 A 
ENDROOT
BRANCH   1   8
HETATM    8  O   UNK N   1      35.111  14.055  13.136  0.00  0.00    -0.345 OA
BRANCH   8   9
HETATM    9  C   UNK N   1      36.254  13.718  13.827  0.00  0.00     0.214 C 
BRANCH   9  10
HETATM   10  C   UNK N   1      36.055  12.906  15.062  0.00  0.00    -0.034 A 
HETATM   11  C   UNK N   1      35.348  13.375  16.176  0.00  0.00     0.010 A 
HETATM   12  C   UNK N   1      35.192  12.548  17.299  0.00  0.00     0.008 A 
HETATM   13  C   UNK N   1      35.749  11.257  17.317  0.00  0.00    -0.055 A 
HETATM   14  C   UNK N   1      36.452  10.802  16.193  0.00  0.00     0.008 A 
HETATM   15  C   UNK N   1      36.599  11.622  15.076  0.00  0.00     0.010 A 
BRANCH  13  16
HETATM   16  C   UNK N   1      35.563  10.374  18.530  0.00  0.00     0.010 C 
HETATM   17  C   UNK N   1      35.263  11.151  19.807  0.00  0.00     0.015 C 
HETATM   18  C   UNK N   1      34.453   9.364  18.308  0.00  0.00     0.015 C 
ENDBRANCH  13  16
ENDBRANCH   9  10
ENDBRANCH   8   9
ENDBRANCH   1   8
BRANCH   7  19
HETATM   19  C   UNK N   1      35.143  15.512   7.607  0.00  0.00     0.141 C 
BRANCH  19  20
HETATM   20  C   UNK N   1      34.117  16.538   7.143  0.00  0.00     0.221 C 
HETATM   21  N   UNK N   1      32.797  16.278   7.299  0.00  0.00    -0.359 N 
HETATM   22  H   UNK N   1      32.510  15.430   7.709  0.00  0.00     0.162 HD
HETATM   23  O   UNK N   1      34.465  17.593   6.633  0.00  0.00    -0.273 OA
BRANCH  21  24
HETATM   24  C   UNK N   1      31.808  17.237   6.866  0.00  0.00     0.141 C 
BRANCH  24  25
HETATM   25  C   UNK N   1      30.810  17.512   7.967  0.00  0.00     0.130 C 
BRANCH  25  26
HETATM   26  N   UNK N   1      31.228  16.813   9.168  0.00  0.00    -0.429 N 
HETATM   27  H   UNK N   1      30.674  16.889  10.022  0.00  0.00     0.149 HD
HETATM   28  H   UNK N   1      32.075  16.245   9.159  0.00  0.00     0.149 HD
ENDBRANCH  25  26
ENDBRANCH  24  25
ENDBRANCH  21  24
ENDBRANCH  19  20
ENDBRANCH   7  19
TORSDOF 9
ENDMDL
MODEL 7
REMARK VINA RESULT:      -6.3     12.396     16.592
REMARK  9 active torsions:
REMARK  status: ('A' for Active; 'I' for Inactive)
REMARK    1  A    between atoms: C_1  and  O_4 
REMARK    2  A    between atoms: O_4  and  C_8 
REMARK    3  A    between atoms: C_8  and  C_10 
REMARK    4  A    between atoms: C_9  and  C_11 
REMARK    5  A    between atoms: C_11  and  C_14 
REMARK       I    between atoms: C_14  and  N_17 
REMARK    6  A    between atoms: N_17  and  C_20 
REMARK    7  A    between atoms: C_19  and  C_21 
REMARK    8  A    between atoms: C_20  and  C_22 
REMARK    9  A    between atoms: C_22  and  N_25 
ROOT
HETATM    1  C   UNK N   1      35.779  11.059  17.214  0.00  0.00     0.090 A 
HETATM    2  C   UNK N   1      35.520  12.440  17.473  0.00  0.00     0.068 A 
HETATM    3  C   UNK N   1      36.217  10.696  15.927  0.00  0.00     0.039 A 
HETATM    4  C   UNK N   1      35.696  13.369  16.460  0.00  0.00     0.034 A 
HETATM    5 Cl   UNK N   1      34.992  13.107  19.015  0.00  0.00    -0.081 Cl
HETATM    6  C   UNK N   1      36.385  11.660  14.921  0.00  0.00     0.010 A 
HETATM    7  C   UNK N   1      36.122  13.010  15.184  0.00  0.00    -0.048 A 
ENDROOT
BRANCH   1   8
HETATM    8  O   UNK N   1      35.627  10.072  18.145  0.00  0.00    -0.345 OA
BRANCH   8   9
HETATM    9  C   UNK N   1      34.483   9.313  18.254  0.00  0.00     0.214 C 
BRANCH   9  10
HETATM   10  C   UNK N   1      33.794   9.355  19.576  0.00  0.00    -0.034 A 
HETATM   11  C   UNK N   1      32.562   8.734  19.814  0.00  0.00     0.010 A 
HETATM   12  C   UNK N   1      31.980   8.808  21.088  0.00  0.00     0.008 A 
HETATM   13  C   UNK N   1      32.620   9.509  22.125  0.00  0.00    -0.055 A 
HETATM   14  C   UNK N   1      33.854  10.124  21.871  0.00  0.00     0.008 A 
HETATM   15  C   UNK N   1      34.434  10.043  20.607  0.00  0.00     0.010 A 
BRANCH  13  16
HETATM   16  C   UNK N   1      31.986   9.570  23.496  0.00  0.00     0.010 C 
HETATM   17  C   UNK N   1      31.830   8.204  24.154  0.00  0.00     0.015 C 
HETATM   18  C   UNK N   1      32.780  10.466  24.429  0.00  0.00     0.015 C 
ENDBRANCH  13  16
ENDBRANCH   9  10
ENDBRANCH   8   9
ENDBRANCH   1   8
BRANCH   7  19
HETATM   19  C   UNK N   1      36.300  14.047  14.090  0.00  0.00     0.141 C 
BRANCH  19  20
HETATM   20  C   UNK N   1      36.129  13.593  12.646  0.00  0.00     0.221 C 
HETATM   21  N   UNK N   1      34.883  13.423  12.143  0.00  0.00    -0.359 N 
HETATM   22  H   UNK N   1      34.098  13.592  12.713  0.00  0.00     0.162 HD
HETATM   23  O   UNK N   1      37.098  13.381  11.931  0.00  0.00    -0.273 OA
BRANCH  21  24
HETATM   24  C   UNK N   1      34.699  12.995  10.776  0.00  0.00     0.141 C 
BRANCH  24  25
HETATM   25  C   UNK N   1      34.175  14.128   9.925  0.00  0.00     0.130 C 
BRANCH  25  26
HETATM   26  N   UNK N   1      33.313  14.968  10.735  0.00  0.00    -0.429 N 
HETATM   27  H   UNK N   1      32.910  14.603  11.599  0.00  0.00     0.149 HD
HETATM   28  H   UNK N   1      33.111  15.924  10.442  0.00  0.00     0.149 HD
ENDBRANCH  25  26
ENDBRANCH  24  25
ENDBRANCH  21  24
ENDBRANCH  19  20
ENDBRANCH   7  19
TORSDOF 9
ENDMDL
MODEL 8
REMARK VINA RESULT:      -6.3      7.694     12.489
REMARK  9 active torsions:
REMARK  status: ('A' for Active; 'I' for Inactive)
REMARK    1  A    between atoms: C_1  and  O_4 
REMARK    2  A    between atoms: O_4  and  C_8 
REMARK    3  A    between atoms: C_8  and  C_10 
REMARK    4  A    between atoms: C_9  and  C_11 
REMARK    5  A    between atoms: C_11  and  C_14 
REMARK       I    between atoms: C_14  and  N_17 
REMARK    6  A    between atoms: N_17  and  C_20 
REMARK    7  A    between atoms: C_19  and  C_21 
REMARK    8  A    between atoms: C_20  and  C_22 
REMARK    9  A    between atoms: C_22  and  N_25 
ROOT
HETATM    1  C   UNK N   1      35.101  15.606   8.948  0.00  0.00     0.090 A 
HETATM    2  C   UNK N   1      35.515  14.292   9.325  0.00  0.00     0.068 A 
HETATM    3  C   UNK N   1      35.086  16.607   9.937  0.00  0.00     0.039 A 
HETATM    4  C   UNK N   1      35.877  14.041  10.639  0.00  0.00     0.034 A 
HETATM    5 Cl   UNK N   1      35.628  12.908   8.241  0.00  0.00    -0.081 Cl
HETATM    6  C   UNK N   1      35.458  16.322  11.261  0.00  0.00     0.010 A 
HETATM    7  C   UNK N   1      35.856  15.029  11.620  0.00  0.00    -0.048 A 
ENDROOT
BRANCH   1   8
HETATM    8  O   UNK N   1      34.719  15.946   7.682  0.00  0.00    -0.345 OA
BRANCH   8   9
HETATM    9  C   UNK N   1      34.231  17.192   7.354  0.00  0.00     0.214 C 
BRANCH   9  10
HETATM   10  C   UNK N   1      32.749  17.348   7.407  0.00  0.00    -0.034 A 
HETATM   11  C   UNK N   1      31.897  16.885   6.396  0.00  0.00     0.010 A 
HETATM   12  C   UNK N   1      30.512  17.058   6.521  0.00  0.00     0.008 A 
HETATM   13  C   UNK N   1      29.971  17.701   7.649  0.00  0.00    -0.055 A 
HETATM   14  C   UNK N   1      30.837  18.157   8.653  0.00  0.00     0.008 A 
HETATM   15  C   UNK N   1      32.214  17.978   8.530  0.00  0.00     0.010 A 
BRANCH  13  16
HETATM   16  C   UNK N   1      28.474  17.870   7.775  0.00  0.00     0.010 C 
HETATM   17  C   UNK N   1      27.964  17.713   9.203  0.00  0.00     0.015 C 
HETATM   18  C   UNK N   1      28.028  19.222   7.250  0.00  0.00     0.015 C 
ENDBRANCH  13  16
ENDBRANCH   9  10
ENDBRANCH   8   9
ENDBRANCH   1   8
BRANCH   7  19
HETATM   19  C   UNK N   1      36.251  14.726  13.054  0.00  0.00     0.141 C 
BRANCH  19  20
HETATM   20  C   UNK N   1      35.770  13.415  13.663  0.00  0.00     0.221 C 
HETATM   21  N   UNK N   1      36.639  12.385  13.802  0.00  0.00    -0.359 N 
HETATM   22  H   UNK N   1      37.573  12.490  13.508  0.00  0.00     0.162 HD
HETATM   23  O   UNK N   1      34.612  13.276  14.030  0.00  0.00    -0.273 OA
BRANCH  21  24
HETATM   24  C   UNK N   1      36.204  11.134  14.377  0.00  0.00     0.141 C 
BRANCH  24  25
HETATM   25  C   UNK N   1      36.624  11.034  15.825  0.00  0.00     0.130 C 
BRANCH  25  26
HETATM   26  N   UNK N   1      35.586  11.611  16.658  0.00  0.00    -0.429 N 
HETATM   27  H   UNK N   1      35.259  11.111  17.486  0.00  0.00     0.149 HD
HETATM   28  H   UNK N   1      35.182  12.516  16.417  0.00  0.00     0.149 HD
ENDBRANCH  25  26
ENDBRANCH  24  25
ENDBRANCH  21  24
ENDBRANCH  19  20
ENDBRANCH   7  19
TORSDOF 9
ENDMDL
MODEL 9
REMARK VINA RESULT:      -6.3     12.519     16.794
REMARK  9 active torsions:
REMARK  status: ('A' for Active; 'I' for Inactive)
REMARK    1  A    between atoms: C_1  and  O_4 
REMARK    2  A    between atoms: O_4  and  C_8 
REMARK    3  A    between atoms: C_8  and  C_10 
REMARK    4  A    between atoms: C_9  and  C_11 
REMARK    5  A    between atoms: C_11  and  C_14 
REMARK       I    between atoms: C_14  and  N_17 
REMARK    6  A    between atoms: N_17  and  C_20 
REMARK    7  A    between atoms: C_19  and  C_21 
REMARK    8  A    between atoms: C_20  and  C_22 
REMARK    9  A    between atoms: C_22  and  N_25 
ROOT
HETATM    1  C   UNK N   1      35.666  10.896  17.921  0.00  0.00     0.090 A 
HETATM    2  C   UNK N   1      36.355  10.616  16.702  0.00  0.00     0.068 A 
HETATM    3  C   UNK N   1      35.219  12.211  18.145  0.00  0.00     0.039 A 
HETATM    4  C   UNK N   1      36.568  11.637  15.788  0.00  0.00     0.034 A 
HETATM    5 Cl   UNK N   1      36.973   9.039  16.217  0.00  0.00    -0.081 Cl
HETATM    6  C   UNK N   1      35.451  13.224  17.201  0.00  0.00     0.010 A 
HETATM    7  C   UNK N   1      36.133  12.940  16.012  0.00  0.00    -0.048 A 
ENDROOT
BRANCH   1   8
HETATM    8  O   UNK N   1      35.417   9.959  18.882  0.00  0.00    -0.345 OA
BRANCH   8   9
HETATM    9  C   UNK N   1      34.244   9.917  19.604  0.00  0.00     0.214 C 
BRANCH   9  10
HETATM   10  C   UNK N   1      33.485   8.635  19.543  0.00  0.00    -0.034 A 
HETATM   11  C   UNK N   1      32.138   8.528  19.911  0.00  0.00     0.010 A 
HETATM   12  C   UNK N   1      31.488   7.289  19.816  0.00  0.00     0.008 A 
HETATM   13  C   UNK N   1      32.180   6.152  19.364  0.00  0.00    -0.055 A 
HETATM   14  C   UNK N   1      33.528   6.276  18.998  0.00  0.00     0.008 A 
HETATM   15  C   UNK N   1      34.171   7.509  19.086  0.00  0.00     0.010 A 
BRANCH  13  16
HETATM   16  C   UNK N   1      31.462   4.826  19.256  0.00  0.00     0.010 C 
HETATM   17  C   UNK N   1      31.243   4.369  17.819  0.00  0.00     0.015 C 
HETATM   18  C   UNK N   1      32.209   3.734  20.000  0.00  0.00     0.015 C 
ENDBRANCH  13  16
ENDBRANCH   9  10
ENDBRANCH   8   9
ENDBRANCH   1   8
BRANCH   7  19
HETATM   19  C   UNK N   1      36.386  14.042  14.998  0.00  0.00     0.141 C 
BRANCH  19  20
HETATM   20  C   UNK N   1      35.772  13.888  13.613  0.00  0.00     0.221 C 
HETATM   21  N   UNK N   1      36.409  14.413  12.539  0.00  0.00    -0.359 N 
HETATM   22  H   UNK N   1      37.261  14.891  12.661  0.00  0.00     0.162 HD
HETATM   23  O   UNK N   1      34.714  13.296  13.453  0.00  0.00    -0.273 OA
BRANCH  21  24
HETATM   24  C   UNK N   1      35.844  14.278  11.217  0.00  0.00     0.141 C 
BRANCH  24  25
HETATM   25  C   UNK N   1      34.955  15.455  10.891  0.00  0.00     0.130 C 
BRANCH  25  26
HETATM   26  N   UNK N   1      33.568  15.032  10.958  0.00  0.00    -0.429 N 
HETATM   27  H   UNK N   1      32.914  15.311  10.227  0.00  0.00     0.149 HD
HETATM   28  H   UNK N   1      33.249  14.456  11.737  0.00  0.00     0.149 HD
ENDBRANCH  25  26
ENDBRANCH  24  25
ENDBRANCH  21  24
ENDBRANCH  19  20
ENDBRANCH   7  19
TORSDOF 9
ENDMDL
