REMARK  5 active torsions:
REMARK  status: ('A' for Active; 'I' for Inactive)
REMARK    1  A    between atoms: C_2  and  C_3 
REMARK    2  A    between atoms: C_2  and  O_19 
REMARK    3  A    between atoms: C_3  and  O_10 
REMARK    4  A    between atoms: C_8  and  O_10 
REMARK    5  A    between atoms: C_9  and  C_17 
ROOT
HETATM    1  C   UNK N   1       5.517  -1.276   0.009  0.00  0.00     0.003 A 
HETATM    2  C   UNK N   1       4.409  -2.118   0.002  0.00  0.00     0.037 A 
HETATM    3  C   UNK N   1       3.099  -1.600  -0.001  0.00  0.00     0.080 A 
HETATM    4  C   UNK N   1       2.894  -0.184   0.005  0.00  0.00     0.011 A 
HETATM    5  C   UNK N   1       5.336   0.100   0.013  0.00  0.00     0.001 A 
HETATM    6  C   UNK N   1       4.048   0.632   0.011  0.00  0.00     0.015 A 
ENDROOT
BRANCH   4   7
HETATM    7  C   UNK N   1       1.549   0.541   0.002  0.00  0.00     0.019 A 
HETATM    8  C   UNK N   1       0.244  -0.053   0.011  0.00  0.00     0.169 A 
HETATM    9  C   UNK N   1      -0.903   0.752   0.003  0.00  0.00     0.194 A 
HETATM   10  F   UNK N   1       0.021  -1.379   0.028  0.00  0.00    -0.202 F 
HETATM   11  C   UNK N   1      -0.800   2.139  -0.011  0.00  0.00     0.158 A 
HETATM   12  F   UNK N   1      -2.129   0.171   0.010  0.00  0.00    -0.200 F 
HETATM   13  C   UNK N   1       0.452   2.739  -0.018  0.00  0.00     0.046 A 
HETATM   14  F   UNK N   1      -1.918   2.904  -0.019  0.00  0.00    -0.203 F 
HETATM   15  C   UNK N   1       1.602   1.952  -0.011  0.00  0.00     0.018 A 
ENDBRANCH   4   7
BRANCH   3  16
HETATM   16  O   UNK N   1       2.056  -2.449  -0.010  0.00  0.00    -0.348 OA
BRANCH  16  17
HETATM   17  C   UNK N   1       2.131  -3.822  -0.010  0.00  0.00     0.201 C 
BRANCH  17  18
HETATM   18  C   UNK N   1       0.714  -4.363  -0.014  0.00  0.00     0.190 C 
BRANCH  18  19
HETATM   19  O   UNK N   1       0.733  -5.755   0.000  0.00  0.00    -0.399 OA
HETATM   20  H   UNK N   1      -0.101  -6.251   0.010  0.00  0.00     0.209 HD
ENDBRANCH  18  19
ENDBRANCH  17  18
ENDBRANCH  16  17
ENDBRANCH   3  16
TORSDOF 5
