MODEL 1
REMARK VINA RESULT:      -6.4      0.000      0.000
REMARK  5 active torsions:
REMARK  status: ('A' for Active; 'I' for Inactive)
REMARK    1  A    between atoms: C_2  and  C_3 
REMARK    2  A    between atoms: C_2  and  O_19 
REMARK    3  A    between atoms: C_3  and  O_10 
REMARK    4  A    between atoms: C_8  and  O_10 
REMARK    5  A    between atoms: C_9  and  C_17 
ROOT
HETATM    1  C   UNK N   1      37.658  11.418  11.799  0.00  0.00     0.003 A 
HETATM    2  C   UNK N   1      36.917  12.593  11.716  0.00  0.00     0.037 A 
HETATM    3  C   UNK N   1      36.443  13.239  12.874  0.00  0.00     0.080 A 
HETATM    4  C   UNK N   1      36.722  12.685  14.163  0.00  0.00     0.011 A 
HETATM    5  C   UNK N   1      37.941  10.868  13.041  0.00  0.00     0.001 A 
HETATM    6  C   UNK N   1      37.480  11.492  14.199  0.00  0.00     0.015 A 
ENDROOT
BRANCH   4   7
HETATM    7  C   UNK N   1      36.288  13.254  15.513  0.00  0.00     0.019 A 
HETATM    8  C   UNK N   1      36.702  14.492  16.106  0.00  0.00     0.169 A 
HETATM    9  C   UNK N   1      36.214  14.878  17.361  0.00  0.00     0.194 A 
HETATM   10  F   UNK N   1      37.559  15.353  15.528  0.00  0.00    -0.202 F 
HETATM   11  C   UNK N   1      35.318  14.071  18.056  0.00  0.00     0.158 A 
HETATM   12  F   UNK N   1      36.619  16.052  17.906  0.00  0.00    -0.200 F 
HETATM   13  C   UNK N   1      34.900  12.868  17.503  0.00  0.00     0.046 A 
HETATM   14  F   UNK N   1      34.855  14.457  19.269  0.00  0.00    -0.203 F 
HETATM   15  C   UNK N   1      35.377  12.471  16.255  0.00  0.00     0.018 A 
ENDBRANCH   4   7
BRANCH   3  16
HETATM   16  O   UNK N   1      35.731  14.374  12.750  0.00  0.00    -0.348 OA
BRANCH  16  17
HETATM   17  C   UNK N   1      35.077  14.798  11.617  0.00  0.00     0.201 C 
BRANCH  17  18
HETATM   18  C   UNK N   1      35.556  16.202  11.305  0.00  0.00     0.190 C 
BRANCH  18  19
HETATM   19  O   UNK N   1      36.864  16.167  10.829  0.00  0.00    -0.399 OA
HETATM   20  H   UNK N   1      37.388  15.355  10.912  0.00  0.00     0.209 HD
ENDBRANCH  18  19
ENDBRANCH  17  18
ENDBRANCH  16  17
ENDBRANCH   3  16
TORSDOF 5
ENDMDL
MODEL 2
REMARK VINA RESULT:      -6.3      1.893      2.394
REMARK  5 active torsions:
REMARK  status: ('A' for Active; 'I' for Inactive)
REMARK    1  A    between atoms: C_2  and  C_3 
REMARK    2  A    between atoms: C_2  and  O_19 
REMARK    3  A    between atoms: C_3  and  O_10 
REMARK    4  A    between atoms: C_8  and  O_10 
REMARK    5  A    between atoms: C_9  and  C_17 
ROOT
HETATM    1  C   UNK N   1      35.037   9.181  14.191  0.00  0.00     0.003 A 
HETATM    2  C   UNK N   1      34.685  10.335  13.498  0.00  0.00     0.037 A 
HETATM    3  C   UNK N   1      34.903  11.613  14.051  0.00  0.00     0.080 A 
HETATM    4  C   UNK N   1      35.494  11.735  15.348  0.00  0.00     0.011 A 
HETATM    5  C   UNK N   1      35.613   9.282  15.450  0.00  0.00     0.001 A 
HETATM    6  C   UNK N   1      35.836  10.536  16.014  0.00  0.00     0.015 A 
ENDROOT
BRANCH   4   7
HETATM    7  C   UNK N   1      35.799  13.036  16.090  0.00  0.00     0.019 A 
HETATM    8  C   UNK N   1      36.645  14.107  15.650  0.00  0.00     0.169 A 
HETATM    9  C   UNK N   1      36.829  15.242  16.451  0.00  0.00     0.194 A 
HETATM   10  F   UNK N   1      37.305  14.112  14.478  0.00  0.00    -0.202 F 
HETATM   11  C   UNK N   1      36.195  15.353  17.685  0.00  0.00     0.158 A 
HETATM   12  F   UNK N   1      37.634  16.244  16.018  0.00  0.00    -0.200 F 
HETATM   13  C   UNK N   1      35.370  14.331  18.133  0.00  0.00     0.046 A 
HETATM   14  F   UNK N   1      36.383  16.456  18.448  0.00  0.00    -0.203 F 
HETATM   15  C   UNK N   1      35.178  13.196  17.348  0.00  0.00     0.018 A 
ENDBRANCH   4   7
BRANCH   3  16
HETATM   16  O   UNK N   1      34.550  12.703  13.347  0.00  0.00    -0.348 OA
BRANCH  16  17
HETATM   17  C   UNK N   1      34.923  12.985  12.053  0.00  0.00     0.201 C 
BRANCH  17  18
HETATM   18  C   UNK N   1      34.923  14.493  11.891  0.00  0.00     0.190 C 
BRANCH  18  19
HETATM   19  O   UNK N   1      33.716  14.916  11.342  0.00  0.00    -0.399 OA
HETATM   20  H   UNK N   1      32.879  14.550  11.671  0.00  0.00     0.209 HD
ENDBRANCH  18  19
ENDBRANCH  17  18
ENDBRANCH  16  17
ENDBRANCH   3  16
TORSDOF 5
ENDMDL
MODEL 3
REMARK VINA RESULT:      -6.0     17.213     18.758
REMARK  5 active torsions:
REMARK  status: ('A' for Active; 'I' for Inactive)
REMARK    1  A    between atoms: C_2  and  C_3 
REMARK    2  A    between atoms: C_2  and  O_19 
REMARK    3  A    between atoms: C_3  and  O_10 
REMARK    4  A    between atoms: C_8  and  O_10 
REMARK    5  A    between atoms: C_9  and  C_17 
ROOT
HETATM    1  C   UNK N   1      25.440  20.269   2.951  0.00  0.00     0.003 A 
HETATM    2  C   UNK N   1      24.108  20.668   2.888  0.00  0.00     0.037 A 
HETATM    3  C   UNK N   1      23.073  19.833   3.353  0.00  0.00     0.080 A 
HETATM    4  C   UNK N   1      23.388  18.548   3.900  0.00  0.00     0.011 A 
HETATM    5  C   UNK N   1      25.762  19.028   3.480  0.00  0.00     0.001 A 
HETATM    6  C   UNK N   1      24.753  18.186   3.944  0.00  0.00     0.015 A 
ENDROOT
BRANCH   4   7
HETATM    7  C   UNK N   1      22.394  17.524   4.446  0.00  0.00     0.019 A 
HETATM    8  C   UNK N   1      21.386  16.817   3.712  0.00  0.00     0.169 A 
HETATM    9  C   UNK N   1      20.543  15.905   4.361  0.00  0.00     0.194 A 
HETATM   10  F   UNK N   1      21.174  16.964   2.393  0.00  0.00    -0.202 F 
HETATM   11  C   UNK N   1      20.668  15.665   5.726  0.00  0.00     0.158 A 
HETATM   12  F   UNK N   1      19.593  15.247   3.650  0.00  0.00    -0.200 F 
HETATM   13  C   UNK N   1      21.638  16.335   6.459  0.00  0.00     0.046 A 
HETATM   14  F   UNK N   1      19.846  14.781   6.339  0.00  0.00    -0.203 F 
HETATM   15  C   UNK N   1      22.483  17.246   5.828  0.00  0.00     0.018 A 
ENDBRANCH   4   7
BRANCH   3  16
HETATM   16  O   UNK N   1      21.800  20.258   3.276  0.00  0.00    -0.348 OA
BRANCH  16  17
HETATM   17  C   UNK N   1      21.252  20.989   2.248  0.00  0.00     0.201 C 
BRANCH  17  18
HETATM   18  C   UNK N   1      20.722  20.012   1.216  0.00  0.00     0.190 C 
BRANCH  18  19
HETATM   19  O   UNK N   1      20.623  20.635  -0.026  0.00  0.00    -0.399 OA
HETATM   20  H   UNK N   1      20.095  20.228  -0.731  0.00  0.00     0.209 HD
ENDBRANCH  18  19
ENDBRANCH  17  18
ENDBRANCH  16  17
ENDBRANCH   3  16
TORSDOF 5
ENDMDL
MODEL 4
REMARK VINA RESULT:      -6.0      6.212      8.993
REMARK  5 active torsions:
REMARK  status: ('A' for Active; 'I' for Inactive)
REMARK    1  A    between atoms: C_2  and  C_3 
REMARK    2  A    between atoms: C_2  and  O_19 
REMARK    3  A    between atoms: C_3  and  O_10 
REMARK    4  A    between atoms: C_8  and  O_10 
REMARK    5  A    between atoms: C_9  and  C_17 
ROOT
HETATM    1  C   UNK N   1      31.524  17.598   4.155  0.00  0.00     0.003 A 
HETATM    2  C   UNK N   1      30.678  17.569   5.260  0.00  0.00     0.037 A 
HETATM    3  C   UNK N   1      31.155  17.208   6.535  0.00  0.00     0.080 A 
HETATM    4  C   UNK N   1      32.533  16.860   6.706  0.00  0.00     0.011 A 
HETATM    5  C   UNK N   1      32.863  17.266   4.304  0.00  0.00     0.001 A 
HETATM    6  C   UNK N   1      33.354  16.904   5.557  0.00  0.00     0.015 A 
ENDROOT
BRANCH   4   7
HETATM    7  C   UNK N   1      33.212  16.448   8.012  0.00  0.00     0.019 A 
HETATM    8  C   UNK N   1      34.235  17.161   8.720  0.00  0.00     0.169 A 
HETATM    9  C   UNK N   1      34.764  16.647   9.911  0.00  0.00     0.194 A 
HETATM   10  F   UNK N   1      34.751  18.335   8.316  0.00  0.00    -0.202 F 
HETATM   11  C   UNK N   1      34.307  15.440  10.432  0.00  0.00     0.158 A 
HETATM   12  F   UNK N   1      35.733  17.335  10.565  0.00  0.00    -0.200 F 
HETATM   13  C   UNK N   1      33.316  14.732   9.766  0.00  0.00     0.046 A 
HETATM   14  F   UNK N   1      34.829  14.956  11.584  0.00  0.00    -0.203 F 
HETATM   15  C   UNK N   1      32.781  15.229   8.580  0.00  0.00     0.018 A 
ENDBRANCH   4   7
BRANCH   3  16
HETATM   16  O   UNK N   1      30.305  17.195   7.577  0.00  0.00    -0.348 OA
BRANCH  16  17
HETATM   17  C   UNK N   1      29.226  18.030   7.750  0.00  0.00     0.201 C 
BRANCH  17  18
HETATM   18  C   UNK N   1      28.878  18.036   9.226  0.00  0.00     0.190 C 
BRANCH  18  19
HETATM   19  O   UNK N   1      27.497  18.109   9.392  0.00  0.00    -0.399 OA
HETATM   20  H   UNK N   1      26.956  18.589   8.745  0.00  0.00     0.209 HD
ENDBRANCH  18  19
ENDBRANCH  17  18
ENDBRANCH  16  17
ENDBRANCH   3  16
TORSDOF 5
ENDMDL
MODEL 5
REMARK VINA RESULT:      -5.9      3.532      5.769
REMARK  5 active torsions:
REMARK  status: ('A' for Active; 'I' for Inactive)
REMARK    1  A    between atoms: C_2  and  C_3 
REMARK    2  A    between atoms: C_2  and  O_19 
REMARK    3  A    between atoms: C_3  and  O_10 
REMARK    4  A    between atoms: C_8  and  O_10 
REMARK    5  A    between atoms: C_9  and  C_17 
ROOT
HETATM    1  C   UNK N   1      35.122  13.061  18.887  0.00  0.00     0.003 A 
HETATM    2  C   UNK N   1      34.981  13.608  17.615  0.00  0.00     0.037 A 
HETATM    3  C   UNK N   1      35.197  12.831  16.460  0.00  0.00     0.080 A 
HETATM    4  C   UNK N   1      35.570  11.456  16.586  0.00  0.00     0.011 A 
HETATM    5  C   UNK N   1      35.481  11.728  19.028  0.00  0.00     0.001 A 
HETATM    6  C   UNK N   1      35.700  10.944  17.897  0.00  0.00     0.015 A 
ENDROOT
BRANCH   4   7
HETATM    7  C   UNK N   1      35.839  10.477  15.445  0.00  0.00     0.019 A 
HETATM    8  C   UNK N   1      34.903  10.007  14.466  0.00  0.00     0.169 A 
HETATM    9  C   UNK N   1      35.304   9.100  13.476  0.00  0.00     0.194 A 
HETATM   10  F   UNK N   1      33.612  10.383  14.418  0.00  0.00    -0.202 F 
HETATM   11  C   UNK N   1      36.616   8.641  13.420  0.00  0.00     0.158 A 
HETATM   12  F   UNK N   1      34.403   8.666  12.560  0.00  0.00    -0.200 F 
HETATM   13  C   UNK N   1      37.543   9.082  14.355  0.00  0.00     0.046 A 
HETATM   14  F   UNK N   1      36.989   7.764  12.457  0.00  0.00    -0.203 F 
HETATM   15  C   UNK N   1      37.159   9.983  15.346  0.00  0.00     0.018 A 
ENDBRANCH   4   7
BRANCH   3  16
HETATM   16  O   UNK N   1      35.048  13.398  15.249  0.00  0.00    -0.348 OA
BRANCH  16  17
HETATM   17  C   UNK N   1      36.061  13.870  14.447  0.00  0.00     0.201 C 
BRANCH  17  18
HETATM   18  C   UNK N   1      35.796  13.386  13.034  0.00  0.00     0.190 C 
BRANCH  18  19
HETATM   19  O   UNK N   1      34.436  13.144  12.858  0.00  0.00    -0.399 OA
HETATM   20  H   UNK N   1      34.129  12.258  12.610  0.00  0.00     0.209 HD
ENDBRANCH  18  19
ENDBRANCH  17  18
ENDBRANCH  16  17
ENDBRANCH   3  16
TORSDOF 5
ENDMDL
MODEL 6
REMARK VINA RESULT:      -5.9      8.599     11.393
REMARK  5 active torsions:
REMARK  status: ('A' for Active; 'I' for Inactive)
REMARK    1  A    between atoms: C_2  and  C_3 
REMARK    2  A    between atoms: C_2  and  O_19 
REMARK    3  A    between atoms: C_3  and  O_10 
REMARK    4  A    between atoms: C_8  and  O_10 
REMARK    5  A    between atoms: C_9  and  C_17 
ROOT
HETATM    1  C   UNK N   1      28.844  18.025   8.919  0.00  0.00     0.003 A 
HETATM    2  C   UNK N   1      30.209  18.251   9.063  0.00  0.00     0.037 A 
HETATM    3  C   UNK N   1      31.125  17.836   8.077  0.00  0.00     0.080 A 
HETATM    4  C   UNK N   1      30.653  17.168   6.903  0.00  0.00     0.011 A 
HETATM    5  C   UNK N   1      28.368  17.380   7.786  0.00  0.00     0.001 A 
HETATM    6  C   UNK N   1      29.258  16.961   6.799  0.00  0.00     0.015 A 
ENDROOT
BRANCH   4   7
HETATM    7  C   UNK N   1      31.504  16.656   5.742  0.00  0.00     0.019 A 
HETATM    8  C   UNK N   1      32.043  15.337   5.578  0.00  0.00     0.169 A 
HETATM    9  C   UNK N   1      32.813  15.019   4.452  0.00  0.00     0.194 A 
HETATM   10  F   UNK N   1      31.860  14.335   6.457  0.00  0.00    -0.202 F 
HETATM   11  C   UNK N   1      33.068  15.972   3.471  0.00  0.00     0.158 A 
HETATM   12  F   UNK N   1      33.315  13.766   4.316  0.00  0.00    -0.200 F 
HETATM   13  C   UNK N   1      32.556  17.256   3.605  0.00  0.00     0.046 A 
HETATM   14  F   UNK N   1      33.815  15.650   2.388  0.00  0.00    -0.203 F 
HETATM   15  C   UNK N   1      31.789  17.587   4.720  0.00  0.00     0.018 A 
ENDBRANCH   4   7
BRANCH   3  16
HETATM   16  O   UNK N   1      32.437  18.076   8.254  0.00  0.00    -0.348 OA
BRANCH  16  17
HETATM   17  C   UNK N   1      33.347  17.213   8.817  0.00  0.00     0.201 C 
BRANCH  17  18
HETATM   18  C   UNK N   1      34.472  17.012   7.820  0.00  0.00     0.190 C 
BRANCH  18  19
HETATM   19  O   UNK N   1      34.529  18.088   6.939  0.00  0.00    -0.399 OA
HETATM   20  H   UNK N   1      35.389  18.433   6.649  0.00  0.00     0.209 HD
ENDBRANCH  18  19
ENDBRANCH  17  18
ENDBRANCH  16  17
ENDBRANCH   3  16
TORSDOF 5
ENDMDL
MODEL 7
REMARK VINA RESULT:      -5.9     21.233     24.230
REMARK  5 active torsions:
REMARK  status: ('A' for Active; 'I' for Inactive)
REMARK    1  A    between atoms: C_2  and  C_3 
REMARK    2  A    between atoms: C_2  and  O_19 
REMARK    3  A    between atoms: C_3  and  O_10 
REMARK    4  A    between atoms: C_8  and  O_10 
REMARK    5  A    between atoms: C_9  and  C_17 
ROOT
HETATM    1  C   UNK N   1      24.832  27.345  -5.508  0.00  0.00     0.003 A 
HETATM    2  C   UNK N   1      25.224  26.229  -6.241  0.00  0.00     0.037 A 
HETATM    3  C   UNK N   1      26.265  25.391  -5.794  0.00  0.00     0.080 A 
HETATM    4  C   UNK N   1      26.938  25.686  -4.566  0.00  0.00     0.011 A 
HETATM    5  C   UNK N   1      25.473  27.644  -4.314  0.00  0.00     0.001 A 
HETATM    6  C   UNK N   1      26.505  26.828  -3.855  0.00  0.00     0.015 A 
ENDROOT
BRANCH   4   7
HETATM    7  C   UNK N   1      28.079  24.887  -3.939  0.00  0.00     0.019 A 
HETATM    8  C   UNK N   1      29.479  25.000  -4.230  0.00  0.00     0.169 A 
HETATM    9  C   UNK N   1      30.410  24.188  -3.568  0.00  0.00     0.194 A 
HETATM   10  F   UNK N   1      29.994  25.861  -5.125  0.00  0.00    -0.202 F 
HETATM   11  C   UNK N   1      29.997  23.261  -2.617  0.00  0.00     0.158 A 
HETATM   12  F   UNK N   1      31.729  24.309  -3.858  0.00  0.00    -0.200 F 
HETATM   13  C   UNK N   1      28.648  23.133  -2.316  0.00  0.00     0.046 A 
HETATM   14  F   UNK N   1      30.909  22.482  -1.986  0.00  0.00    -0.203 F 
HETATM   15  C   UNK N   1      27.710  23.932  -2.966  0.00  0.00     0.018 A 
ENDBRANCH   4   7
BRANCH   3  16
HETATM   16  O   UNK N   1      26.611  24.321  -6.532  0.00  0.00    -0.348 OA
BRANCH  16  17
HETATM   17  C   UNK N   1      25.988  23.095  -6.520  0.00  0.00     0.201 C 
BRANCH  17  18
HETATM   18  C   UNK N   1      25.746  22.685  -7.960  0.00  0.00     0.190 C 
BRANCH  18  19
HETATM   19  O   UNK N   1      24.448  23.017  -8.340  0.00  0.00    -0.399 OA
HETATM   20  H   UNK N   1      23.884  22.354  -8.768  0.00  0.00     0.209 HD
ENDBRANCH  18  19
ENDBRANCH  17  18
ENDBRANCH  16  17
ENDBRANCH   3  16
TORSDOF 5
ENDMDL
MODEL 8
REMARK VINA RESULT:      -5.8     10.772     13.205
REMARK  5 active torsions:
REMARK  status: ('A' for Active; 'I' for Inactive)
REMARK    1  A    between atoms: C_2  and  C_3 
REMARK    2  A    between atoms: C_2  and  O_19 
REMARK    3  A    between atoms: C_3  and  O_10 
REMARK    4  A    between atoms: C_8  and  O_10 
REMARK    5  A    between atoms: C_9  and  C_17 
ROOT
HETATM    1  C   UNK N   1      33.254  17.378   5.905  0.00  0.00     0.003 A 
HETATM    2  C   UNK N   1      32.273  17.198   6.876  0.00  0.00     0.037 A 
HETATM    3  C   UNK N   1      30.905  17.219   6.543  0.00  0.00     0.080 A 
HETATM    4  C   UNK N   1      30.506  17.430   5.185  0.00  0.00     0.011 A 
HETATM    5  C   UNK N   1      32.884  17.582   4.583  0.00  0.00     0.001 A 
HETATM    6  C   UNK N   1      31.536  17.606   4.234  0.00  0.00     0.015 A 
ENDROOT
BRANCH   4   7
HETATM    7  C   UNK N   1      29.074  17.480   4.655  0.00  0.00     0.019 A 
HETATM    8  C   UNK N   1      28.264  18.647   4.454  0.00  0.00     0.169 A 
HETATM    9  C   UNK N   1      26.959  18.529   3.960  0.00  0.00     0.194 A 
HETATM   10  F   UNK N   1      28.675  19.901   4.712  0.00  0.00    -0.202 F 
HETATM   11  C   UNK N   1      26.423  17.282   3.652  0.00  0.00     0.158 A 
HETATM   12  F   UNK N   1      26.208  19.644   3.778  0.00  0.00    -0.200 F 
HETATM   13  C   UNK N   1      27.187  16.138   3.835  0.00  0.00     0.046 A 
HETATM   14  F   UNK N   1      25.159  17.184   3.175  0.00  0.00    -0.203 F 
HETATM   15  C   UNK N   1      28.487  16.239   4.327  0.00  0.00     0.018 A 
ENDBRANCH   4   7
BRANCH   3  16
HETATM   16  O   UNK N   1      29.989  17.039   7.512  0.00  0.00    -0.348 OA
BRANCH  16  17
HETATM   17  C   UNK N   1      29.829  17.824   8.629  0.00  0.00     0.201 C 
BRANCH  17  18
HETATM   18  C   UNK N   1      28.542  18.609   8.463  0.00  0.00     0.190 C 
BRANCH  18  19
HETATM   19  O   UNK N   1      27.581  18.150   9.359  0.00  0.00    -0.399 OA
HETATM   20  H   UNK N   1      27.735  18.222  10.314  0.00  0.00     0.209 HD
ENDBRANCH  18  19
ENDBRANCH  17  18
ENDBRANCH  16  17
ENDBRANCH   3  16
TORSDOF 5
ENDMDL
MODEL 9
REMARK VINA RESULT:      -5.8     21.853     24.694
REMARK  5 active torsions:
REMARK  status: ('A' for Active; 'I' for Inactive)
REMARK    1  A    between atoms: C_2  and  C_3 
REMARK    2  A    between atoms: C_2  and  O_19 
REMARK    3  A    between atoms: C_3  and  O_10 
REMARK    4  A    between atoms: C_8  and  O_10 
REMARK    5  A    between atoms: C_9  and  C_17 
ROOT
HETATM    1  C   UNK N   1      29.655  20.045  -7.277  0.00  0.00     0.003 A 
HETATM    2  C   UNK N   1      30.011  20.874  -6.218  0.00  0.00     0.037 A 
HETATM    3  C   UNK N   1      29.283  22.046  -5.931  0.00  0.00     0.080 A 
HETATM    4  C   UNK N   1      28.157  22.399  -6.740  0.00  0.00     0.011 A 
HETATM    5  C   UNK N   1      28.564  20.372  -8.070  0.00  0.00     0.001 A 
HETATM    6  C   UNK N   1      27.832  21.527  -7.804  0.00  0.00     0.015 A 
ENDROOT
BRANCH   4   7
HETATM    7  C   UNK N   1      27.263  23.626  -6.569  0.00  0.00     0.019 A 
HETATM    8  C   UNK N   1      27.221  24.791  -7.404  0.00  0.00     0.169 A 
HETATM    9  C   UNK N   1      26.342  25.843  -7.112  0.00  0.00     0.194 A 
HETATM   10  F   UNK N   1      27.990  24.964  -8.494  0.00  0.00    -0.202 F 
HETATM   11  C   UNK N   1      25.493  25.778  -6.012  0.00  0.00     0.158 A 
HETATM   12  F   UNK N   1      26.318  26.937  -7.914  0.00  0.00    -0.200 F 
HETATM   13  C   UNK N   1      25.513  24.660  -5.189  0.00  0.00     0.046 A 
HETATM   14  F   UNK N   1      24.649  26.803  -5.743  0.00  0.00    -0.203 F 
HETATM   15  C   UNK N   1      26.382  23.606  -5.466  0.00  0.00     0.018 A 
ENDBRANCH   4   7
BRANCH   3  16
HETATM   16  O   UNK N   1      29.660  22.818  -4.897  0.00  0.00    -0.348 OA
BRANCH  16  17
HETATM   17  C   UNK N   1      30.348  22.398  -3.783  0.00  0.00     0.201 C 
BRANCH  17  18
HETATM   18  C   UNK N   1      29.589  22.879  -2.561  0.00  0.00     0.190 C 
BRANCH  18  19
HETATM   19  O   UNK N   1      30.457  23.017  -1.482  0.00  0.00    -0.399 OA
HETATM   20  H   UNK N   1      30.137  22.860  -0.579  0.00  0.00     0.209 HD
ENDBRANCH  18  19
ENDBRANCH  17  18
ENDBRANCH  16  17
ENDBRANCH   3  16
TORSDOF 5
ENDMDL
