MODEL 1
REMARK VINA RESULT:      -4.7      0.000      0.000
REMARK  10 active torsions:
REMARK  status: ('A' for Active; 'I' for Inactive)
REMARK    1  A    between atoms: C_2  and  C_3 
REMARK    2  A    between atoms: C_3  and  C_4 
REMARK    3  A    between atoms: C_4  and  C_5 
REMARK    4  A    between atoms: C_5  and  C_6 
REMARK    5  A    between atoms: C_6  and  C_7 
REMARK    6  A    between atoms: C_7  and  C_8 
REMARK    7  A    between atoms: C_8  and  S_9 
REMARK    8  A    between atoms: S_9  and  C_10 
REMARK    9  A    between atoms: C_10  and  C_11 
REMARK   10  A    between atoms: C_11  and  C_13 
ROOT
HETATM    1  C   UNK N   1      28.805  25.476  -4.111  0.00  0.00     0.074 C 
ENDROOT
BRANCH   1   2
HETATM    2  C   UNK N   1      27.961  24.243  -3.850  0.00  0.00     0.010 C 
BRANCH   2   3
HETATM    3  C   UNK N   1      26.483  24.562  -3.951  0.00  0.00     0.001 C 
BRANCH   3   4
HETATM    4  C   UNK N   1      26.100  24.762  -5.403  0.00  0.00     0.000 C 
BRANCH   4   5
HETATM    5  C   UNK N   1      25.216  25.982  -5.558  0.00  0.00     0.000 C 
BRANCH   5   6
HETATM    6  C   UNK N   1      25.971  27.028  -6.350  0.00  0.00    -0.000 C 
BRANCH   6   7
HETATM    7  C   UNK N   1      26.526  28.080  -5.415  0.00  0.00    -0.005 C 
HETATM    8  C   UNK N   1      25.612  28.209  -4.215  0.00  0.00     0.005 C 
ENDBRANCH   6   7
ENDBRANCH   5   6
ENDBRANCH   4   5
ENDBRANCH   3   4
ENDBRANCH   2   3
ENDBRANCH   1   2
BRANCH   1   9
HETATM    9  S   UNK N   1      30.536  25.156  -3.659  0.00  0.00    -0.161 SA
BRANCH   9  10
HETATM   10  C   UNK N   1      30.375  23.359  -3.907  0.00  0.00     0.162 C 
BRANCH  10  11
HETATM   11  C   UNK N   1      31.137  22.616  -2.856  0.00  0.00     0.241 C 
HETATM   12  O   UNK N   1      30.894  22.808  -1.674  0.00  0.00    -0.287 OA
BRANCH  11  13
HETATM   13  C   UNK N   1      32.194  21.632  -3.261  0.00  0.00     0.451 C 
HETATM   14  F   UNK N   1      31.600  20.508  -3.802  0.00  0.00    -0.163 F 
HETATM   15  F   UNK N   1      33.046  22.189  -4.199  0.00  0.00    -0.163 F 
HETATM   16  F   UNK N   1      32.929  21.270  -2.147  0.00  0.00    -0.163 F 
ENDBRANCH  11  13
ENDBRANCH  10  11
ENDBRANCH   9  10
ENDBRANCH   1   9
TORSDOF 10
ENDMDL
MODEL 2
REMARK VINA RESULT:      -4.7      2.549      3.603
REMARK  10 active torsions:
REMARK  status: ('A' for Active; 'I' for Inactive)
REMARK    1  A    between atoms: C_2  and  C_3 
REMARK    2  A    between atoms: C_3  and  C_4 
REMARK    3  A    between atoms: C_4  and  C_5 
REMARK    4  A    between atoms: C_5  and  C_6 
REMARK    5  A    between atoms: C_6  and  C_7 
REMARK    6  A    between atoms: C_7  and  C_8 
REMARK    7  A    between atoms: C_8  and  S_9 
REMARK    8  A    between atoms: S_9  and  C_10 
REMARK    9  A    between atoms: C_10  and  C_11 
REMARK   10  A    between atoms: C_11  and  C_13 
ROOT
HETATM    1  C   UNK N   1      26.512  25.791  -5.771  0.00  0.00     0.074 C 
ENDROOT
BRANCH   1   2
HETATM    2  C   UNK N   1      25.110  26.351  -5.628  0.00  0.00     0.010 C 
BRANCH   2   3
HETATM    3  C   UNK N   1      25.128  27.694  -4.925  0.00  0.00     0.001 C 
BRANCH   3   4
HETATM    4  C   UNK N   1      25.791  27.553  -3.569  0.00  0.00     0.000 C 
BRANCH   4   5
HETATM    5  C   UNK N   1      26.931  28.540  -3.429  0.00  0.00     0.000 C 
BRANCH   5   6
HETATM    6  C   UNK N   1      26.472  29.884  -3.954  0.00  0.00    -0.000 C 
BRANCH   6   7
HETATM    7  C   UNK N   1      27.590  30.542  -4.731  0.00  0.00    -0.005 C 
HETATM    8  C   UNK N   1      28.040  29.610  -5.837  0.00  0.00     0.005 C 
ENDBRANCH   6   7
ENDBRANCH   5   6
ENDBRANCH   4   5
ENDBRANCH   3   4
ENDBRANCH   2   3
ENDBRANCH   1   2
BRANCH   1   9
HETATM    9  S   UNK N   1      26.515  24.013  -5.395  0.00  0.00    -0.161 SA
BRANCH   9  10
HETATM   10  C   UNK N   1      28.159  24.076  -4.614  0.00  0.00     0.162 C 
BRANCH  10  11
HETATM   11  C   UNK N   1      28.063  23.726  -3.162  0.00  0.00     0.241 C 
HETATM   12  O   UNK N   1      27.019  23.919  -2.556  0.00  0.00    -0.287 OA
BRANCH  11  13
HETATM   13  C   UNK N   1      29.248  23.136  -2.461  0.00  0.00     0.451 C 
HETATM   14  F   UNK N   1      28.947  22.937  -1.127  0.00  0.00    -0.163 F 
HETATM   15  F   UNK N   1      29.600  21.924  -3.030  0.00  0.00    -0.163 F 
HETATM   16  F   UNK N   1      30.318  24.007  -2.563  0.00  0.00    -0.163 F 
ENDBRANCH  11  13
ENDBRANCH  10  11
ENDBRANCH   9  10
ENDBRANCH   1   9
TORSDOF 10
ENDMDL
MODEL 3
REMARK VINA RESULT:      -4.5     16.461     19.785
REMARK  10 active torsions:
REMARK  status: ('A' for Active; 'I' for Inactive)
REMARK    1  A    between atoms: C_2  and  C_3 
REMARK    2  A    between atoms: C_3  and  C_4 
REMARK    3  A    between atoms: C_4  and  C_5 
REMARK    4  A    between atoms: C_5  and  C_6 
REMARK    5  A    between atoms: C_6  and  C_7 
REMARK    6  A    between atoms: C_7  and  C_8 
REMARK    7  A    between atoms: C_8  and  S_9 
REMARK    8  A    between atoms: S_9  and  C_10 
REMARK    9  A    between atoms: C_10  and  C_11 
REMARK   10  A    between atoms: C_11  and  C_13 
ROOT
HETATM    1  C   UNK N   1      34.456  14.959  10.875  0.00  0.00     0.074 C 
ENDROOT
BRANCH   1   2
HETATM    2  C   UNK N   1      35.600  15.119  11.859  0.00  0.00     0.010 C 
BRANCH   2   3
HETATM    3  C   UNK N   1      35.552  14.048  12.930  0.00  0.00     0.001 C 
BRANCH   3   4
HETATM    4  C   UNK N   1      36.477  14.423  14.071  0.00  0.00     0.000 C 
BRANCH   4   5
HETATM    5  C   UNK N   1      36.538  13.309  15.094  0.00  0.00     0.000 C 
BRANCH   5   6
HETATM    6  C   UNK N   1      35.127  12.981  15.536  0.00  0.00    -0.000 C 
BRANCH   6   7
HETATM    7  C   UNK N   1      35.119  12.618  17.004  0.00  0.00    -0.005 C 
HETATM    8  C   UNK N   1      35.246  13.881  17.829  0.00  0.00     0.005 C 
ENDBRANCH   6   7
ENDBRANCH   5   6
ENDBRANCH   4   5
ENDBRANCH   3   4
ENDBRANCH   2   3
ENDBRANCH   1   2
BRANCH   1   9
HETATM    9  S   UNK N   1      35.015  15.366   9.195  0.00  0.00    -0.161 SA
BRANCH   9  10
HETATM   10  C   UNK N   1      34.566  17.123   9.361  0.00  0.00     0.162 C 
BRANCH  10  11
HETATM   11  C   UNK N   1      33.925  17.621   8.104  0.00  0.00     0.241 C 
HETATM   12  O   UNK N   1      34.617  18.075   7.205  0.00  0.00    -0.287 OA
BRANCH  11  13
HETATM   13  C   UNK N   1      32.435  17.554   7.953  0.00  0.00     0.451 C 
HETATM   14  F   UNK N   1      32.102  17.585   6.612  0.00  0.00    -0.163 F 
HETATM   15  F   UNK N   1      31.938  16.390   8.515  0.00  0.00    -0.163 F 
HETATM   16  F   UNK N   1      31.864  18.640   8.591  0.00  0.00    -0.163 F 
ENDBRANCH  11  13
ENDBRANCH  10  11
ENDBRANCH   9  10
ENDBRANCH   1   9
TORSDOF 10
ENDMDL
MODEL 4
REMARK VINA RESULT:      -4.5      1.473      2.297
REMARK  10 active torsions:
REMARK  status: ('A' for Active; 'I' for Inactive)
REMARK    1  A    between atoms: C_2  and  C_3 
REMARK    2  A    between atoms: C_3  and  C_4 
REMARK    3  A    between atoms: C_4  and  C_5 
REMARK    4  A    between atoms: C_5  and  C_6 
REMARK    5  A    between atoms: C_6  and  C_7 
REMARK    6  A    between atoms: C_7  and  C_8 
REMARK    7  A    between atoms: C_8  and  S_9 
REMARK    8  A    between atoms: S_9  and  C_10 
REMARK    9  A    between atoms: C_10  and  C_11 
REMARK   10  A    between atoms: C_11  and  C_13 
ROOT
HETATM    1  C   UNK N   1      27.493  24.376  -3.294  0.00  0.00     0.074 C 
ENDROOT
BRANCH   1   2
HETATM    2  C   UNK N   1      26.532  25.286  -4.034  0.00  0.00     0.010 C 
BRANCH   2   3
HETATM    3  C   UNK N   1      26.374  26.612  -3.316  0.00  0.00     0.001 C 
BRANCH   3   4
HETATM    4  C   UNK N   1      25.564  27.565  -4.173  0.00  0.00     0.000 C 
BRANCH   4   5
HETATM    5  C   UNK N   1      26.430  28.706  -4.663  0.00  0.00     0.000 C 
BRANCH   5   6
HETATM    6  C   UNK N   1      27.017  28.323  -6.006  0.00  0.00    -0.000 C 
BRANCH   6   7
HETATM    7  C   UNK N   1      28.349  29.012  -6.200  0.00  0.00    -0.005 C 
HETATM    8  C   UNK N   1      28.733  28.949  -7.664  0.00  0.00     0.005 C 
ENDBRANCH   6   7
ENDBRANCH   5   6
ENDBRANCH   4   5
ENDBRANCH   3   4
ENDBRANCH   2   3
ENDBRANCH   1   2
BRANCH   1   9
HETATM    9  S   UNK N   1      28.687  23.651  -4.456  0.00  0.00    -0.161 SA
BRANCH   9  10
HETATM   10  C   UNK N   1      30.123  24.161  -3.459  0.00  0.00     0.162 C 
BRANCH  10  11
HETATM   11  C   UNK N   1      30.589  23.031  -2.596  0.00  0.00     0.241 C 
HETATM   12  O   UNK N   1      30.325  23.025  -1.403  0.00  0.00    -0.287 OA
BRANCH  11  13
HETATM   13  C   UNK N   1      31.375  21.908  -3.203  0.00  0.00     0.451 C 
HETATM   14  F   UNK N   1      31.836  22.286  -4.450  0.00  0.00    -0.163 F 
HETATM   15  F   UNK N   1      32.454  21.578  -2.403  0.00  0.00    -0.163 F 
HETATM   16  F   UNK N   1      30.558  20.800  -3.334  0.00  0.00    -0.163 F 
ENDBRANCH  11  13
ENDBRANCH  10  11
ENDBRANCH   9  10
ENDBRANCH   1   9
TORSDOF 10
ENDMDL
MODEL 5
REMARK VINA RESULT:      -4.5     10.672     12.493
REMARK  10 active torsions:
REMARK  status: ('A' for Active; 'I' for Inactive)
REMARK    1  A    between atoms: C_2  and  C_3 
REMARK    2  A    between atoms: C_3  and  C_4 
REMARK    3  A    between atoms: C_4  and  C_5 
REMARK    4  A    between atoms: C_5  and  C_6 
REMARK    5  A    between atoms: C_6  and  C_7 
REMARK    6  A    between atoms: C_7  and  C_8 
REMARK    7  A    between atoms: C_8  and  S_9 
REMARK    8  A    between atoms: S_9  and  C_10 
REMARK    9  A    between atoms: C_10  and  C_11 
REMARK   10  A    between atoms: C_11  and  C_13 
ROOT
HETATM    1  C   UNK N   1      30.121  17.305   5.451  0.00  0.00     0.074 C 
ENDROOT
BRANCH   1   2
HETATM    2  C   UNK N   1      30.030  17.423   6.960  0.00  0.00     0.010 C 
BRANCH   2   3
HETATM    3  C   UNK N   1      28.615  17.747   7.397  0.00  0.00     0.001 C 
BRANCH   3   4
HETATM    4  C   UNK N   1      27.844  18.339   6.235  0.00  0.00     0.000 C 
BRANCH   4   5
HETATM    5  C   UNK N   1      27.431  19.764   6.541  0.00  0.00     0.000 C 
BRANCH   5   6
HETATM    6  C   UNK N   1      27.754  20.628   5.339  0.00  0.00    -0.000 C 
BRANCH   6   7
HETATM    7  C   UNK N   1      27.494  19.854   4.065  0.00  0.00    -0.005 C 
HETATM    8  C   UNK N   1      26.192  20.326   3.455  0.00  0.00     0.005 C 
ENDBRANCH   6   7
ENDBRANCH   5   6
ENDBRANCH   4   5
ENDBRANCH   3   4
ENDBRANCH   2   3
ENDBRANCH   1   2
BRANCH   1   9
HETATM    9  S   UNK N   1      31.853  17.083   4.945  0.00  0.00    -0.161 SA
BRANCH   9  10
HETATM   10  C   UNK N   1      32.407  16.715   6.640  0.00  0.00     0.162 C 
BRANCH  10  11
HETATM   11  C   UNK N   1      33.675  17.447   6.946  0.00  0.00     0.241 C 
HETATM   12  O   UNK N   1      34.579  17.473   6.124  0.00  0.00    -0.287 OA
BRANCH  11  13
HETATM   13  C   UNK N   1      33.828  18.149   8.261  0.00  0.00     0.451 C 
HETATM   14  F   UNK N   1      32.718  18.937   8.499  0.00  0.00    -0.163 F 
HETATM   15  F   UNK N   1      33.962  17.234   9.292  0.00  0.00    -0.163 F 
HETATM   16  F   UNK N   1      34.957  18.948   8.223  0.00  0.00    -0.163 F 
ENDBRANCH  11  13
ENDBRANCH  10  11
ENDBRANCH   9  10
ENDBRANCH   1   9
TORSDOF 10
ENDMDL
MODEL 6
REMARK VINA RESULT:      -4.4      1.271      2.384
REMARK  10 active torsions:
REMARK  status: ('A' for Active; 'I' for Inactive)
REMARK    1  A    between atoms: C_2  and  C_3 
REMARK    2  A    between atoms: C_3  and  C_4 
REMARK    3  A    between atoms: C_4  and  C_5 
REMARK    4  A    between atoms: C_5  and  C_6 
REMARK    5  A    between atoms: C_6  and  C_7 
REMARK    6  A    between atoms: C_7  and  C_8 
REMARK    7  A    between atoms: C_8  and  S_9 
REMARK    8  A    between atoms: S_9  and  C_10 
REMARK    9  A    between atoms: C_10  and  C_11 
REMARK   10  A    between atoms: C_11  and  C_13 
ROOT
HETATM    1  C   UNK N   1      29.226  26.321  -4.824  0.00  0.00     0.074 C 
ENDROOT
BRANCH   1   2
HETATM    2  C   UNK N   1      28.233  27.124  -4.006  0.00  0.00     0.010 C 
BRANCH   2   3
HETATM    3  C   UNK N   1      27.736  28.329  -4.781  0.00  0.00     0.001 C 
BRANCH   3   4
HETATM    4  C   UNK N   1      26.297  28.622  -4.405  0.00  0.00     0.000 C 
BRANCH   4   5
HETATM    5  C   UNK N   1      25.462  27.361  -4.476  0.00  0.00     0.000 C 
BRANCH   5   6
HETATM    6  C   UNK N   1      25.024  27.153  -5.911  0.00  0.00    -0.000 C 
BRANCH   6   7
HETATM    7  C   UNK N   1      25.413  25.766  -6.372  0.00  0.00    -0.005 C 
HETATM    8  C   UNK N   1      25.548  24.861  -5.165  0.00  0.00     0.005 C 
ENDBRANCH   6   7
ENDBRANCH   5   6
ENDBRANCH   4   5
ENDBRANCH   3   4
ENDBRANCH   2   3
ENDBRANCH   1   2
BRANCH   1   9
HETATM    9  S   UNK N   1      29.094  24.557  -4.409  0.00  0.00    -0.161 SA
BRANCH   9  10
HETATM   10  C   UNK N   1      30.531  24.607  -3.293  0.00  0.00     0.162 C 
BRANCH  10  11
HETATM   11  C   UNK N   1      30.713  23.286  -2.614  0.00  0.00     0.241 C 
HETATM   12  O   UNK N   1      30.337  23.136  -1.461  0.00  0.00    -0.287 OA
BRANCH  11  13
HETATM   13  C   UNK N   1      31.351  22.151  -3.356  0.00  0.00     0.451 C 
HETATM   14  F   UNK N   1      31.971  22.629  -4.494  0.00  0.00    -0.163 F 
HETATM   15  F   UNK N   1      32.291  21.516  -2.562  0.00  0.00    -0.163 F 
HETATM   16  F   UNK N   1      30.377  21.236  -3.715  0.00  0.00    -0.163 F 
ENDBRANCH  11  13
ENDBRANCH  10  11
ENDBRANCH   9  10
ENDBRANCH   1   9
TORSDOF 10
ENDMDL
MODEL 7
REMARK VINA RESULT:      -4.4     17.055     20.421
REMARK  10 active torsions:
REMARK  status: ('A' for Active; 'I' for Inactive)
REMARK    1  A    between atoms: C_2  and  C_3 
REMARK    2  A    between atoms: C_3  and  C_4 
REMARK    3  A    between atoms: C_4  and  C_5 
REMARK    4  A    between atoms: C_5  and  C_6 
REMARK    5  A    between atoms: C_6  and  C_7 
REMARK    6  A    between atoms: C_7  and  C_8 
REMARK    7  A    between atoms: C_8  and  S_9 
REMARK    8  A    between atoms: S_9  and  C_10 
REMARK    9  A    between atoms: C_10  and  C_11 
REMARK   10  A    between atoms: C_11  and  C_13 
ROOT
HETATM    1  C   UNK N   1      34.967  13.836  11.305  0.00  0.00     0.074 C 
ENDROOT
BRANCH   1   2
HETATM    2  C   UNK N   1      35.731  14.621  12.354  0.00  0.00     0.010 C 
BRANCH   2   3
HETATM    3  C   UNK N   1      35.759  13.881  13.676  0.00  0.00     0.001 C 
BRANCH   3   4
HETATM    4  C   UNK N   1      34.987  12.583  13.552  0.00  0.00     0.000 C 
BRANCH   4   5
HETATM    5  C   UNK N   1      34.476  12.136  14.906  0.00  0.00     0.000 C 
BRANCH   5   6
HETATM    6  C   UNK N   1      34.316  10.630  14.888  0.00  0.00    -0.000 C 
BRANCH   6   7
HETATM    7  C   UNK N   1      34.749  10.052  16.218  0.00  0.00    -0.005 C 
HETATM    8  C   UNK N   1      36.077  10.661  16.616  0.00  0.00     0.005 C 
ENDBRANCH   6   7
ENDBRANCH   5   6
ENDBRANCH   4   5
ENDBRANCH   3   4
ENDBRANCH   2   3
ENDBRANCH   1   2
BRANCH   1   9
HETATM    9  S   UNK N   1      35.450  14.384   9.640  0.00  0.00    -0.161 SA
BRANCH   9  10
HETATM   10  C   UNK N   1      34.141  15.647   9.566  0.00  0.00     0.162 C 
BRANCH  10  11
HETATM   11  C   UNK N   1      34.739  17.016   9.473  0.00  0.00     0.241 C 
HETATM   12  O   UNK N   1      35.533  17.394  10.321  0.00  0.00    -0.287 OA
BRANCH  11  13
HETATM   13  C   UNK N   1      34.363  17.915   8.334  0.00  0.00     0.451 C 
HETATM   14  F   UNK N   1      34.561  17.255   7.136  0.00  0.00    -0.163 F 
HETATM   15  F   UNK N   1      33.034  18.292   8.427  0.00  0.00    -0.163 F 
HETATM   16  F   UNK N   1      35.154  19.049   8.368  0.00  0.00    -0.163 F 
ENDBRANCH  11  13
ENDBRANCH  10  11
ENDBRANCH   9  10
ENDBRANCH   1   9
TORSDOF 10
ENDMDL
MODEL 8
REMARK VINA RESULT:      -4.3     21.908     24.689
REMARK  10 active torsions:
REMARK  status: ('A' for Active; 'I' for Inactive)
REMARK    1  A    between atoms: C_2  and  C_3 
REMARK    2  A    between atoms: C_3  and  C_4 
REMARK    3  A    between atoms: C_4  and  C_5 
REMARK    4  A    between atoms: C_5  and  C_6 
REMARK    5  A    between atoms: C_6  and  C_7 
REMARK    6  A    between atoms: C_7  and  C_8 
REMARK    7  A    between atoms: C_8  and  S_9 
REMARK    8  A    between atoms: S_9  and  C_10 
REMARK    9  A    between atoms: C_10  and  C_11 
REMARK   10  A    between atoms: C_11  and  C_13 
ROOT
HETATM    1  C   UNK N   1      35.363   9.287  13.579  0.00  0.00     0.074 C 
ENDROOT
BRANCH   1   2
HETATM    2  C   UNK N   1      35.754   9.681  14.991  0.00  0.00     0.010 C 
BRANCH   2   3
HETATM    3  C   UNK N   1      34.547  10.150  15.780  0.00  0.00     0.001 C 
BRANCH   3   4
HETATM    4  C   UNK N   1      34.684   9.719  17.227  0.00  0.00     0.000 C 
BRANCH   4   5
HETATM    5  C   UNK N   1      35.801  10.483  17.906  0.00  0.00     0.000 C 
BRANCH   5   6
HETATM    6  C   UNK N   1      35.289  11.860  18.275  0.00  0.00    -0.000 C 
BRANCH   6   7
HETATM    7  C   UNK N   1      35.510  12.112  19.750  0.00  0.00    -0.005 C 
HETATM    8  C   UNK N   1      36.282  10.952  20.342  0.00  0.00     0.005 C 
ENDBRANCH   6   7
ENDBRANCH   5   6
ENDBRANCH   4   5
ENDBRANCH   3   4
ENDBRANCH   2   3
ENDBRANCH   1   2
BRANCH   1   9
HETATM    9  S   UNK N   1      34.334  10.584  12.831  0.00  0.00    -0.161 SA
BRANCH   9  10
HETATM   10  C   UNK N   1      35.742  11.717  12.610  0.00  0.00     0.162 C 
BRANCH  10  11
HETATM   11  C   UNK N   1      35.425  13.063  13.181  0.00  0.00     0.241 C 
HETATM   12  O   UNK N   1      34.649  13.806  12.598  0.00  0.00    -0.287 OA
BRANCH  11  13
HETATM   13  C   UNK N   1      36.059  13.491  14.470  0.00  0.00     0.451 C 
HETATM   14  F   UNK N   1      37.070  12.611  14.805  0.00  0.00    -0.163 F 
HETATM   15  F   UNK N   1      36.587  14.765  14.356  0.00  0.00    -0.163 F 
HETATM   16  F   UNK N   1      35.103  13.490  15.470  0.00  0.00    -0.163 F 
ENDBRANCH  11  13
ENDBRANCH  10  11
ENDBRANCH   9  10
ENDBRANCH   1   9
TORSDOF 10
ENDMDL
MODEL 9
REMARK VINA RESULT:      -4.3     17.792     21.116
REMARK  10 active torsions:
REMARK  status: ('A' for Active; 'I' for Inactive)
REMARK    1  A    between atoms: C_2  and  C_3 
REMARK    2  A    between atoms: C_3  and  C_4 
REMARK    3  A    between atoms: C_4  and  C_5 
REMARK    4  A    between atoms: C_5  and  C_6 
REMARK    5  A    between atoms: C_6  and  C_7 
REMARK    6  A    between atoms: C_7  and  C_8 
REMARK    7  A    between atoms: C_8  and  S_9 
REMARK    8  A    between atoms: S_9  and  C_10 
REMARK    9  A    between atoms: C_10  and  C_11 
REMARK   10  A    between atoms: C_11  and  C_13 
ROOT
HETATM    1  C   UNK N   1      36.618  13.287  12.339  0.00  0.00     0.074 C 
ENDROOT
BRANCH   1   2
HETATM    2  C   UNK N   1      36.763  12.867  13.789  0.00  0.00     0.010 C 
BRANCH   2   3
HETATM    3  C   UNK N   1      35.825  13.656  14.682  0.00  0.00     0.001 C 
BRANCH   3   4
HETATM    4  C   UNK N   1      35.320  12.771  15.803  0.00  0.00     0.000 C 
BRANCH   4   5
HETATM    5  C   UNK N   1      35.837  11.357  15.638  0.00  0.00     0.000 C 
BRANCH   5   6
HETATM    6  C   UNK N   1      34.656  10.408  15.643  0.00  0.00    -0.000 C 
BRANCH   6   7
HETATM    7  C   UNK N   1      33.613  10.881  14.655  0.00  0.00    -0.005 C 
HETATM    8  C   UNK N   1      33.975  10.380  13.273  0.00  0.00     0.005 C 
ENDBRANCH   6   7
ENDBRANCH   5   6
ENDBRANCH   4   5
ENDBRANCH   3   4
ENDBRANCH   2   3
ENDBRANCH   1   2
BRANCH   1   9
HETATM    9  S   UNK N   1      35.411  14.638  12.197  0.00  0.00    -0.161 SA
BRANCH   9  10
HETATM   10  C   UNK N   1      35.954  15.085  10.518  0.00  0.00     0.162 C 
BRANCH  10  11
HETATM   11  C   UNK N   1      35.284  16.345  10.069  0.00  0.00     0.241 C 
HETATM   12  O   UNK N   1      35.746  17.430  10.391  0.00  0.00    -0.287 OA
BRANCH  11  13
HETATM   13  C   UNK N   1      34.050  16.269   9.222  0.00  0.00     0.451 C 
HETATM   14  F   UNK N   1      33.489  17.526   9.104  0.00  0.00    -0.163 F 
HETATM   15  F   UNK N   1      34.353  15.789   7.959  0.00  0.00    -0.163 F 
HETATM   16  F   UNK N   1      33.140  15.415   9.819  0.00  0.00    -0.163 F 
ENDBRANCH  11  13
ENDBRANCH  10  11
ENDBRANCH   9  10
ENDBRANCH   1   9
TORSDOF 10
ENDMDL
