REMARK  10 active torsions:
REMARK  status: ('A' for Active; 'I' for Inactive)
REMARK    1  A    between atoms: C_2  and  C_3 
REMARK    2  A    between atoms: C_3  and  C_4 
REMARK    3  A    between atoms: C_4  and  C_5 
REMARK    4  A    between atoms: C_5  and  C_6 
REMARK    5  A    between atoms: C_6  and  C_7 
REMARK    6  A    between atoms: C_7  and  C_8 
REMARK    7  A    between atoms: C_8  and  S_9 
REMARK    8  A    between atoms: S_9  and  C_10 
REMARK    9  A    between atoms: C_10  and  C_11 
REMARK   10  A    between atoms: C_11  and  C_13 
ROOT
HETATM    1  C   UNK N   1       1.963   0.728   0.918  0.00  0.00     0.074 C 
ENDROOT
BRANCH   1   2
HETATM    2  C   UNK N   1       1.823  -0.632   0.261  0.00  0.00     0.010 C 
BRANCH   2   3
HETATM    3  C   UNK N   1       0.847  -0.580  -0.898  0.00  0.00     0.001 C 
BRANCH   3   4
HETATM    4  C   UNK N   1      -0.499  -1.120  -0.458  0.00  0.00     0.000 C 
BRANCH   4   5
HETATM    5  C   UNK N   1      -1.451   0.015  -0.145  0.00  0.00     0.000 C 
BRANCH   5   6
HETATM    6  C   UNK N   1      -2.816  -0.569   0.154  0.00  0.00    -0.000 C 
BRANCH   6   7
HETATM    7  C   UNK N   1      -3.872   0.508   0.040  0.00  0.00    -0.005 C 
HETATM    8  C   UNK N   1      -5.243  -0.130   0.120  0.00  0.00     0.005 C 
ENDBRANCH   6   7
ENDBRANCH   5   6
ENDBRANCH   4   5
ENDBRANCH   3   4
ENDBRANCH   2   3
ENDBRANCH   1   2
BRANCH   1   9
HETATM    9  S   UNK N   1       3.140   1.753  -0.013  0.00  0.00    -0.161 SA
BRANCH   9  10
HETATM   10  C   UNK N   1       4.563   1.202   0.980  0.00  0.00     0.162 C 
BRANCH  10  11
HETATM   11  C   UNK N   1       5.342   0.158   0.244  0.00  0.00     0.241 C 
HETATM   12  O   UNK N   1       4.858  -0.949   0.061  0.00  0.00    -0.287 OA
BRANCH  11  13
HETATM   13  C   UNK N   1       6.713   0.479  -0.270  0.00  0.00     0.451 C 
HETATM   14  F   UNK N   1       7.535   0.827   0.785  0.00  0.00    -0.163 F 
HETATM   15  F   UNK N   1       7.257  -0.612  -0.926  0.00  0.00    -0.163 F 
HETATM   16  F   UNK N   1       6.631   1.539  -1.155  0.00  0.00    -0.163 F 
ENDBRANCH  11  13
ENDBRANCH  10  11
ENDBRANCH   9  10
ENDBRANCH   1   9
TORSDOF 10
