REMARK  6 active torsions:
REMARK  status: ('A' for Active; 'I' for Inactive)
REMARK    1  A    between atoms: C_6  and  C_7 
REMARK       I    between atoms: N_16  and  C_17 
REMARK    2  A    between atoms: C_17  and  C_19 
REMARK    3  A    between atoms: C_23  and  C_24 
REMARK    4  A    between atoms: C_24  and  C_25 
REMARK    5  A    between atoms: C_24  and  O_29 
REMARK    6  A    between atoms: C_24  and  O_30 
ROOT
HETATM    1  C   UNK N   1       6.474  41.062  -0.106  0.00  0.00     0.061 A 
HETATM    2  C   UNK N   1       5.535  42.046  -0.383  0.00  0.00     0.120 A 
HETATM    3  N   UNK N   1       6.116  43.257  -0.183  0.00  0.00    -0.352 N 
ATOM      4  HN  UNK N   1       5.689  44.175  -0.302  1.00  0.00     0.166 HD
HETATM    5  C   UNK N   1       7.378  42.986   0.206  0.00  0.00     0.102 A 
HETATM    6  C   UNK N   1       8.418  44.010   0.579  0.00  0.00     0.202 C 
HETATM    7  N   UNK N   1       7.617  41.665   0.264  0.00  0.00    -0.332 N 
HETATM    8  C   UNK N   1       8.870  41.055   0.699  0.00  0.00     0.150 C 
HETATM    9  C   UNK N   1       9.710  42.076   1.452  0.00  0.00     0.147 C 
HETATM   10  N   UNK N   1       9.696  43.330   0.729  0.00  0.00    -0.339 N 
HETATM   11  C   UNK N   1      10.827  43.821   0.131  0.00  0.00     0.261 C 
HETATM   12  O   UNK N   1      10.790  44.909  -0.428  0.00  0.00    -0.267 OA
ENDROOT
BRANCH  11  13
HETATM   13  C   UNK N   1      12.104  43.048   0.089  0.00  0.00     0.073 A 
HETATM   14  S   UNK N   1      13.518  43.553  -0.616  0.00  0.00    -0.083 SA
HETATM   15  C   UNK N   1      14.430  42.177  -0.406  0.00  0.00     0.054 A 
HETATM   16  C   UNK N   1      13.623  41.241   0.248  0.00  0.00     0.022 A 
HETATM   17  C   UNK N   1      12.318  41.730   0.522  0.00  0.00     0.026 A 
BRANCH  15  18
HETATM   18  C   UNK N   1      15.826  41.957  -0.852  0.00  0.00     0.297 C 
BRANCH  18  19
HETATM   19  C   UNK N   1      16.733  42.366   0.291  0.00  0.00     0.450 C 
HETATM   20  F   UNK N   1      18.055  42.177  -0.075  0.00  0.00    -0.165 F 
HETATM   21  F   UNK N   1      16.478  41.602   1.420  0.00  0.00    -0.165 F 
HETATM   22  F   UNK N   1      16.553  43.703   0.606  0.00  0.00    -0.165 F 
ENDBRANCH  18  19
BRANCH  18  23
HETATM   23  O   UNK N   1      16.029  40.647  -1.107  0.00  0.00    -0.354 OA
HETATM   24  H   UNK N   1      15.312  40.071  -1.284  0.00  0.00     0.213 HD
ENDBRANCH  18  23
BRANCH  18  25
HETATM   25  O   UNK N   1      16.101  42.737  -1.918  0.00  0.00    -0.354 OA
HETATM   26  H   UNK N   1      16.665  42.843  -2.658  0.00  0.00     0.213 HD
ENDBRANCH  18  25
ENDBRANCH  15  18
ENDBRANCH  11  13
BRANCH   1  27
HETATM   27  C   UNK N   1       6.258  39.594  -0.162  0.00  0.00    -0.008 A 
HETATM   28  C   UNK N   1       7.322  38.704   0.059  0.00  0.00     0.014 A 
HETATM   29  C   UNK N   1       7.117  37.324   0.026  0.00  0.00     0.001 A 
HETATM   30  C   UNK N   1       5.841  36.817  -0.222  0.00  0.00     0.000 A 
HETATM   31  C   UNK N   1       4.774  37.691  -0.445  0.00  0.00     0.001 A 
HETATM   32  C   UNK N   1       4.981  39.075  -0.419  0.00  0.00     0.014 A 
ENDBRANCH   1  27
TORSDOF 6
