MODEL 1
REMARK VINA RESULT:      -8.2      0.000      0.000
REMARK  6 active torsions:
REMARK  status: ('A' for Active; 'I' for Inactive)
REMARK    1  A    between atoms: C_6  and  C_7 
REMARK       I    between atoms: N_16  and  C_17 
REMARK    2  A    between atoms: C_17  and  C_19 
REMARK    3  A    between atoms: C_23  and  C_24 
REMARK    4  A    between atoms: C_24  and  C_25 
REMARK    5  A    between atoms: C_24  and  O_29 
REMARK    6  A    between atoms: C_24  and  O_30 
ROOT
HETATM    1  C   UNK N   1      36.692  11.600  14.779  0.00  0.00     0.061 A 
HETATM    2  C   UNK N   1      37.630  10.581  14.687  0.00  0.00     0.120 A 
HETATM    3  N   UNK N   1      37.850  10.323  13.372  0.00  0.00    -0.352 N 
ATOM      4  HN  UNK N   1      38.484   9.629  12.976  1.00  0.00     0.166 HD
HETATM    5  C   UNK N   1      37.052  11.179  12.703  0.00  0.00     0.102 A 
HETATM    6  C   UNK N   1      36.915  11.259  11.205  0.00  0.00     0.202 C 
HETATM    7  N   UNK N   1      36.339  11.959  13.533  0.00  0.00    -0.332 N 
HETATM    8  C   UNK N   1      35.351  12.949  13.114  0.00  0.00     0.150 C 
HETATM    9  C   UNK N   1      34.945  12.699  11.670  0.00  0.00     0.147 C 
HETATM   10  N   UNK N   1      36.130  12.441  10.880  0.00  0.00    -0.339 N 
HETATM   11  C   UNK N   1      36.551  13.320   9.917  0.00  0.00     0.261 C 
HETATM   12  O   UNK N   1      37.528  13.045   9.234  0.00  0.00    -0.267 OA
ENDROOT
BRANCH  11  13
HETATM   13  C   UNK N   1      35.887  14.640   9.700  0.00  0.00     0.073 A 
HETATM   14  S   UNK N   1      35.235  15.172   8.271  0.00  0.00    -0.083 SA
HETATM   15  C   UNK N   1      34.816  16.717   8.725  0.00  0.00     0.054 A 
HETATM   16  C   UNK N   1      35.190  16.872  10.064  0.00  0.00     0.022 A 
HETATM   17  C   UNK N   1      35.793  15.707  10.608  0.00  0.00     0.026 A 
BRANCH  15  18
HETATM   18  C   UNK N   1      34.193  17.758   7.874  0.00  0.00     0.297 C 
BRANCH  18  19
HETATM   19  C   UNK N   1      32.691  17.605   8.003  0.00  0.00     0.450 C 
HETATM   20  F   UNK N   1      32.122  17.527   6.743  0.00  0.00    -0.165 F 
HETATM   21  F   UNK N   1      32.140  18.692   8.665  0.00  0.00    -0.165 F 
HETATM   22  F   UNK N   1      32.374  16.450   8.699  0.00  0.00    -0.165 F 
ENDBRANCH  18  19
BRANCH  18  23
HETATM   23  O   UNK N   1      34.535  18.986   8.319  0.00  0.00    -0.354 OA
HETATM   24  H   UNK N   1      34.239  19.760   7.883  0.00  0.00     0.213 HD
ENDBRANCH  18  23
BRANCH  18  25
HETATM   25  O   UNK N   1      34.534  17.566   6.582  0.00  0.00    -0.354 OA
HETATM   26  H   UNK N   1      34.585  16.933   5.895  0.00  0.00     0.213 HD
ENDBRANCH  18  25
ENDBRANCH  15  18
ENDBRANCH  11  13
BRANCH   1  27
HETATM   27  C   UNK N   1      36.133  12.177  16.028  0.00  0.00    -0.008 A 
HETATM   28  C   UNK N   1      35.698  11.342  17.071  0.00  0.00     0.014 A 
HETATM   29  C   UNK N   1      35.191  11.882  18.253  0.00  0.00     0.001 A 
HETATM   30  C   UNK N   1      35.119  13.266  18.410  0.00  0.00     0.000 A 
HETATM   31  C   UNK N   1      35.547  14.108  17.380  0.00  0.00     0.001 A 
HETATM   32  C   UNK N   1      36.049  13.567  16.191  0.00  0.00     0.014 A 
ENDBRANCH   1  27
TORSDOF 6
ENDMDL
MODEL 2
REMARK VINA RESULT:      -7.8     12.885     16.838
REMARK  6 active torsions:
REMARK  status: ('A' for Active; 'I' for Inactive)
REMARK    1  A    between atoms: C_6  and  C_7 
REMARK       I    between atoms: N_16  and  C_17 
REMARK    2  A    between atoms: C_17  and  C_19 
REMARK    3  A    between atoms: C_23  and  C_24 
REMARK    4  A    between atoms: C_24  and  C_25 
REMARK    5  A    between atoms: C_24  and  O_29 
REMARK    6  A    between atoms: C_24  and  O_30 
ROOT
HETATM    1  C   UNK N   1      20.527  15.431   1.103  0.00  0.00     0.061 A 
HETATM    2  C   UNK N   1      19.343  15.881   0.536  0.00  0.00     0.120 A 
HETATM    3  N   UNK N   1      19.103  17.137   0.993  0.00  0.00    -0.352 N 
ATOM      4  HN  UNK N   1      18.312  17.738   0.762  1.00  0.00     0.166 HD
HETATM    5  C   UNK N   1      20.133  17.419   1.815  0.00  0.00     0.102 A 
HETATM    6  C   UNK N   1      20.305  18.696   2.596  0.00  0.00     0.202 C 
HETATM    7  N   UNK N   1      21.005  16.401   1.901  0.00  0.00    -0.332 N 
HETATM    8  C   UNK N   1      22.194  16.382   2.748  0.00  0.00     0.150 C 
HETATM    9  C   UNK N   1      22.096  17.471   3.805  0.00  0.00     0.147 C 
HETATM   10  N   UNK N   1      21.635  18.696   3.185  0.00  0.00    -0.339 N 
HETATM   11  C   UNK N   1      22.451  19.792   3.078  0.00  0.00     0.261 C 
HETATM   12  O   UNK N   1      22.011  20.826   2.594  0.00  0.00    -0.267 OA
ENDROOT
BRANCH  11  13
HETATM   13  C   UNK N   1      23.887  19.757   3.486  0.00  0.00     0.073 A 
HETATM   14  S   UNK N   1      24.495  18.991   4.826  0.00  0.00    -0.083 SA
HETATM   15  C   UNK N   1      26.083  19.477   4.717  0.00  0.00     0.054 A 
HETATM   16  C   UNK N   1      26.191  20.287   3.583  0.00  0.00     0.022 A 
HETATM   17  C   UNK N   1      24.958  20.446   2.895  0.00  0.00     0.026 A 
BRANCH  15  18
HETATM   18  C   UNK N   1      27.181  19.148   5.656  0.00  0.00     0.297 C 
BRANCH  18  19
HETATM   19  C   UNK N   1      27.295  20.298   6.636  0.00  0.00     0.450 C 
HETATM   20  F   UNK N   1      27.870  19.849   7.813  0.00  0.00    -0.165 F 
HETATM   21  F   UNK N   1      26.044  20.819   6.931  0.00  0.00    -0.165 F 
HETATM   22  F   UNK N   1      28.089  21.308   6.118  0.00  0.00    -0.165 F 
ENDBRANCH  18  19
BRANCH  18  23
HETATM   23  O   UNK N   1      26.879  18.029   6.348  0.00  0.00    -0.354 OA
HETATM   24  H   UNK N   1      26.325  17.367   5.982  0.00  0.00     0.213 HD
ENDBRANCH  18  23
BRANCH  18  25
HETATM   25  O   UNK N   1      28.347  19.038   4.986  0.00  0.00    -0.354 OA
HETATM   26  H   UNK N   1      29.117  19.500   4.717  0.00  0.00     0.213 HD
ENDBRANCH  18  25
ENDBRANCH  15  18
ENDBRANCH  11  13
BRANCH   1  27
HETATM   27  C   UNK N   1      21.151  14.098   0.906  0.00  0.00    -0.008 A 
HETATM   28  C   UNK N   1      20.383  12.926   1.005  0.00  0.00     0.014 A 
HETATM   29  C   UNK N   1      20.962  11.673   0.801  0.00  0.00     0.001 A 
HETATM   30  C   UNK N   1      22.319  11.578   0.488  0.00  0.00     0.000 A 
HETATM   31  C   UNK N   1      23.095  12.736   0.388  0.00  0.00     0.001 A 
HETATM   32  C   UNK N   1      22.515  13.992   0.599  0.00  0.00     0.014 A 
ENDBRANCH   1  27
TORSDOF 6
ENDMDL
MODEL 3
REMARK VINA RESULT:      -7.7     13.757     16.858
REMARK  6 active torsions:
REMARK  status: ('A' for Active; 'I' for Inactive)
REMARK    1  A    between atoms: C_6  and  C_7 
REMARK       I    between atoms: N_16  and  C_17 
REMARK    2  A    between atoms: C_17  and  C_19 
REMARK    3  A    between atoms: C_23  and  C_24 
REMARK    4  A    between atoms: C_24  and  C_25 
REMARK    5  A    between atoms: C_24  and  O_29 
REMARK    6  A    between atoms: C_24  and  O_30 
ROOT
HETATM    1  C   UNK N   1      22.447  19.247   3.569  0.00  0.00     0.061 A 
HETATM    2  C   UNK N   1      21.461  20.158   3.217  0.00  0.00     0.120 A 
HETATM    3  N   UNK N   1      20.270  19.506   3.189  0.00  0.00    -0.352 N 
ATOM      4  HN  UNK N   1      19.356  19.897   2.966  1.00  0.00     0.166 HD
HETATM    5  C   UNK N   1      20.555  18.230   3.518  0.00  0.00     0.102 A 
HETATM    6  C   UNK N   1      19.560  17.102   3.593  0.00  0.00     0.202 C 
HETATM    7  N   UNK N   1      21.867  18.048   3.749  0.00  0.00    -0.332 N 
HETATM    8  C   UNK N   1      22.494  16.771   4.075  0.00  0.00     0.150 C 
HETATM    9  C   UNK N   1      21.555  15.627   3.725  0.00  0.00     0.147 C 
HETATM   10  N   UNK N   1      20.221  15.948   4.185  0.00  0.00    -0.339 N 
HETATM   11  C   UNK N   1      19.630  15.246   5.203  0.00  0.00     0.261 C 
HETATM   12  O   UNK N   1      18.481  15.512   5.532  0.00  0.00    -0.267 OA
ENDROOT
BRANCH  11  13
HETATM   13  C   UNK N   1      20.358  14.193   5.971  0.00  0.00     0.073 A 
HETATM   14  S   UNK N   1      21.469  14.465   7.173  0.00  0.00    -0.083 SA
HETATM   15  C   UNK N   1      21.946  12.897   7.459  0.00  0.00     0.054 A 
HETATM   16  C   UNK N   1      21.222  12.078   6.587  0.00  0.00     0.022 A 
HETATM   17  C   UNK N   1      20.335  12.807   5.751  0.00  0.00     0.026 A 
BRANCH  15  18
HETATM   18  C   UNK N   1      22.968  12.440   8.430  0.00  0.00     0.297 C 
BRANCH  18  19
HETATM   19  C   UNK N   1      22.301  12.374   9.789  0.00  0.00     0.450 C 
HETATM   20  F   UNK N   1      22.647  11.191  10.419  0.00  0.00    -0.165 F 
HETATM   21  F   UNK N   1      20.920  12.414   9.662  0.00  0.00    -0.165 F 
HETATM   22  F   UNK N   1      22.707  13.431  10.587  0.00  0.00    -0.165 F 
ENDBRANCH  18  19
BRANCH  18  23
HETATM   23  O   UNK N   1      23.393  11.201   8.105  0.00  0.00    -0.354 OA
HETATM   24  H   UNK N   1      23.439  10.923   7.212  0.00  0.00     0.213 HD
ENDBRANCH  18  23
BRANCH  18  25
HETATM   25  O   UNK N   1      23.980  13.331   8.492  0.00  0.00    -0.354 OA
HETATM   26  H   UNK N   1      24.680  13.721   8.008  0.00  0.00     0.213 HD
ENDBRANCH  18  25
ENDBRANCH  15  18
ENDBRANCH  11  13
BRANCH   1  27
HETATM   27  C   UNK N   1      23.902  19.522   3.687  0.00  0.00    -0.008 A 
HETATM   28  C   UNK N   1      24.555  20.341   2.752  0.00  0.00     0.014 A 
HETATM   29  C   UNK N   1      25.918  20.616   2.873  0.00  0.00     0.001 A 
HETATM   30  C   UNK N   1      26.643  20.080   3.937  0.00  0.00     0.000 A 
HETATM   31  C   UNK N   1      26.006  19.263   4.875  0.00  0.00     0.001 A 
HETATM   32  C   UNK N   1      24.641  18.981   4.749  0.00  0.00     0.014 A 
ENDBRANCH   1  27
TORSDOF 6
ENDMDL
MODEL 4
REMARK VINA RESULT:      -7.7      3.343      5.149
REMARK  6 active torsions:
REMARK  status: ('A' for Active; 'I' for Inactive)
REMARK    1  A    between atoms: C_6  and  C_7 
REMARK       I    between atoms: N_16  and  C_17 
REMARK    2  A    between atoms: C_17  and  C_19 
REMARK    3  A    between atoms: C_23  and  C_24 
REMARK    4  A    between atoms: C_24  and  C_25 
REMARK    5  A    between atoms: C_24  and  O_29 
REMARK    6  A    between atoms: C_24  and  O_30 
ROOT
HETATM    1  C   UNK N   1      36.068  13.812  10.669  0.00  0.00     0.061 A 
HETATM    2  C   UNK N   1      37.314  13.731  10.063  0.00  0.00     0.120 A 
HETATM    3  N   UNK N   1      37.185  14.124   8.769  0.00  0.00    -0.352 N 
ATOM      4  HN  UNK N   1      37.918  14.177   8.063  1.00  0.00     0.166 HD
HETATM    5  C   UNK N   1      35.881  14.431   8.620  0.00  0.00     0.102 A 
HETATM    6  C   UNK N   1      35.232  14.893   7.341  0.00  0.00     0.202 C 
HETATM    7  N   UNK N   1      35.184  14.246   9.754  0.00  0.00    -0.332 N 
HETATM    8  C   UNK N   1      33.745  14.443   9.898  0.00  0.00     0.150 C 
HETATM    9  C   UNK N   1      33.087  14.485   8.527  0.00  0.00     0.147 C 
HETATM   10  N   UNK N   1      33.875  15.322   7.647  0.00  0.00    -0.339 N 
HETATM   11  C   UNK N   1      33.396  16.519   7.184  0.00  0.00     0.261 C 
HETATM   12  O   UNK N   1      34.069  17.176   6.400  0.00  0.00    -0.267 OA
ENDROOT
BRANCH  11  13
HETATM   13  C   UNK N   1      32.092  17.086   7.643  0.00  0.00     0.073 A 
HETATM   14  S   UNK N   1      30.605  16.738   6.996  0.00  0.00    -0.083 SA
HETATM   15  C   UNK N   1      29.673  17.796   7.881  0.00  0.00     0.054 A 
HETATM   16  C   UNK N   1      30.533  18.483   8.744  0.00  0.00     0.022 A 
HETATM   17  C   UNK N   1      31.889  18.086   8.607  0.00  0.00     0.026 A 
BRANCH  15  18
HETATM   18  C   UNK N   1      28.211  18.006   7.764  0.00  0.00     0.297 C 
BRANCH  18  19
HETATM   19  C   UNK N   1      27.983  18.948   6.599  0.00  0.00     0.450 C 
HETATM   20  F   UNK N   1      28.136  20.257   7.024  0.00  0.00    -0.165 F 
HETATM   21  F   UNK N   1      26.702  18.800   6.089  0.00  0.00    -0.165 F 
HETATM   22  F   UNK N   1      28.898  18.707   5.587  0.00  0.00    -0.165 F 
ENDBRANCH  18  19
BRANCH  18  23
HETATM   23  O   UNK N   1      27.596  16.836   7.491  0.00  0.00    -0.354 OA
HETATM   24  H   UNK N   1      26.900  16.789   6.865  0.00  0.00     0.213 HD
ENDBRANCH  18  23
BRANCH  18  25
HETATM   25  O   UNK N   1      27.735  18.588   8.885  0.00  0.00    -0.354 OA
HETATM   26  H   UNK N   1      27.395  18.424   9.742  0.00  0.00     0.213 HD
ENDBRANCH  18  25
ENDBRANCH  15  18
ENDBRANCH  11  13
BRANCH   1  27
HETATM   27  C   UNK N   1      35.742  13.445  12.070  0.00  0.00    -0.008 A 
HETATM   28  C   UNK N   1      34.980  12.299  12.352  0.00  0.00     0.014 A 
HETATM   29  C   UNK N   1      34.688  11.943  13.670  0.00  0.00     0.001 A 
HETATM   30  C   UNK N   1      35.163  12.726  14.723  0.00  0.00     0.000 A 
HETATM   31  C   UNK N   1      35.920  13.869  14.456  0.00  0.00     0.001 A 
HETATM   32  C   UNK N   1      36.207  14.231  13.134  0.00  0.00     0.014 A 
ENDBRANCH   1  27
TORSDOF 6
ENDMDL
MODEL 5
REMARK VINA RESULT:      -7.6     11.642     15.229
REMARK  6 active torsions:
REMARK  status: ('A' for Active; 'I' for Inactive)
REMARK    1  A    between atoms: C_6  and  C_7 
REMARK       I    between atoms: N_16  and  C_17 
REMARK    2  A    between atoms: C_17  and  C_19 
REMARK    3  A    between atoms: C_23  and  C_24 
REMARK    4  A    between atoms: C_24  and  C_25 
REMARK    5  A    between atoms: C_24  and  O_29 
REMARK    6  A    between atoms: C_24  and  O_30 
ROOT
HETATM    1  C   UNK N   1      27.055  19.431   5.143  0.00  0.00     0.061 A 
HETATM    2  C   UNK N   1      27.405  20.574   4.436  0.00  0.00     0.120 A 
HETATM    3  N   UNK N   1      26.388  20.878   3.590  0.00  0.00    -0.352 N 
ATOM      4  HN  UNK N   1      26.339  21.660   2.937  1.00  0.00     0.166 HD
HETATM    5  C   UNK N   1      25.455  19.927   3.797  0.00  0.00     0.102 A 
HETATM    6  C   UNK N   1      24.143  19.813   3.066  0.00  0.00     0.202 C 
HETATM    7  N   UNK N   1      25.838  19.038   4.729  0.00  0.00    -0.332 N 
HETATM    8  C   UNK N   1      25.071  17.865   5.139  0.00  0.00     0.150 C 
HETATM    9  C   UNK N   1      23.997  17.561   4.105  0.00  0.00     0.147 C 
HETATM   10  N   UNK N   1      23.340  18.793   3.724  0.00  0.00    -0.339 N 
HETATM   11  C   UNK N   1      22.030  19.032   4.047  0.00  0.00     0.261 C 
HETATM   12  O   UNK N   1      21.492  20.063   3.665  0.00  0.00    -0.267 OA
ENDROOT
BRANCH  11  13
HETATM   13  C   UNK N   1      21.238  18.097   4.901  0.00  0.00     0.073 A 
HETATM   14  S   UNK N   1      21.262  18.046   6.559  0.00  0.00    -0.083 SA
HETATM   15  C   UNK N   1      20.284  16.722   6.801  0.00  0.00     0.054 A 
HETATM   16  C   UNK N   1      19.893  16.259   5.541  0.00  0.00     0.022 A 
HETATM   17  C   UNK N   1      20.431  17.030   4.477  0.00  0.00     0.026 A 
BRANCH  15  18
HETATM   18  C   UNK N   1      19.913  16.114   8.101  0.00  0.00     0.297 C 
BRANCH  18  19
HETATM   19  C   UNK N   1      18.640  16.791   8.568  0.00  0.00     0.450 C 
HETATM   20  F   UNK N   1      18.135  16.121   9.669  0.00  0.00    -0.165 F 
HETATM   21  F   UNK N   1      17.679  16.776   7.568  0.00  0.00    -0.165 F 
HETATM   22  F   UNK N   1      18.888  18.105   8.930  0.00  0.00    -0.165 F 
ENDBRANCH  18  19
BRANCH  18  23
HETATM   23  O   UNK N   1      19.659  14.798   7.941  0.00  0.00    -0.354 OA
HETATM   24  H   UNK N   1      20.328  14.156   8.075  0.00  0.00     0.213 HD
ENDBRANCH  18  23
BRANCH  18  25
HETATM   25  O   UNK N   1      20.880  16.344   9.014  0.00  0.00    -0.354 OA
HETATM   26  H   UNK N   1      21.207  16.962   9.637  0.00  0.00     0.213 HD
ENDBRANCH  18  25
ENDBRANCH  15  18
ENDBRANCH  11  13
BRANCH   1  27
HETATM   27  C   UNK N   1      27.887  18.728   6.152  0.00  0.00    -0.008 A 
HETATM   28  C   UNK N   1      28.647  17.601   5.795  0.00  0.00     0.014 A 
HETATM   29  C   UNK N   1      29.444  16.950   6.738  0.00  0.00     0.001 A 
HETATM   30  C   UNK N   1      29.496  17.424   8.049  0.00  0.00     0.000 A 
HETATM   31  C   UNK N   1      28.744  18.542   8.418  0.00  0.00     0.001 A 
HETATM   32  C   UNK N   1      27.939  19.191   7.474  0.00  0.00     0.014 A 
ENDBRANCH   1  27
TORSDOF 6
ENDMDL
MODEL 6
REMARK VINA RESULT:      -7.6     11.456     13.152
REMARK  6 active torsions:
REMARK  status: ('A' for Active; 'I' for Inactive)
REMARK    1  A    between atoms: C_6  and  C_7 
REMARK       I    between atoms: N_16  and  C_17 
REMARK    2  A    between atoms: C_17  and  C_19 
REMARK    3  A    between atoms: C_23  and  C_24 
REMARK    4  A    between atoms: C_24  and  C_25 
REMARK    5  A    between atoms: C_24  and  O_29 
REMARK    6  A    between atoms: C_24  and  O_30 
ROOT
HETATM    1  C   UNK N   1      22.192  12.555   7.543  0.00  0.00     0.061 A 
HETATM    2  C   UNK N   1      21.458  11.651   6.787  0.00  0.00     0.120 A 
HETATM    3  N   UNK N   1      21.267  12.185   5.553  0.00  0.00    -0.352 N 
ATOM      4  HN  UNK N   1      20.766  11.767   4.769  1.00  0.00     0.166 HD
HETATM    5  C   UNK N   1      21.879  13.386   5.586  0.00  0.00     0.102 A 
HETATM    6  C   UNK N   1      21.918  14.380   4.455  0.00  0.00     0.202 C 
HETATM    7  N   UNK N   1      22.443  13.634   6.780  0.00  0.00    -0.332 N 
HETATM    8  C   UNK N   1      23.134  14.867   7.145  0.00  0.00     0.150 C 
HETATM    9  C   UNK N   1      22.783  15.970   6.157  0.00  0.00     0.147 C 
HETATM   10  N   UNK N   1      22.849  15.441   4.811  0.00  0.00    -0.339 N 
HETATM   11  C   UNK N   1      23.807  15.861   3.926  0.00  0.00     0.261 C 
HETATM   12  O   UNK N   1      23.800  15.430   2.780  0.00  0.00    -0.267 OA
ENDROOT
BRANCH  11  13
HETATM   13  C   UNK N   1      24.903  16.794   4.323  0.00  0.00     0.073 A 
HETATM   14  S   UNK N   1      25.015  18.393   3.895  0.00  0.00    -0.083 SA
HETATM   15  C   UNK N   1      26.503  18.744   4.553  0.00  0.00     0.054 A 
HETATM   16  C   UNK N   1      26.977  17.573   5.152  0.00  0.00     0.022 A 
HETATM   17  C   UNK N   1      26.080  16.480   5.020  0.00  0.00     0.026 A 
BRANCH  15  18
HETATM   18  C   UNK N   1      27.219  20.040   4.496  0.00  0.00     0.297 C 
BRANCH  18  19
HETATM   19  C   UNK N   1      27.109  20.675   5.867  0.00  0.00     0.450 C 
HETATM   20  F   UNK N   1      28.043  20.108   6.718  0.00  0.00    -0.165 F 
HETATM   21  F   UNK N   1      25.847  20.473   6.405  0.00  0.00    -0.165 F 
HETATM   22  F   UNK N   1      27.351  22.038   5.798  0.00  0.00    -0.165 F 
ENDBRANCH  18  19
BRANCH  18  23
HETATM   23  O   UNK N   1      28.525  19.835   4.226  0.00  0.00    -0.354 OA
HETATM   24  H   UNK N   1      28.819  19.039   3.830  0.00  0.00     0.213 HD
ENDBRANCH  18  23
BRANCH  18  25
HETATM   25  O   UNK N   1      26.630  20.856   3.597  0.00  0.00    -0.354 OA
HETATM   26  H   UNK N   1      26.770  21.583   3.023  0.00  0.00     0.213 HD
ENDBRANCH  18  25
ENDBRANCH  15  18
ENDBRANCH  11  13
BRANCH   1  27
HETATM   27  C   UNK N   1      22.600  12.394   8.961  0.00  0.00    -0.008 A 
HETATM   28  C   UNK N   1      21.651  12.470   9.994  0.00  0.00     0.014 A 
HETATM   29  C   UNK N   1      22.030  12.300  11.326  0.00  0.00     0.001 A 
HETATM   30  C   UNK N   1      23.364  12.044  11.641  0.00  0.00     0.000 A 
HETATM   31  C   UNK N   1      24.319  11.967  10.624  0.00  0.00     0.001 A 
HETATM   32  C   UNK N   1      23.941  12.145   9.289  0.00  0.00     0.014 A 
ENDBRANCH   1  27
TORSDOF 6
ENDMDL
MODEL 7
REMARK VINA RESULT:      -7.4      5.016      9.894
REMARK  6 active torsions:
REMARK  status: ('A' for Active; 'I' for Inactive)
REMARK    1  A    between atoms: C_6  and  C_7 
REMARK       I    between atoms: N_16  and  C_17 
REMARK    2  A    between atoms: C_17  and  C_19 
REMARK    3  A    between atoms: C_23  and  C_24 
REMARK    4  A    between atoms: C_24  and  C_25 
REMARK    5  A    between atoms: C_24  and  O_29 
REMARK    6  A    between atoms: C_24  and  O_30 
ROOT
HETATM    1  C   UNK N   1      28.844  16.768   5.142  0.00  0.00     0.061 A 
HETATM    2  C   UNK N   1      28.122  15.868   4.371  0.00  0.00     0.120 A 
HETATM    3  N   UNK N   1      28.893  14.768   4.167  0.00  0.00    -0.352 N 
ATOM      4  HN  UNK N   1      28.648  13.930   3.641  1.00  0.00     0.166 HD
HETATM    5  C   UNK N   1      30.050  15.022   4.811  0.00  0.00     0.102 A 
HETATM    6  C   UNK N   1      31.246  14.107   4.852  0.00  0.00     0.202 C 
HETATM    7  N   UNK N   1      30.046  16.227   5.404  0.00  0.00    -0.332 N 
HETATM    8  C   UNK N   1      31.168  16.810   6.134  0.00  0.00     0.150 C 
HETATM    9  C   UNK N   1      32.451  16.067   5.791  0.00  0.00     0.147 C 
HETATM   10  N   UNK N   1      32.197  14.642   5.816  0.00  0.00    -0.339 N 
HETATM   11  C   UNK N   1      32.763  13.833   6.767  0.00  0.00     0.261 C 
HETATM   12  O   UNK N   1      32.566  12.626   6.726  0.00  0.00    -0.267 OA
ENDROOT
BRANCH  11  13
HETATM   13  C   UNK N   1      33.576  14.379   7.894  0.00  0.00     0.073 A 
HETATM   14  S   UNK N   1      35.176  14.048   8.182  0.00  0.00    -0.083 SA
HETATM   15  C   UNK N   1      35.363  14.859   9.623  0.00  0.00     0.054 A 
HETATM   16  C   UNK N   1      34.129  15.437   9.937  0.00  0.00     0.022 A 
HETATM   17  C   UNK N   1      33.128  15.164   8.968  0.00  0.00     0.026 A 
BRANCH  15  18
HETATM   18  C   UNK N   1      36.592  14.936  10.448  0.00  0.00     0.297 C 
BRANCH  18  19
HETATM   19  C   UNK N   1      36.379  14.047  11.656  0.00  0.00     0.450 C 
HETATM   20  F   UNK N   1      37.543  13.350  11.931  0.00  0.00    -0.165 F 
HETATM   21  F   UNK N   1      35.365  13.131  11.421  0.00  0.00    -0.165 F 
HETATM   22  F   UNK N   1      36.049  14.803  12.770  0.00  0.00    -0.165 F 
ENDBRANCH  18  19
BRANCH  18  23
HETATM   23  O   UNK N   1      37.647  14.461   9.752  0.00  0.00    -0.354 OA
HETATM   24  H   UNK N   1      38.462  14.275  10.175  0.00  0.00     0.213 HD
ENDBRANCH  18  23
BRANCH  18  25
HETATM   25  O   UNK N   1      36.785  16.202  10.875  0.00  0.00    -0.354 OA
HETATM   26  H   UNK N   1      36.598  17.102  10.697  0.00  0.00     0.213 HD
ENDBRANCH  18  25
ENDBRANCH  15  18
ENDBRANCH  11  13
BRANCH   1  27
HETATM   27  C   UNK N   1      28.397  18.117   5.575  0.00  0.00    -0.008 A 
HETATM   28  C   UNK N   1      28.204  18.405   6.936  0.00  0.00     0.014 A 
HETATM   29  C   UNK N   1      27.804  19.678   7.346  0.00  0.00     0.001 A 
HETATM   30  C   UNK N   1      27.598  20.681   6.398  0.00  0.00     0.000 A 
HETATM   31  C   UNK N   1      27.785  20.407   5.041  0.00  0.00     0.001 A 
HETATM   32  C   UNK N   1      28.180  19.129   4.629  0.00  0.00     0.014 A 
ENDBRANCH   1  27
TORSDOF 6
ENDMDL
MODEL 8
REMARK VINA RESULT:      -7.3     10.467     13.928
REMARK  6 active torsions:
REMARK  status: ('A' for Active; 'I' for Inactive)
REMARK    1  A    between atoms: C_6  and  C_7 
REMARK       I    between atoms: N_16  and  C_17 
REMARK    2  A    between atoms: C_17  and  C_19 
REMARK    3  A    between atoms: C_23  and  C_24 
REMARK    4  A    between atoms: C_24  and  C_25 
REMARK    5  A    between atoms: C_24  and  O_29 
REMARK    6  A    between atoms: C_24  and  O_30 
ROOT
HETATM    1  C   UNK N   1      27.539  19.080   6.029  0.00  0.00     0.061 A 
HETATM    2  C   UNK N   1      27.569  20.376   5.535  0.00  0.00     0.120 A 
HETATM    3  N   UNK N   1      26.562  20.511   4.633  0.00  0.00    -0.352 N 
ATOM      4  HN  UNK N   1      26.320  21.343   4.096  1.00  0.00     0.166 HD
HETATM    5  C   UNK N   1      25.952  19.310   4.600  0.00  0.00     0.102 A 
HETATM    6  C   UNK N   1      24.785  18.945   3.720  0.00  0.00     0.202 C 
HETATM    7  N   UNK N   1      26.527  18.426   5.433  0.00  0.00    -0.332 N 
HETATM    8  C   UNK N   1      26.129  17.030   5.585  0.00  0.00     0.150 C 
HETATM    9  C   UNK N   1      25.264  16.606   4.407  0.00  0.00     0.147 C 
HETATM   10  N   UNK N   1      24.289  17.641   4.135  0.00  0.00    -0.339 N 
HETATM   11  C   UNK N   1      22.951  17.432   4.342  0.00  0.00     0.261 C 
HETATM   12  O   UNK N   1      22.151  18.311   4.053  0.00  0.00    -0.267 OA
ENDROOT
BRANCH  11  13
HETATM   13  C   UNK N   1      22.429  16.178   4.963  0.00  0.00     0.073 A 
HETATM   14  S   UNK N   1      21.830  16.037   6.503  0.00  0.00    -0.083 SA
HETATM   15  C   UNK N   1      21.578  14.393   6.545  0.00  0.00     0.054 A 
HETATM   16  C   UNK N   1      21.972  13.882   5.304  0.00  0.00     0.022 A 
HETATM   17  C   UNK N   1      22.451  14.884   4.419  0.00  0.00     0.026 A 
BRANCH  15  18
HETATM   18  C   UNK N   1      21.065  13.599   7.687  0.00  0.00     0.297 C 
BRANCH  18  19
HETATM   19  C   UNK N   1      22.180  13.509   8.709  0.00  0.00     0.450 C 
HETATM   20  F   UNK N   1      21.916  14.371   9.760  0.00  0.00    -0.165 F 
HETATM   21  F   UNK N   1      23.396  13.866   8.145  0.00  0.00    -0.165 F 
HETATM   22  F   UNK N   1      22.281  12.223   9.213  0.00  0.00    -0.165 F 
ENDBRANCH  18  19
BRANCH  18  23
HETATM   23  O   UNK N   1      20.017  14.231   8.256  0.00  0.00    -0.354 OA
HETATM   24  H   UNK N   1      19.253  13.760   8.522  0.00  0.00     0.213 HD
ENDBRANCH  18  23
BRANCH  18  25
HETATM   25  O   UNK N   1      20.754  12.350   7.281  0.00  0.00    -0.354 OA
HETATM   26  H   UNK N   1      20.053  11.789   7.015  0.00  0.00     0.213 HD
ENDBRANCH  18  25
ENDBRANCH  15  18
ENDBRANCH  11  13
BRANCH   1  27
HETATM   27  C   UNK N   1      28.481  18.488   7.014  0.00  0.00    -0.008 A 
HETATM   28  C   UNK N   1      29.513  17.633   6.594  0.00  0.00     0.014 A 
HETATM   29  C   UNK N   1      30.410  17.091   7.515  0.00  0.00     0.001 A 
HETATM   30  C   UNK N   1      30.289  17.405   8.870  0.00  0.00     0.000 A 
HETATM   31  C   UNK N   1      29.266  18.253   9.301  0.00  0.00     0.001 A 
HETATM   32  C   UNK N   1      28.362  18.791   8.377  0.00  0.00     0.014 A 
ENDBRANCH   1  27
TORSDOF 6
ENDMDL
MODEL 9
REMARK VINA RESULT:      -7.3     19.384     22.264
REMARK  6 active torsions:
REMARK  status: ('A' for Active; 'I' for Inactive)
REMARK    1  A    between atoms: C_6  and  C_7 
REMARK       I    between atoms: N_16  and  C_17 
REMARK    2  A    between atoms: C_17  and  C_19 
REMARK    3  A    between atoms: C_23  and  C_24 
REMARK    4  A    between atoms: C_24  and  C_25 
REMARK    5  A    between atoms: C_24  and  O_29 
REMARK    6  A    between atoms: C_24  and  O_30 
ROOT
HETATM    1  C   UNK N   1      29.635  21.967  -6.580  0.00  0.00     0.061 A 
HETATM    2  C   UNK N   1      29.654  21.265  -7.777  0.00  0.00     0.120 A 
HETATM    3  N   UNK N   1      28.544  21.599  -8.484  0.00  0.00    -0.352 N 
ATOM      4  HN  UNK N   1      28.269  21.254  -9.403  1.00  0.00     0.166 HD
HETATM    5  C   UNK N   1      27.883  22.483  -7.711  0.00  0.00     0.102 A 
HETATM    6  C   UNK N   1      26.563  23.127  -8.049  0.00  0.00     0.202 C 
HETATM    7  N   UNK N   1      28.521  22.719  -6.552  0.00  0.00    -0.332 N 
HETATM    8  C   UNK N   1      28.034  23.588  -5.485  0.00  0.00     0.150 C 
HETATM    9  C   UNK N   1      26.550  23.862  -5.676  0.00  0.00     0.147 C 
HETATM   10  N   UNK N   1      26.298  24.169  -7.068  0.00  0.00    -0.339 N 
HETATM   11  C   UNK N   1      25.906  25.421  -7.463  0.00  0.00     0.261 C 
HETATM   12  O   UNK N   1      25.653  25.630  -8.642  0.00  0.00    -0.267 OA
ENDROOT
BRANCH  11  13
HETATM   13  C   UNK N   1      25.826  26.567  -6.509  0.00  0.00     0.073 A 
HETATM   14  S   UNK N   1      27.078  27.574  -6.098  0.00  0.00    -0.083 SA
HETATM   15  C   UNK N   1      26.319  28.486  -4.932  0.00  0.00     0.054 A 
HETATM   16  C   UNK N   1      25.008  28.011  -4.822  0.00  0.00     0.022 A 
HETATM   17  C   UNK N   1      24.734  26.933  -5.705  0.00  0.00     0.026 A 
BRANCH  15  18
HETATM   18  C   UNK N   1      26.915  29.579  -4.127  0.00  0.00     0.297 C 
BRANCH  18  19
HETATM   19  C   UNK N   1      27.581  28.940  -2.925  0.00  0.00     0.450 C 
HETATM   20  F   UNK N   1      28.856  28.523  -3.268  0.00  0.00    -0.165 F 
HETATM   21  F   UNK N   1      26.862  27.837  -2.492  0.00  0.00    -0.165 F 
HETATM   22  F   UNK N   1      27.682  29.846  -1.882  0.00  0.00    -0.165 F 
ENDBRANCH  18  19
BRANCH  18  23
HETATM   23  O   UNK N   1      27.862  30.219  -4.846  0.00  0.00    -0.354 OA
HETATM   24  H   UNK N   1      27.649  30.653  -5.648  0.00  0.00     0.213 HD
ENDBRANCH  18  23
BRANCH  18  25
HETATM   25  O   UNK N   1      25.950  30.413  -3.690  0.00  0.00    -0.354 OA
HETATM   26  H   UNK N   1      25.668  30.940  -2.968  0.00  0.00     0.213 HD
ENDBRANCH  18  25
ENDBRANCH  15  18
ENDBRANCH  11  13
BRANCH   1  27
HETATM   27  C   UNK N   1      30.639  21.881  -5.489  0.00  0.00    -0.008 A 
HETATM   28  C   UNK N   1      31.824  22.632  -5.546  0.00  0.00     0.014 A 
HETATM   29  C   UNK N   1      32.760  22.568  -4.513  0.00  0.00     0.001 A 
HETATM   30  C   UNK N   1      32.518  21.754  -3.405  0.00  0.00     0.000 A 
HETATM   31  C   UNK N   1      31.344  21.000  -3.337  0.00  0.00     0.001 A 
HETATM   32  C   UNK N   1      30.408  21.060  -4.377  0.00  0.00     0.014 A 
ENDBRANCH   1  27
TORSDOF 6
ENDMDL
