MODEL 1
REMARK VINA RESULT:      -7.4      0.000      0.000
REMARK  10 active torsions:
REMARK  status: ('A' for Active; 'I' for Inactive)
REMARK    1  A    between atoms: C_1  and  C_2 
REMARK    2  A    between atoms: C_2  and  C_3 
REMARK    3  A    between atoms: C_3  and  C_4 
REMARK    4  A    between atoms: C_3  and  N_21 
REMARK    5  A    between atoms: C_7  and  C_8 
REMARK       I    between atoms: C_7  and  N_21 
REMARK    6  A    between atoms: C_8  and  N_22 
REMARK    7  A    between atoms: C_10  and  N_23 
REMARK    8  A    between atoms: C_13  and  C_14 
REMARK    9  A    between atoms: N_23  and  S_33 
REMARK   10  A    between atoms: N_24  and  S_33 
ROOT
HETATM    1  C   UNK N   1      26.032  26.144  -4.022  0.00  0.00     0.276 A 
HETATM    2  C   UNK N   1      25.716  27.257  -4.815  0.00  0.00     0.112 A 
HETATM    3  C   UNK N   1      25.654  27.120  -6.189  0.00  0.00     0.038 A 
HETATM    4  C   UNK N   1      25.862  25.881  -6.766  0.00  0.00     0.033 A 
HETATM    5  C   UNK N   1      26.123  24.749  -5.978  0.00  0.00     0.048 A 
HETATM    6  N   UNK N   1      26.212  24.891  -4.599  0.00  0.00    -0.303 N 
HETATM    7  O   UNK N   1      26.162  26.297  -2.820  0.00  0.00    -0.265 OA
ENDROOT
BRANCH   6   8
HETATM    8  C   UNK N   1      26.580  23.756  -3.730  0.00  0.00     0.235 C 
BRANCH   8   9
HETATM    9  C   UNK N   1      27.918  23.874  -3.037  0.00  0.00     0.236 C 
HETATM   10  N   UNK N   1      29.021  24.219  -3.751  0.00  0.00    -0.348 N 
HETATM   11  H   UNK N   1      28.858  24.502  -4.680  0.00  0.00     0.163 HD
HETATM   12  O   UNK N   1      28.010  23.529  -1.870  0.00  0.00    -0.272 OA
BRANCH  10  13
HETATM   13  C   UNK N   1      30.418  24.224  -3.323  0.00  0.00     0.167 C 
BRANCH  13  14
HETATM   14  C   UNK N   1      30.787  22.752  -3.061  0.00  0.00     0.255 C 
HETATM   15  O   UNK N   1      31.166  22.429  -1.943  0.00  0.00    -0.286 OA
BRANCH  14  16
HETATM   16  C   UNK N   1      30.762  21.677  -4.122  0.00  0.00     0.453 C 
HETATM   17  F   UNK N   1      29.680  21.836  -4.965  0.00  0.00    -0.163 F 
HETATM   18  F   UNK N   1      30.638  20.432  -3.528  0.00  0.00    -0.163 F 
HETATM   19  F   UNK N   1      31.937  21.704  -4.848  0.00  0.00    -0.163 F 
ENDBRANCH  14  16
ENDBRANCH  13  14
BRANCH  13  20
HETATM   20  C   UNK N   1      31.370  24.885  -4.364  0.00  0.00     0.008 C 
HETATM   21  C   UNK N   1      30.868  24.852  -5.794  0.00  0.00     0.012 C 
HETATM   22  C   UNK N   1      31.583  26.358  -4.055  0.00  0.00     0.012 C 
ENDBRANCH  13  20
ENDBRANCH  10  13
ENDBRANCH   8   9
ENDBRANCH   6   8
BRANCH   5  23
HETATM   23  C   UNK N   1      26.284  23.445  -6.706  0.00  0.00    -0.009 A 
HETATM   24  C   UNK N   1      27.562  23.068  -7.168  0.00  0.00     0.014 A 
HETATM   25  C   UNK N   1      27.751  21.880  -7.875  0.00  0.00     0.001 A 
HETATM   26  C   UNK N   1      26.661  21.054  -8.149  0.00  0.00     0.000 A 
HETATM   27  C   UNK N   1      25.386  21.414  -7.710  0.00  0.00     0.001 A 
HETATM   28  C   UNK N   1      25.201  22.599  -6.991  0.00  0.00     0.014 A 
ENDBRANCH   5  23
BRANCH   2  29
HETATM   29  N   UNK N   1      25.417  28.515  -4.241  0.00  0.00    -0.263 N 
HETATM   30  H   UNK N   1      24.480  28.800  -4.142  0.00  0.00     0.180 HD
BRANCH  29  31
HETATM   31  S   UNK N   1      26.717  29.571  -3.705  0.00  0.00     0.319 S 
HETATM   32  O   UNK N   1      27.796  29.603  -4.802  0.00  0.00    -0.183 OA
HETATM   33  O   UNK N   1      26.207  31.017  -3.619  0.00  0.00    -0.183 OA
BRANCH  31  34
HETATM   34  N   UNK N   1      27.422  29.103  -2.149  0.00  0.00    -0.307 N 
HETATM   35  C   UNK N   1      28.792  29.584  -2.101  0.00  0.00     0.161 C 
HETATM   36  H   UNK N   1      26.946  28.583  -1.412  0.00  0.00     0.173 HD
ENDBRANCH  31  34
ENDBRANCH  29  31
ENDBRANCH   2  29
TORSDOF 10
ENDMDL
MODEL 2
REMARK VINA RESULT:      -7.0     14.670     18.001
REMARK  10 active torsions:
REMARK  status: ('A' for Active; 'I' for Inactive)
REMARK    1  A    between atoms: C_1  and  C_2 
REMARK    2  A    between atoms: C_2  and  C_3 
REMARK    3  A    between atoms: C_3  and  C_4 
REMARK    4  A    between atoms: C_3  and  N_21 
REMARK    5  A    between atoms: C_7  and  C_8 
REMARK       I    between atoms: C_7  and  N_21 
REMARK    6  A    between atoms: C_8  and  N_22 
REMARK    7  A    between atoms: C_10  and  N_23 
REMARK    8  A    between atoms: C_13  and  C_14 
REMARK    9  A    between atoms: N_23  and  S_33 
REMARK   10  A    between atoms: N_24  and  S_33 
ROOT
HETATM    1  C   UNK N   1      35.102  16.063   9.815  0.00  0.00     0.276 A 
HETATM    2  C   UNK N   1      36.070  15.106  10.154  0.00  0.00     0.112 A 
HETATM    3  C   UNK N   1      36.333  14.063   9.286  0.00  0.00     0.038 A 
HETATM    4  C   UNK N   1      35.670  13.995   8.074  0.00  0.00     0.033 A 
HETATM    5  C   UNK N   1      34.740  14.978   7.699  0.00  0.00     0.048 A 
HETATM    6  N   UNK N   1      34.456  16.011   8.582  0.00  0.00    -0.303 N 
HETATM    7  O   UNK N   1      34.823  16.930  10.624  0.00  0.00    -0.265 OA
ENDROOT
BRANCH   6   8
HETATM    8  C   UNK N   1      33.418  17.016   8.284  0.00  0.00     0.235 C 
BRANCH   8   9
HETATM    9  C   UNK N   1      32.006  16.485   8.185  0.00  0.00     0.236 C 
HETATM   10  N   UNK N   1      31.193  16.909   7.183  0.00  0.00    -0.348 N 
HETATM   11  H   UNK N   1      31.621  17.458   6.487  0.00  0.00     0.163 HD
HETATM   12  O   UNK N   1      31.577  15.781   9.086  0.00  0.00    -0.272 OA
BRANCH  10  13
HETATM   13  C   UNK N   1      29.765  16.659   7.003  0.00  0.00     0.167 C 
BRANCH  13  14
HETATM   14  C   UNK N   1      29.042  17.895   7.571  0.00  0.00     0.255 C 
HETATM   15  O   UNK N   1      28.604  18.732   6.793  0.00  0.00    -0.286 OA
BRANCH  14  16
HETATM   16  C   UNK N   1      28.884  18.172   9.048  0.00  0.00     0.453 C 
HETATM   17  F   UNK N   1      27.735  18.897   9.297  0.00  0.00    -0.163 F 
HETATM   18  F   UNK N   1      29.952  18.927   9.503  0.00  0.00    -0.163 F 
HETATM   19  F   UNK N   1      28.856  16.982   9.750  0.00  0.00    -0.163 F 
ENDBRANCH  14  16
ENDBRANCH  13  14
BRANCH  13  20
HETATM   20  C   UNK N   1      29.378  16.392   5.518  0.00  0.00     0.008 C 
HETATM   21  C   UNK N   1      30.388  16.882   4.500  0.00  0.00     0.012 C 
HETATM   22  C   UNK N   1      29.237  14.902   5.248  0.00  0.00     0.012 C 
ENDBRANCH  13  20
ENDBRANCH  10  13
ENDBRANCH   8   9
ENDBRANCH   6   8
BRANCH   5  23
HETATM   23  C   UNK N   1      34.117  14.832   6.341  0.00  0.00    -0.009 A 
HETATM   24  C   UNK N   1      33.231  13.761   6.102  0.00  0.00     0.014 A 
HETATM   25  C   UNK N   1      32.653  13.571   4.846  0.00  0.00     0.001 A 
HETATM   26  C   UNK N   1      32.965  14.438   3.799  0.00  0.00     0.000 A 
HETATM   27  C   UNK N   1      33.849  15.497   4.011  0.00  0.00     0.001 A 
HETATM   28  C   UNK N   1      34.417  15.693   5.274  0.00  0.00     0.014 A 
ENDBRANCH   5  23
BRANCH   2  29
HETATM   29  N   UNK N   1      36.819  15.202  11.350  0.00  0.00    -0.263 N 
HETATM   30  H   UNK N   1      37.592  15.811  11.398  0.00  0.00     0.180 HD
BRANCH  29  31
HETATM   31  S   UNK N   1      36.373  14.237  12.750  0.00  0.00     0.319 S 
HETATM   32  O   UNK N   1      34.850  14.019  12.721  0.00  0.00    -0.183 OA
HETATM   33  O   UNK N   1      36.970  12.828  12.619  0.00  0.00    -0.183 OA
BRANCH  31  34
HETATM   34  N   UNK N   1      36.874  14.945  14.294  0.00  0.00    -0.307 N 
HETATM   35  C   UNK N   1      36.827  13.909  15.312  0.00  0.00     0.161 C 
HETATM   36  H   UNK N   1      37.147  15.916  14.444  0.00  0.00     0.173 HD
ENDBRANCH  31  34
ENDBRANCH  29  31
ENDBRANCH   2  29
TORSDOF 10
ENDMDL
MODEL 3
REMARK VINA RESULT:      -7.0      3.400      5.535
REMARK  10 active torsions:
REMARK  status: ('A' for Active; 'I' for Inactive)
REMARK    1  A    between atoms: C_1  and  C_2 
REMARK    2  A    between atoms: C_2  and  C_3 
REMARK    3  A    between atoms: C_3  and  C_4 
REMARK    4  A    between atoms: C_3  and  N_21 
REMARK    5  A    between atoms: C_7  and  C_8 
REMARK       I    between atoms: C_7  and  N_21 
REMARK    6  A    between atoms: C_8  and  N_22 
REMARK    7  A    between atoms: C_10  and  N_23 
REMARK    8  A    between atoms: C_13  and  C_14 
REMARK    9  A    between atoms: N_23  and  S_33 
REMARK   10  A    between atoms: N_24  and  S_33 
ROOT
HETATM    1  C   UNK N   1      25.954  23.951  -6.781  0.00  0.00     0.276 A 
HETATM    2  C   UNK N   1      26.148  24.057  -8.167  0.00  0.00     0.112 A 
HETATM    3  C   UNK N   1      26.388  25.296  -8.730  0.00  0.00     0.038 A 
HETATM    4  C   UNK N   1      26.475  26.413  -7.919  0.00  0.00     0.033 A 
HETATM    5  C   UNK N   1      26.339  26.311  -6.526  0.00  0.00     0.048 A 
HETATM    6  N   UNK N   1      26.071  25.070  -5.962  0.00  0.00    -0.303 N 
HETATM    7  O   UNK N   1      25.663  22.866  -6.309  0.00  0.00    -0.265 OA
ENDROOT
BRANCH   6   8
HETATM    8  C   UNK N   1      25.821  24.919  -4.515  0.00  0.00     0.235 C 
BRANCH   8   9
HETATM    9  C   UNK N   1      27.032  24.573  -3.678  0.00  0.00     0.236 C 
HETATM   10  N   UNK N   1      28.278  24.720  -4.199  0.00  0.00    -0.348 N 
HETATM   11  H   UNK N   1      28.327  25.174  -5.071  0.00  0.00     0.163 HD
HETATM   12  O   UNK N   1      26.864  24.043  -2.592  0.00  0.00    -0.272 OA
BRANCH  10  13
HETATM   13  C   UNK N   1      29.556  24.291  -3.635  0.00  0.00     0.167 C 
BRANCH  13  14
HETATM   14  C   UNK N   1      29.866  22.926  -4.276  0.00  0.00     0.255 C 
HETATM   15  O   UNK N   1      29.266  22.600  -5.291  0.00  0.00    -0.286 OA
BRANCH  14  16
HETATM   16  C   UNK N   1      30.839  21.926  -3.695  0.00  0.00     0.453 C 
HETATM   17  F   UNK N   1      31.911  21.726  -4.543  0.00  0.00    -0.163 F 
HETATM   18  F   UNK N   1      30.213  20.701  -3.531  0.00  0.00    -0.163 F 
HETATM   19  F   UNK N   1      31.283  22.362  -2.462  0.00  0.00    -0.163 F 
ENDBRANCH  14  16
ENDBRANCH  13  14
BRANCH  13  20
HETATM   20  C   UNK N   1      30.701  25.320  -3.875  0.00  0.00     0.008 C 
HETATM   21  C   UNK N   1      31.339  25.252  -5.248  0.00  0.00     0.012 C 
HETATM   22  C   UNK N   1      30.192  26.746  -3.747  0.00  0.00     0.012 C 
ENDBRANCH  13  20
ENDBRANCH  10  13
ENDBRANCH   8   9
ENDBRANCH   6   8
BRANCH   5  23
HETATM   23  C   UNK N   1      26.501  27.580  -5.739  0.00  0.00    -0.009 A 
HETATM   24  C   UNK N   1      27.522  28.485  -6.096  0.00  0.00     0.014 A 
HETATM   25  C   UNK N   1      27.727  29.661  -5.373  0.00  0.00     0.001 A 
HETATM   26  C   UNK N   1      26.926  29.946  -4.267  0.00  0.00     0.000 A 
HETATM   27  C   UNK N   1      25.917  29.058  -3.891  0.00  0.00     0.001 A 
HETATM   28  C   UNK N   1      25.706  27.886  -4.624  0.00  0.00     0.014 A 
ENDBRANCH   5  23
BRANCH   2  29
HETATM   29  N   UNK N   1      26.145  22.916  -9.003  0.00  0.00    -0.263 N 
HETATM   30  H   UNK N   1      25.326  22.667  -9.490  0.00  0.00     0.180 HD
BRANCH  29  31
HETATM   31  S   UNK N   1      27.600  21.944  -9.174  0.00  0.00     0.319 S 
HETATM   32  O   UNK N   1      27.374  20.934 -10.313  0.00  0.00    -0.183 OA
HETATM   33  O   UNK N   1      28.759  22.826  -9.660  0.00  0.00    -0.183 OA
BRANCH  31  34
HETATM   34  N   UNK N   1      28.080  21.111  -7.687  0.00  0.00    -0.307 N 
HETATM   35  C   UNK N   1      29.140  20.170  -8.008  0.00  0.00     0.161 C 
HETATM   36  H   UNK N   1      27.680  21.264  -6.761  0.00  0.00     0.173 HD
ENDBRANCH  31  34
ENDBRANCH  29  31
ENDBRANCH   2  29
TORSDOF 10
ENDMDL
MODEL 4
REMARK VINA RESULT:      -7.0      1.512      2.002
REMARK  10 active torsions:
REMARK  status: ('A' for Active; 'I' for Inactive)
REMARK    1  A    between atoms: C_1  and  C_2 
REMARK    2  A    between atoms: C_2  and  C_3 
REMARK    3  A    between atoms: C_3  and  C_4 
REMARK    4  A    between atoms: C_3  and  N_21 
REMARK    5  A    between atoms: C_7  and  C_8 
REMARK       I    between atoms: C_7  and  N_21 
REMARK    6  A    between atoms: C_8  and  N_22 
REMARK    7  A    between atoms: C_10  and  N_23 
REMARK    8  A    between atoms: C_13  and  C_14 
REMARK    9  A    between atoms: N_23  and  S_33 
REMARK   10  A    between atoms: N_24  and  S_33 
ROOT
HETATM    1  C   UNK N   1      26.392  26.230  -4.055  0.00  0.00     0.276 A 
HETATM    2  C   UNK N   1      25.681  27.268  -4.675  0.00  0.00     0.112 A 
HETATM    3  C   UNK N   1      25.242  27.114  -5.976  0.00  0.00     0.038 A 
HETATM    4  C   UNK N   1      25.471  25.923  -6.641  0.00  0.00     0.033 A 
HETATM    5  C   UNK N   1      26.132  24.856  -6.011  0.00  0.00     0.048 A 
HETATM    6  N   UNK N   1      26.597  25.020  -4.713  0.00  0.00    -0.303 N 
HETATM    7  O   UNK N   1      26.842  26.410  -2.937  0.00  0.00    -0.265 OA
ENDROOT
BRANCH   6   8
HETATM    8  C   UNK N   1      27.382  23.970  -4.037  0.00  0.00     0.235 C 
BRANCH   8   9
HETATM    9  C   UNK N   1      28.850  23.921  -4.396  0.00  0.00     0.236 C 
HETATM   10  N   UNK N   1      29.411  22.748  -4.789  0.00  0.00    -0.348 N 
HETATM   11  H   UNK N   1      28.785  22.004  -4.941  0.00  0.00     0.163 HD
HETATM   12  O   UNK N   1      29.537  24.911  -4.202  0.00  0.00    -0.272 OA
BRANCH  10  13
HETATM   13  C   UNK N   1      30.823  22.445  -5.013  0.00  0.00     0.167 C 
BRANCH  13  14
HETATM   14  C   UNK N   1      31.312  21.735  -3.739  0.00  0.00     0.255 C 
HETATM   15  O   UNK N   1      30.550  21.637  -2.786  0.00  0.00    -0.286 OA
BRANCH  14  16
HETATM   16  C   UNK N   1      32.711  21.189  -3.564  0.00  0.00     0.453 C 
HETATM   17  F   UNK N   1      33.086  21.199  -2.235  0.00  0.00    -0.163 F 
HETATM   18  F   UNK N   1      33.615  21.982  -4.251  0.00  0.00    -0.163 F 
HETATM   19  F   UNK N   1      32.781  19.904  -4.068  0.00  0.00    -0.163 F 
ENDBRANCH  14  16
ENDBRANCH  13  14
BRANCH  13  20
HETATM   20  C   UNK N   1      31.062  21.582  -6.288  0.00  0.00     0.008 C 
HETATM   21  C   UNK N   1      30.002  20.531  -6.553  0.00  0.00     0.012 C 
HETATM   22  C   UNK N   1      31.083  22.445  -7.539  0.00  0.00     0.012 C 
ENDBRANCH  13  20
ENDBRANCH  10  13
ENDBRANCH   8   9
ENDBRANCH   6   8
BRANCH   5  23
HETATM   23  C   UNK N   1      26.283  23.593  -6.810  0.00  0.00    -0.009 A 
HETATM   24  C   UNK N   1      27.341  23.486  -7.736  0.00  0.00     0.014 A 
HETATM   25  C   UNK N   1      27.500  22.343  -8.519  0.00  0.00     0.001 A 
HETATM   26  C   UNK N   1      26.592  21.290  -8.405  0.00  0.00     0.000 A 
HETATM   27  C   UNK N   1      25.531  21.380  -7.502  0.00  0.00     0.001 A 
HETATM   28  C   UNK N   1      25.381  22.522  -6.709  0.00  0.00     0.014 A 
ENDBRANCH   5  23
BRANCH   2  29
HETATM   29  N   UNK N   1      25.363  28.462  -3.985  0.00  0.00    -0.263 N 
HETATM   30  H   UNK N   1      24.441  28.620  -3.677  0.00  0.00     0.180 HD
BRANCH  29  31
HETATM   31  S   UNK N   1      26.610  29.663  -3.680  0.00  0.00     0.319 S 
HETATM   32  O   UNK N   1      27.550  29.702  -4.897  0.00  0.00    -0.183 OA
HETATM   33  O   UNK N   1      25.980  31.062  -3.630  0.00  0.00    -0.183 OA
BRANCH  31  34
HETATM   34  N   UNK N   1      27.527  29.378  -2.192  0.00  0.00    -0.307 N 
HETATM   35  C   UNK N   1      28.928  29.213  -2.538  0.00  0.00     0.161 C 
HETATM   36  H   UNK N   1      27.137  29.335  -1.250  0.00  0.00     0.173 HD
ENDBRANCH  31  34
ENDBRANCH  29  31
ENDBRANCH   2  29
TORSDOF 10
ENDMDL
MODEL 5
REMARK VINA RESULT:      -6.9     17.406     20.457
REMARK  10 active torsions:
REMARK  status: ('A' for Active; 'I' for Inactive)
REMARK    1  A    between atoms: C_1  and  C_2 
REMARK    2  A    between atoms: C_2  and  C_3 
REMARK    3  A    between atoms: C_3  and  C_4 
REMARK    4  A    between atoms: C_3  and  N_21 
REMARK    5  A    between atoms: C_7  and  C_8 
REMARK       I    between atoms: C_7  and  N_21 
REMARK    6  A    between atoms: C_8  and  N_22 
REMARK    7  A    between atoms: C_10  and  N_23 
REMARK    8  A    between atoms: C_13  and  C_14 
REMARK    9  A    between atoms: N_23  and  S_33 
REMARK   10  A    between atoms: N_24  and  S_33 
ROOT
HETATM    1  C   UNK N   1      34.821  16.396   8.997  0.00  0.00     0.276 A 
HETATM    2  C   UNK N   1      34.299  16.322   7.697  0.00  0.00     0.112 A 
HETATM    3  C   UNK N   1      34.720  15.316   6.849  0.00  0.00     0.038 A 
HETATM    4  C   UNK N   1      35.620  14.367   7.301  0.00  0.00     0.033 A 
HETATM    5  C   UNK N   1      36.105  14.399   8.618  0.00  0.00     0.048 A 
HETATM    6  N   UNK N   1      35.703  15.425   9.463  0.00  0.00    -0.303 N 
HETATM    7  O   UNK N   1      34.502  17.334   9.707  0.00  0.00    -0.265 OA
ENDROOT
BRANCH   6   8
HETATM    8  C   UNK N   1      36.256  15.564  10.824  0.00  0.00     0.235 C 
BRANCH   8   9
HETATM    9  C   UNK N   1      35.491  14.848  11.913  0.00  0.00     0.236 C 
HETATM   10  N   UNK N   1      36.151  14.367  12.999  0.00  0.00    -0.348 N 
HETATM   11  H   UNK N   1      37.097  14.630  13.075  0.00  0.00     0.163 HD
HETATM   12  O   UNK N   1      34.309  14.598  11.737  0.00  0.00    -0.272 OA
BRANCH  10  13
HETATM   13  C   UNK N   1      35.643  13.510  14.067  0.00  0.00     0.167 C 
BRANCH  13  14
HETATM   14  C   UNK N   1      35.610  12.084  13.488  0.00  0.00     0.255 C 
HETATM   15  O   UNK N   1      34.530  11.594  13.185  0.00  0.00    -0.286 OA
BRANCH  14  16
HETATM   16  C   UNK N   1      36.835  11.216  13.318  0.00  0.00     0.453 C 
HETATM   17  F   UNK N   1      37.874  11.930  12.751  0.00  0.00    -0.163 F 
HETATM   18  F   UNK N   1      36.551  10.162  12.466  0.00  0.00    -0.163 F 
HETATM   19  F   UNK N   1      37.223  10.703  14.540  0.00  0.00    -0.163 F 
ENDBRANCH  14  16
ENDBRANCH  13  14
BRANCH  13  20
HETATM   20  C   UNK N   1      36.498  13.590  15.367  0.00  0.00     0.008 C 
HETATM   21  C   UNK N   1      37.170  14.927  15.605  0.00  0.00     0.012 C 
HETATM   22  C   UNK N   1      35.643  13.353  16.602  0.00  0.00     0.012 C 
ENDBRANCH  13  20
ENDBRANCH  10  13
ENDBRANCH   8   9
ENDBRANCH   6   8
BRANCH   5  23
HETATM   23  C   UNK N   1      37.038  13.292   9.018  0.00  0.00    -0.009 A 
HETATM   24  C   UNK N   1      38.413  13.570   9.167  0.00  0.00     0.014 A 
HETATM   25  C   UNK N   1      39.318  12.565   9.507  0.00  0.00     0.001 A 
HETATM   26  C   UNK N   1      38.869  11.257   9.687  0.00  0.00     0.000 A 
HETATM   27  C   UNK N   1      37.515  10.958   9.533  0.00  0.00     0.001 A 
HETATM   28  C   UNK N   1      36.607  11.969   9.204  0.00  0.00     0.014 A 
ENDBRANCH   5  23
BRANCH   2  29
HETATM   29  N   UNK N   1      33.317  17.232   7.241  0.00  0.00    -0.263 N 
HETATM   30  H   UNK N   1      33.583  18.016   6.707  0.00  0.00     0.180 HD
BRANCH  29  31
HETATM   31  S   UNK N   1      31.622  16.967   7.627  0.00  0.00     0.319 S 
HETATM   32  O   UNK N   1      30.768  17.646   6.542  0.00  0.00    -0.183 OA
HETATM   33  O   UNK N   1      31.290  15.473   7.504  0.00  0.00    -0.183 OA
BRANCH  31  34
HETATM   34  N   UNK N   1      31.158  17.541   9.237  0.00  0.00    -0.307 N 
HETATM   35  C   UNK N   1      30.249  18.664   9.081  0.00  0.00     0.161 C 
HETATM   36  H   UNK N   1      31.477  17.150  10.124  0.00  0.00     0.173 HD
ENDBRANCH  31  34
ENDBRANCH  29  31
ENDBRANCH   2  29
TORSDOF 10
ENDMDL
MODEL 6
REMARK VINA RESULT:      -6.9     13.046     15.696
REMARK  10 active torsions:
REMARK  status: ('A' for Active; 'I' for Inactive)
REMARK    1  A    between atoms: C_1  and  C_2 
REMARK    2  A    between atoms: C_2  and  C_3 
REMARK    3  A    between atoms: C_3  and  C_4 
REMARK    4  A    between atoms: C_3  and  N_21 
REMARK    5  A    between atoms: C_7  and  C_8 
REMARK       I    between atoms: C_7  and  N_21 
REMARK    6  A    between atoms: C_8  and  N_22 
REMARK    7  A    between atoms: C_10  and  N_23 
REMARK    8  A    between atoms: C_13  and  C_14 
REMARK    9  A    between atoms: N_23  and  S_33 
REMARK   10  A    between atoms: N_24  and  S_33 
ROOT
HETATM    1  C   UNK N   1      33.368  17.575   6.924  0.00  0.00     0.276 A 
HETATM    2  C   UNK N   1      33.000  17.520   8.277  0.00  0.00     0.112 A 
HETATM    3  C   UNK N   1      31.676  17.319   8.617  0.00  0.00     0.038 A 
HETATM    4  C   UNK N   1      30.732  17.132   7.623  0.00  0.00     0.033 A 
HETATM    5  C   UNK N   1      31.098  17.128   6.267  0.00  0.00     0.048 A 
HETATM    6  N   UNK N   1      32.424  17.357   5.924  0.00  0.00    -0.303 N 
HETATM    7  O   UNK N   1      34.524  17.833   6.639  0.00  0.00    -0.265 OA
ENDROOT
BRANCH   6   8
HETATM    8  C   UNK N   1      32.848  17.462   4.515  0.00  0.00     0.235 C 
BRANCH   8   9
HETATM    9  C   UNK N   1      33.365  16.184   3.894  0.00  0.00     0.236 C 
HETATM   10  N   UNK N   1      33.960  15.246   4.675  0.00  0.00    -0.348 N 
HETATM   11  H   UNK N   1      33.907  15.400   5.645  0.00  0.00     0.163 HD
HETATM   12  O   UNK N   1      33.356  16.075   2.678  0.00  0.00    -0.272 OA
BRANCH  10  13
HETATM   13  C   UNK N   1      34.670  14.037   4.263  0.00  0.00     0.167 C 
BRANCH  13  14
HETATM   14  C   UNK N   1      36.064  14.122   4.911  0.00  0.00     0.255 C 
HETATM   15  O   UNK N   1      36.316  15.065   5.650  0.00  0.00    -0.286 OA
BRANCH  14  16
HETATM   16  C   UNK N   1      37.176  13.133   4.648  0.00  0.00     0.453 C 
HETATM   17  F   UNK N   1      37.091  12.619   3.369  0.00  0.00    -0.163 F 
HETATM   18  F   UNK N   1      37.075  12.067   5.526  0.00  0.00    -0.163 F 
HETATM   19  F   UNK N   1      38.402  13.742   4.834  0.00  0.00    -0.163 F 
ENDBRANCH  14  16
ENDBRANCH  13  14
BRANCH  13  20
HETATM   20  C   UNK N   1      33.923  12.729   4.663  0.00  0.00     0.008 C 
HETATM   21  C   UNK N   1      32.550  12.941   5.268  0.00  0.00     0.012 C 
HETATM   22  C   UNK N   1      33.687  11.841   3.452  0.00  0.00     0.012 C 
ENDBRANCH  13  20
ENDBRANCH  10  13
ENDBRANCH   8   9
ENDBRANCH   6   8
BRANCH   5  23
HETATM   23  C   UNK N   1      30.001  16.867   5.275  0.00  0.00    -0.009 A 
HETATM   24  C   UNK N   1      29.169  17.933   4.872  0.00  0.00     0.014 A 
HETATM   25  C   UNK N   1      28.120  17.728   3.976  0.00  0.00     0.001 A 
HETATM   26  C   UNK N   1      27.870  16.449   3.479  0.00  0.00     0.000 A 
HETATM   27  C   UNK N   1      28.675  15.379   3.874  0.00  0.00     0.001 A 
HETATM   28  C   UNK N   1      29.734  15.589   4.763  0.00  0.00     0.014 A 
ENDBRANCH   5  23
BRANCH   2  29
HETATM   29  N   UNK N   1      33.961  17.625   9.310  0.00  0.00    -0.263 N 
HETATM   30  H   UNK N   1      34.105  18.489   9.760  0.00  0.00     0.180 HD
BRANCH  29  31
HETATM   31  S   UNK N   1      34.898  16.217   9.790  0.00  0.00     0.319 S 
HETATM   32  O   UNK N   1      36.146  16.704  10.547  0.00  0.00    -0.183 OA
HETATM   33  O   UNK N   1      34.111  15.399  10.824  0.00  0.00    -0.183 OA
BRANCH  31  34
HETATM   34  N   UNK N   1      35.356  15.169   8.438  0.00  0.00    -0.307 N 
HETATM   35  C   UNK N   1      34.405  14.074   8.361  0.00  0.00     0.161 C 
HETATM   36  H   UNK N   1      36.154  15.310   7.818  0.00  0.00     0.173 HD
ENDBRANCH  31  34
ENDBRANCH  29  31
ENDBRANCH   2  29
TORSDOF 10
ENDMDL
MODEL 7
REMARK VINA RESULT:      -6.8      3.184      5.566
REMARK  10 active torsions:
REMARK  status: ('A' for Active; 'I' for Inactive)
REMARK    1  A    between atoms: C_1  and  C_2 
REMARK    2  A    between atoms: C_2  and  C_3 
REMARK    3  A    between atoms: C_3  and  C_4 
REMARK    4  A    between atoms: C_3  and  N_21 
REMARK    5  A    between atoms: C_7  and  C_8 
REMARK       I    between atoms: C_7  and  N_21 
REMARK    6  A    between atoms: C_8  and  N_22 
REMARK    7  A    between atoms: C_10  and  N_23 
REMARK    8  A    between atoms: C_13  and  C_14 
REMARK    9  A    between atoms: N_23  and  S_33 
REMARK   10  A    between atoms: N_24  and  S_33 
ROOT
HETATM    1  C   UNK N   1      26.048  24.482  -5.845  0.00  0.00     0.276 A 
HETATM    2  C   UNK N   1      25.736  25.007  -7.109  0.00  0.00     0.112 A 
HETATM    3  C   UNK N   1      25.991  26.338  -7.377  0.00  0.00     0.038 A 
HETATM    4  C   UNK N   1      26.589  27.131  -6.413  0.00  0.00     0.033 A 
HETATM    5  C   UNK N   1      26.956  26.602  -5.166  0.00  0.00     0.048 A 
HETATM    6  N   UNK N   1      26.676  25.272  -4.886  0.00  0.00    -0.303 N 
HETATM    7  O   UNK N   1      25.744  23.329  -5.596  0.00  0.00    -0.265 OA
ENDROOT
BRANCH   6   8
HETATM    8  C   UNK N   1      26.950  24.689  -3.558  0.00  0.00     0.235 C 
BRANCH   8   9
HETATM    9  C   UNK N   1      28.230  23.891  -3.449  0.00  0.00     0.236 C 
HETATM   10  N   UNK N   1      29.014  23.717  -4.545  0.00  0.00    -0.348 N 
HETATM   11  H   UNK N   1      28.761  24.241  -5.339  0.00  0.00     0.163 HD
HETATM   12  O   UNK N   1      28.471  23.305  -2.406  0.00  0.00    -0.272 OA
BRANCH  10  13
HETATM   13  C   UNK N   1      30.183  22.855  -4.699  0.00  0.00     0.167 C 
BRANCH  13  14
HETATM   14  C   UNK N   1      29.841  21.876  -5.837  0.00  0.00     0.255 C 
HETATM   15  O   UNK N   1      28.882  22.120  -6.558  0.00  0.00    -0.286 OA
BRANCH  14  16
HETATM   16  C   UNK N   1      30.590  20.589  -6.093  0.00  0.00     0.453 C 
HETATM   17  F   UNK N   1      31.693  20.807  -6.895  0.00  0.00    -0.163 F 
HETATM   18  F   UNK N   1      29.771  19.692  -6.759  0.00  0.00    -0.163 F 
HETATM   19  F   UNK N   1      30.979  20.024  -4.894  0.00  0.00    -0.163 F 
ENDBRANCH  14  16
ENDBRANCH  13  14
BRANCH  13  20
HETATM   20  C   UNK N   1      31.490  23.652  -4.991  0.00  0.00     0.008 C 
HETATM   21  C   UNK N   1      31.556  25.022  -4.347  0.00  0.00     0.012 C 
HETATM   22  C   UNK N   1      32.711  22.912  -4.471  0.00  0.00     0.012 C 
ENDBRANCH  13  20
ENDBRANCH  10  13
ENDBRANCH   8   9
ENDBRANCH   6   8
BRANCH   5  23
HETATM   23  C   UNK N   1      27.643  27.540  -4.214  0.00  0.00    -0.009 A 
HETATM   24  C   UNK N   1      26.863  28.375  -3.388  0.00  0.00     0.014 A 
HETATM   25  C   UNK N   1      27.460  29.282  -2.511  0.00  0.00     0.001 A 
HETATM   26  C   UNK N   1      28.850  29.384  -2.458  0.00  0.00     0.000 A 
HETATM   27  C   UNK N   1      29.640  28.574  -3.275  0.00  0.00     0.001 A 
HETATM   28  C   UNK N   1      29.040  27.658  -4.144  0.00  0.00     0.014 A 
ENDBRANCH   5  23
BRANCH   2  29
HETATM   29  N   UNK N   1      25.202  24.194  -8.136  0.00  0.00    -0.263 N 
HETATM   30  H   UNK N   1      24.243  24.248  -8.355  0.00  0.00     0.180 HD
BRANCH  29  31
HETATM   31  S   UNK N   1      26.245  23.090  -9.020  0.00  0.00     0.319 S 
HETATM   32  O   UNK N   1      25.574  22.764 -10.365  0.00  0.00    -0.183 OA
HETATM   33  O   UNK N   1      27.552  23.803  -9.399  0.00  0.00    -0.183 OA
BRANCH  31  34
HETATM   34  N   UNK N   1      26.624  21.603  -8.135  0.00  0.00    -0.307 N 
HETATM   35  C   UNK N   1      25.484  20.708  -8.230  0.00  0.00     0.161 C 
HETATM   36  H   UNK N   1      27.495  21.408  -7.642  0.00  0.00     0.173 HD
ENDBRANCH  31  34
ENDBRANCH  29  31
ENDBRANCH   2  29
TORSDOF 10
ENDMDL
MODEL 8
REMARK VINA RESULT:      -6.8     21.509     24.675
REMARK  10 active torsions:
REMARK  status: ('A' for Active; 'I' for Inactive)
REMARK    1  A    between atoms: C_1  and  C_2 
REMARK    2  A    between atoms: C_2  and  C_3 
REMARK    3  A    between atoms: C_3  and  C_4 
REMARK    4  A    between atoms: C_3  and  N_21 
REMARK    5  A    between atoms: C_7  and  C_8 
REMARK       I    between atoms: C_7  and  N_21 
REMARK    6  A    between atoms: C_8  and  N_22 
REMARK    7  A    between atoms: C_10  and  N_23 
REMARK    8  A    between atoms: C_13  and  C_14 
REMARK    9  A    between atoms: N_23  and  S_33 
REMARK   10  A    between atoms: N_24  and  S_33 
ROOT
HETATM    1  C   UNK N   1      35.165  12.948  12.663  0.00  0.00     0.276 A 
HETATM    2  C   UNK N   1      35.927  14.111  12.479  0.00  0.00     0.112 A 
HETATM    3  C   UNK N   1      36.483  14.744  13.576  0.00  0.00     0.038 A 
HETATM    4  C   UNK N   1      36.317  14.203  14.838  0.00  0.00     0.033 A 
HETATM    5  C   UNK N   1      35.604  13.009  15.027  0.00  0.00     0.048 A 
HETATM    6  N   UNK N   1      35.023  12.387  13.930  0.00  0.00    -0.303 N 
HETATM    7  O   UNK N   1      34.614  12.446  11.699  0.00  0.00    -0.265 OA
ENDROOT
BRANCH   6   8
HETATM    8  C   UNK N   1      34.181  11.185  14.082  0.00  0.00     0.235 C 
BRANCH   8   9
HETATM    9  C   UNK N   1      34.761   9.908  13.518  0.00  0.00     0.236 C 
HETATM   10  N   UNK N   1      35.937   9.428  14.002  0.00  0.00    -0.348 N 
HETATM   11  H   UNK N   1      36.289   9.884  14.800  0.00  0.00     0.163 HD
HETATM   12  O   UNK N   1      34.229   9.398  12.545  0.00  0.00    -0.272 OA
BRANCH  10  13
HETATM   13  C   UNK N   1      36.747   8.324  13.493  0.00  0.00     0.167 C 
BRANCH  13  14
HETATM   14  C   UNK N   1      38.209   8.803  13.563  0.00  0.00     0.255 C 
HETATM   15  O   UNK N   1      38.979   8.481  12.668  0.00  0.00    -0.286 OA
BRANCH  14  16
HETATM   16  C   UNK N   1      38.775   9.611  14.708  0.00  0.00     0.453 C 
HETATM   17  F   UNK N   1      40.142   9.442  14.806  0.00  0.00    -0.163 F 
HETATM   18  F   UNK N   1      38.223   9.184  15.904  0.00  0.00    -0.163 F 
HETATM   19  F   UNK N   1      38.473  10.948  14.536  0.00  0.00    -0.163 F 
ENDBRANCH  14  16
ENDBRANCH  13  14
BRANCH  13  20
HETATM   20  C   UNK N   1      36.531   6.999  14.283  0.00  0.00     0.008 C 
HETATM   21  C   UNK N   1      37.799   6.226  14.587  0.00  0.00     0.012 C 
HETATM   22  C   UNK N   1      35.896   7.265  15.638  0.00  0.00     0.012 C 
ENDBRANCH  13  20
ENDBRANCH  10  13
ENDBRANCH   8   9
ENDBRANCH   6   8
BRANCH   5  23
HETATM   23  C   UNK N   1      35.529  12.486  16.433  0.00  0.00    -0.009 A 
HETATM   24  C   UNK N   1      35.111  13.349  17.467  0.00  0.00     0.014 A 
HETATM   25  C   UNK N   1      35.056  12.913  18.791  0.00  0.00     0.001 A 
HETATM   26  C   UNK N   1      35.435  11.609  19.110  0.00  0.00     0.000 A 
HETATM   27  C   UNK N   1      35.862  10.742  18.103  0.00  0.00     0.001 A 
HETATM   28  C   UNK N   1      35.905  11.177  16.775  0.00  0.00     0.014 A 
ENDBRANCH   5  23
BRANCH   2  29
HETATM   29  N   UNK N   1      36.179  14.635  11.190  0.00  0.00    -0.263 N 
HETATM   30  H   UNK N   1      37.023  14.423  10.730  0.00  0.00     0.180 HD
BRANCH  29  31
HETATM   31  S   UNK N   1      34.987  15.664  10.408  0.00  0.00     0.319 S 
HETATM   32  O   UNK N   1      35.218  17.111  10.875  0.00  0.00    -0.183 OA
HETATM   33  O   UNK N   1      35.245  15.698   8.894  0.00  0.00    -0.183 OA
BRANCH  31  34
HETATM   34  N   UNK N   1      33.312  15.172  10.707  0.00  0.00    -0.307 N 
HETATM   35  C   UNK N   1      32.689  14.861   9.432  0.00  0.00     0.161 C 
HETATM   36  H   UNK N   1      32.861  15.117  11.620  0.00  0.00     0.173 HD
ENDBRANCH  31  34
ENDBRANCH  29  31
ENDBRANCH   2  29
TORSDOF 10
ENDMDL
MODEL 9
REMARK VINA RESULT:      -6.8     17.839     21.031
REMARK  10 active torsions:
REMARK  status: ('A' for Active; 'I' for Inactive)
REMARK    1  A    between atoms: C_1  and  C_2 
REMARK    2  A    between atoms: C_2  and  C_3 
REMARK    3  A    between atoms: C_3  and  C_4 
REMARK    4  A    between atoms: C_3  and  N_21 
REMARK    5  A    between atoms: C_7  and  C_8 
REMARK       I    between atoms: C_7  and  N_21 
REMARK    6  A    between atoms: C_8  and  N_22 
REMARK    7  A    between atoms: C_10  and  N_23 
REMARK    8  A    between atoms: C_13  and  C_14 
REMARK    9  A    between atoms: N_23  and  S_33 
REMARK   10  A    between atoms: N_24  and  S_33 
ROOT
HETATM    1  C   UNK N   1      37.264  13.971   9.326  0.00  0.00     0.276 A 
HETATM    2  C   UNK N   1      37.516  13.273   8.135  0.00  0.00     0.112 A 
HETATM    3  C   UNK N   1      36.648  13.406   7.068  0.00  0.00     0.038 A 
HETATM    4  C   UNK N   1      35.563  14.258   7.168  0.00  0.00     0.033 A 
HETATM    5  C   UNK N   1      35.333  15.005   8.334  0.00  0.00     0.048 A 
HETATM    6  N   UNK N   1      36.188  14.851   9.416  0.00  0.00    -0.303 N 
HETATM    7  O   UNK N   1      37.991  13.782  10.285  0.00  0.00    -0.265 OA
ENDROOT
BRANCH   6   8
HETATM    8  C   UNK N   1      35.939  15.536  10.699  0.00  0.00     0.235 C 
BRANCH   8   9
HETATM    9  C   UNK N   1      35.147  14.746  11.716  0.00  0.00     0.236 C 
HETATM   10  N   UNK N   1      35.797  13.999  12.646  0.00  0.00    -0.348 N 
HETATM   11  H   UNK N   1      36.773  14.117  12.684  0.00  0.00     0.163 HD
HETATM   12  O   UNK N   1      33.933  14.689  11.602  0.00  0.00    -0.272 OA
BRANCH  10  13
HETATM   13  C   UNK N   1      35.237  13.041  13.597  0.00  0.00     0.167 C 
BRANCH  13  14
HETATM   14  C   UNK N   1      35.244  11.678  12.881  0.00  0.00     0.255 C 
HETATM   15  O   UNK N   1      36.108  11.455  12.044  0.00  0.00    -0.286 OA
BRANCH  14  16
HETATM   16  C   UNK N   1      34.206  10.603  13.109  0.00  0.00     0.453 C 
HETATM   17  F   UNK N   1      33.366  10.937  14.152  0.00  0.00    -0.163 F 
HETATM   18  F   UNK N   1      34.828   9.413  13.449  0.00  0.00    -0.163 F 
HETATM   19  F   UNK N   1      33.474  10.402  11.955  0.00  0.00    -0.163 F 
ENDBRANCH  14  16
ENDBRANCH  13  14
BRANCH  13  20
HETATM   20  C   UNK N   1      36.020  12.994  14.943  0.00  0.00     0.008 C 
HETATM   21  C   UNK N   1      36.884  14.209  15.218  0.00  0.00     0.012 C 
HETATM   22  C   UNK N   1      35.071  12.909  16.127  0.00  0.00     0.012 C 
ENDBRANCH  13  20
ENDBRANCH  10  13
ENDBRANCH   8   9
ENDBRANCH   6   8
BRANCH   5  23
HETATM   23  C   UNK N   1      34.153  15.936   8.314  0.00  0.00    -0.009 A 
HETATM   24  C   UNK N   1      34.365  17.310   8.079  0.00  0.00     0.014 A 
HETATM   25  C   UNK N   1      33.301  18.213   8.082  0.00  0.00     0.001 A 
HETATM   26  C   UNK N   1      32.007  17.762   8.338  0.00  0.00     0.000 A 
HETATM   27  C   UNK N   1      31.777  16.407   8.584  0.00  0.00     0.001 A 
HETATM   28  C   UNK N   1      32.843  15.502   8.568  0.00  0.00     0.014 A 
ENDBRANCH   5  23
BRANCH   2  29
HETATM   29  N   UNK N   1      38.664  12.461   7.983  0.00  0.00    -0.263 N 
HETATM   30  H   UNK N   1      38.706  11.581   8.424  0.00  0.00     0.180 HD
BRANCH  29  31
HETATM   31  S   UNK N   1      40.018  13.021   7.011  0.00  0.00     0.319 S 
HETATM   32  O   UNK N   1      39.688  12.763   5.531  0.00  0.00    -0.183 OA
HETATM   33  O   UNK N   1      40.139  14.548   7.122  0.00  0.00    -0.183 OA
BRANCH  31  34
HETATM   34  N   UNK N   1      41.565  12.277   7.445  0.00  0.00    -0.307 N 
HETATM   35  C   UNK N   1      41.392  11.545   8.688  0.00  0.00     0.161 C 
HETATM   36  H   UNK N   1      42.432  12.351   6.913  0.00  0.00     0.173 HD
ENDBRANCH  31  34
ENDBRANCH  29  31
ENDBRANCH   2  29
TORSDOF 10
ENDMDL
