MODEL 1
REMARK VINA RESULT:      -6.3      0.000      0.000
REMARK  3 active torsions:
REMARK  status: ('A' for Active; 'I' for Inactive)
REMARK    1  A    between atoms: C_1  and  N_17 
REMARK    2  A    between atoms: C_4  and  C_7 
REMARK    3  A    between atoms: C_13  and  O_16 
ROOT
HETATM    1  C   UNK N   1      21.337  16.618   6.021  0.00  0.00     0.087 A 
HETATM    2  N   UNK N   1      20.338  16.664   5.079  0.00  0.00    -0.344 N 
HETATM    3  C   UNK N   1      20.542  17.677   4.158  0.00  0.00     0.052 A 
HETATM    4  S   UNK N   1      22.440  17.825   5.692  0.00  0.00    -0.069 SA
HETATM    5  C   UNK N   1      21.697  18.434   4.365  0.00  0.00     0.036 A 
HETATM    6  C   UNK N   1      22.066  19.489   3.545  0.00  0.00     0.057 A 
HETATM    7  C   UNK N   1      21.232  19.798   2.464  0.00  0.00     0.067 A 
HETATM    8  C   UNK N   1      20.058  19.048   2.231  0.00  0.00     0.039 A 
HETATM    9  C   UNK N   1      19.705  17.980   3.080  0.00  0.00     0.034 A 
HETATM   10  C   UNK N   1      19.190  15.766   5.030  0.00  0.00     0.157 C 
ENDROOT
BRANCH   1  11
HETATM   11  C   UNK N   1      21.471  15.681   7.162  0.00  0.00    -0.002 A 
HETATM   12  C   UNK N   1      22.440  14.674   7.084  0.00  0.00     0.016 A 
HETATM   13  C   UNK N   1      22.613  13.765   8.121  0.00  0.00     0.030 A 
HETATM   14  C   UNK N   1      21.817  13.839   9.271  0.00  0.00     0.029 A 
HETATM   15  C   UNK N   1      20.840  14.849   9.357  0.00  0.00     0.030 A 
HETATM   16  C   UNK N   1      20.668  15.764   8.309  0.00  0.00     0.016 A 
BRANCH  14  17
HETATM   17  N   UNK N   1      22.002  12.901  10.331  0.00  0.00    -0.390 N 
HETATM   18  C   UNK N   1      20.879  12.394  11.077  0.00  0.00     0.149 C 
HETATM   19  C   UNK N   1      23.323  12.438  10.682  0.00  0.00     0.149 C 
ENDBRANCH  14  17
ENDBRANCH   1  11
BRANCH   7  20
HETATM   20  O   UNK N   1      21.553  20.813   1.645  0.00  0.00    -0.361 OA
HETATM   21  H   UNK N   1      21.397  20.739   0.724  0.00  0.00     0.217 HD
ENDBRANCH   7  20
TORSDOF 3
ENDMDL
MODEL 2
REMARK VINA RESULT:      -6.2      3.599      7.919
REMARK  3 active torsions:
REMARK  status: ('A' for Active; 'I' for Inactive)
REMARK    1  A    between atoms: C_1  and  N_17 
REMARK    2  A    between atoms: C_4  and  C_7 
REMARK    3  A    between atoms: C_13  and  O_16 
ROOT
HETATM    1  C   UNK N   1      21.758  15.070   7.345  0.00  0.00     0.087 A 
HETATM    2  N   UNK N   1      22.952  14.438   7.599  0.00  0.00    -0.344 N 
HETATM    3  C   UNK N   1      22.892  13.660   8.742  0.00  0.00     0.052 A 
HETATM    4  S   UNK N   1      20.666  14.651   8.534  0.00  0.00    -0.069 SA
HETATM    5  C   UNK N   1      21.658  13.671   9.395  0.00  0.00     0.036 A 
HETATM    6  C   UNK N   1      21.410  12.953  10.554  0.00  0.00     0.057 A 
HETATM    7  C   UNK N   1      22.456  12.185  11.083  0.00  0.00     0.067 A 
HETATM    8  C   UNK N   1      23.714  12.157  10.442  0.00  0.00     0.039 A 
HETATM    9  C   UNK N   1      23.940  12.896   9.264  0.00  0.00     0.034 A 
HETATM   10  C   UNK N   1      24.152  14.556   6.780  0.00  0.00     0.157 C 
ENDROOT
BRANCH   1  11
HETATM   11  C   UNK N   1      21.430  15.981   6.223  0.00  0.00    -0.002 A 
HETATM   12  C   UNK N   1      21.629  17.355   6.403  0.00  0.00     0.016 A 
HETATM   13  C   UNK N   1      21.340  18.258   5.387  0.00  0.00     0.030 A 
HETATM   14  C   UNK N   1      20.842  17.811   4.157  0.00  0.00     0.029 A 
HETATM   15  C   UNK N   1      20.640  16.430   3.969  0.00  0.00     0.030 A 
HETATM   16  C   UNK N   1      20.932  15.522   4.995  0.00  0.00     0.016 A 
BRANCH  14  17
HETATM   17  N   UNK N   1      20.548  18.746   3.120  0.00  0.00    -0.390 N 
HETATM   18  C   UNK N   1      20.520  20.162   3.383  0.00  0.00     0.149 C 
HETATM   19  C   UNK N   1      20.272  18.294   1.778  0.00  0.00     0.149 C 
ENDBRANCH  14  17
ENDBRANCH   1  11
BRANCH   7  20
HETATM   20  O   UNK N   1      22.257  11.474  12.205  0.00  0.00    -0.361 OA
HETATM   21  H   UNK N   1      22.972  11.311  12.788  0.00  0.00     0.217 HD
ENDBRANCH   7  20
TORSDOF 3
ENDMDL
MODEL 3
REMARK VINA RESULT:      -6.1      7.014      7.822
REMARK  3 active torsions:
REMARK  status: ('A' for Active; 'I' for Inactive)
REMARK    1  A    between atoms: C_1  and  N_17 
REMARK    2  A    between atoms: C_4  and  C_7 
REMARK    3  A    between atoms: C_13  and  O_16 
ROOT
HETATM    1  C   UNK N   1      27.910  18.272   5.745  0.00  0.00     0.087 A 
HETATM    2  N   UNK N   1      26.723  17.605   5.559  0.00  0.00    -0.344 N 
HETATM    3  C   UNK N   1      25.800  18.376   4.872  0.00  0.00     0.052 A 
HETATM    4  S   UNK N   1      27.788  19.787   5.060  0.00  0.00    -0.069 SA
HETATM    5  C   UNK N   1      26.249  19.648   4.514  0.00  0.00     0.036 A 
HETATM    6  C   UNK N   1      25.466  20.560   3.823  0.00  0.00     0.057 A 
HETATM    7  C   UNK N   1      24.166  20.171   3.476  0.00  0.00     0.067 A 
HETATM    8  C   UNK N   1      23.687  18.889   3.826  0.00  0.00     0.039 A 
HETATM    9  C   UNK N   1      24.504  17.982   4.529  0.00  0.00     0.034 A 
HETATM   10  C   UNK N   1      26.441  16.250   6.018  0.00  0.00     0.157 C 
ENDROOT
BRANCH   1  11
HETATM   11  C   UNK N   1      29.131  17.783   6.430  0.00  0.00    -0.002 A 
HETATM   12  C   UNK N   1      29.235  17.969   7.814  0.00  0.00     0.016 A 
HETATM   13  C   UNK N   1      30.355  17.533   8.512  0.00  0.00     0.030 A 
HETATM   14  C   UNK N   1      31.406  16.896   7.842  0.00  0.00     0.029 A 
HETATM   15  C   UNK N   1      31.309  16.705   6.450  0.00  0.00     0.030 A 
HETATM   16  C   UNK N   1      30.178  17.146   5.750  0.00  0.00     0.016 A 
BRANCH  14  17
HETATM   17  N   UNK N   1      32.553  16.451   8.567  0.00  0.00    -0.390 N 
HETATM   18  C   UNK N   1      32.606  15.127   9.133  0.00  0.00     0.149 C 
HETATM   19  C   UNK N   1      33.690  17.320   8.752  0.00  0.00     0.149 C 
ENDBRANCH  14  17
ENDBRANCH   1  11
BRANCH   7  20
HETATM   20  O   UNK N   1      23.374  21.024   2.806  0.00  0.00    -0.361 OA
HETATM   21  H   UNK N   1      23.416  21.942   2.986  0.00  0.00     0.217 HD
ENDBRANCH   7  20
TORSDOF 3
ENDMDL
MODEL 4
REMARK VINA RESULT:      -6.0      5.258      6.406
REMARK  3 active torsions:
REMARK  status: ('A' for Active; 'I' for Inactive)
REMARK    1  A    between atoms: C_1  and  N_17 
REMARK    2  A    between atoms: C_4  and  C_7 
REMARK    3  A    between atoms: C_13  and  O_16 
ROOT
HETATM    1  C   UNK N   1      24.308  18.587   3.999  0.00  0.00     0.087 A 
HETATM    2  N   UNK N   1      23.794  19.701   3.379  0.00  0.00    -0.344 N 
HETATM    3  C   UNK N   1      22.441  19.568   3.117  0.00  0.00     0.052 A 
HETATM    4  S   UNK N   1      23.084  17.474   4.205  0.00  0.00    -0.069 SA
HETATM    5  C   UNK N   1      21.881  18.356   3.525  0.00  0.00     0.036 A 
HETATM    6  C   UNK N   1      20.543  18.043   3.346  0.00  0.00     0.057 A 
HETATM    7  C   UNK N   1      19.727  18.998   2.726  0.00  0.00     0.067 A 
HETATM    8  C   UNK N   1      20.268  20.233   2.304  0.00  0.00     0.039 A 
HETATM    9  C   UNK N   1      21.632  20.525   2.498  0.00  0.00     0.034 A 
HETATM   10  C   UNK N   1      24.557  20.893   3.029  0.00  0.00     0.157 C 
ENDROOT
BRANCH   1  11
HETATM   11  C   UNK N   1      25.705  18.352   4.436  0.00  0.00    -0.002 A 
HETATM   12  C   UNK N   1      26.467  17.403   3.744  0.00  0.00     0.016 A 
HETATM   13  C   UNK N   1      27.782  17.139   4.107  0.00  0.00     0.030 A 
HETATM   14  C   UNK N   1      28.375  17.820   5.177  0.00  0.00     0.029 A 
HETATM   15  C   UNK N   1      27.615  18.776   5.878  0.00  0.00     0.030 A 
HETATM   16  C   UNK N   1      26.289  19.040   5.509  0.00  0.00     0.016 A 
BRANCH  14  17
HETATM   17  N   UNK N   1      29.727  17.542   5.543  0.00  0.00    -0.390 N 
HETATM   18  C   UNK N   1      30.772  17.509   4.552  0.00  0.00     0.149 C 
HETATM   19  C   UNK N   1      30.079  17.286   6.919  0.00  0.00     0.149 C 
ENDBRANCH  14  17
ENDBRANCH   1  11
BRANCH   7  20
HETATM   20  O   UNK N   1      18.424  18.735   2.533  0.00  0.00    -0.361 OA
HETATM   21  H   UNK N   1      18.142  17.855   2.380  0.00  0.00     0.217 HD
ENDBRANCH   7  20
TORSDOF 3
ENDMDL
MODEL 5
REMARK VINA RESULT:      -5.9      5.936      6.920
REMARK  3 active torsions:
REMARK  status: ('A' for Active; 'I' for Inactive)
REMARK    1  A    between atoms: C_1  and  N_17 
REMARK    2  A    between atoms: C_4  and  C_7 
REMARK    3  A    between atoms: C_13  and  O_16 
ROOT
HETATM    1  C   UNK N   1      26.161  18.699   4.480  0.00  0.00     0.087 A 
HETATM    2  N   UNK N   1      24.947  18.062   4.568  0.00  0.00    -0.344 N 
HETATM    3  C   UNK N   1      23.932  18.801   3.985  0.00  0.00     0.052 A 
HETATM    4  S   UNK N   1      25.949  20.151   3.688  0.00  0.00    -0.069 SA
HETATM    5  C   UNK N   1      24.334  20.019   3.436  0.00  0.00     0.036 A 
HETATM    6  C   UNK N   1      23.459  20.893   2.811  0.00  0.00     0.057 A 
HETATM    7  C   UNK N   1      22.110  20.521   2.736  0.00  0.00     0.067 A 
HETATM    8  C   UNK N   1      21.676  19.294   3.283  0.00  0.00     0.039 A 
HETATM    9  C   UNK N   1      22.588  18.424   3.913  0.00  0.00     0.034 A 
HETATM   10  C   UNK N   1      24.726  16.764   5.194  0.00  0.00     0.157 C 
ENDROOT
BRANCH   1  11
HETATM   11  C   UNK N   1      27.475  18.230   4.982  0.00  0.00    -0.002 A 
HETATM   12  C   UNK N   1      28.390  17.707   4.061  0.00  0.00     0.016 A 
HETATM   13  C   UNK N   1      29.638  17.252   4.472  0.00  0.00     0.030 A 
HETATM   14  C   UNK N   1      30.005  17.307   5.821  0.00  0.00     0.029 A 
HETATM   15  C   UNK N   1      29.090  17.831   6.754  0.00  0.00     0.030 A 
HETATM   16  C   UNK N   1      27.833  18.290   6.337  0.00  0.00     0.016 A 
BRANCH  14  17
HETATM   17  N   UNK N   1      31.289  16.836   6.234  0.00  0.00    -0.390 N 
HETATM   18  C   UNK N   1      32.490  17.291   5.583  0.00  0.00     0.149 C 
HETATM   19  C   UNK N   1      31.412  15.891   7.318  0.00  0.00     0.149 C 
ENDBRANCH  14  17
ENDBRANCH   1  11
BRANCH   7  20
HETATM   20  O   UNK N   1      21.228  21.340   2.138  0.00  0.00    -0.361 OA
HETATM   21  H   UNK N   1      20.679  21.016   1.452  0.00  0.00     0.217 HD
ENDBRANCH   7  20
TORSDOF 3
ENDMDL
MODEL 6
REMARK VINA RESULT:      -5.9     10.256     12.529
REMARK  3 active torsions:
REMARK  status: ('A' for Active; 'I' for Inactive)
REMARK    1  A    between atoms: C_1  and  N_17 
REMARK    2  A    between atoms: C_4  and  C_7 
REMARK    3  A    between atoms: C_13  and  O_16 
ROOT
HETATM    1  C   UNK N   1      31.950  16.776   7.467  0.00  0.00     0.087 A 
HETATM    2  N   UNK N   1      32.544  15.539   7.538  0.00  0.00    -0.344 N 
HETATM    3  C   UNK N   1      33.649  15.543   8.371  0.00  0.00     0.052 A 
HETATM    4  S   UNK N   1      32.802  17.836   8.433  0.00  0.00    -0.069 SA
HETATM    5  C   UNK N   1      33.934  16.775   8.962  0.00  0.00     0.036 A 
HETATM    6  C   UNK N   1      35.000  16.971   9.825  0.00  0.00     0.057 A 
HETATM    7  C   UNK N   1      35.821  15.872  10.108  0.00  0.00     0.067 A 
HETATM    8  C   UNK N   1      35.555  14.614   9.525  0.00  0.00     0.039 A 
HETATM    9  C   UNK N   1      34.464  14.441   8.650  0.00  0.00     0.034 A 
HETATM   10  C   UNK N   1      32.087  14.349   6.831  0.00  0.00     0.157 C 
ENDROOT
BRANCH   1  11
HETATM   11  C   UNK N   1      30.754  17.169   6.685  0.00  0.00    -0.002 A 
HETATM   12  C   UNK N   1      29.567  17.438   7.378  0.00  0.00     0.016 A 
HETATM   13  C   UNK N   1      28.412  17.811   6.699  0.00  0.00     0.030 A 
HETATM   14  C   UNK N   1      28.413  17.925   5.304  0.00  0.00     0.029 A 
HETATM   15  C   UNK N   1      29.602  17.656   4.601  0.00  0.00     0.030 A 
HETATM   16  C   UNK N   1      30.765  17.281   5.287  0.00  0.00     0.016 A 
BRANCH  14  17
HETATM   17  N   UNK N   1      27.221  18.308   4.616  0.00  0.00    -0.390 N 
HETATM   18  C   UNK N   1      27.161  19.536   3.864  0.00  0.00     0.149 C 
HETATM   19  C   UNK N   1      26.046  17.472   4.658  0.00  0.00     0.149 C 
ENDBRANCH  14  17
ENDBRANCH   1  11
BRANCH   7  20
HETATM   20  O   UNK N   1      36.865  16.019  10.940  0.00  0.00    -0.361 OA
HETATM   21  H   UNK N   1      37.714  15.717  10.684  0.00  0.00     0.217 HD
ENDBRANCH   7  20
TORSDOF 3
ENDMDL
MODEL 7
REMARK VINA RESULT:      -5.9     10.826     13.287
REMARK  3 active torsions:
REMARK  status: ('A' for Active; 'I' for Inactive)
REMARK    1  A    between atoms: C_1  and  N_17 
REMARK    2  A    between atoms: C_4  and  C_7 
REMARK    3  A    between atoms: C_13  and  O_16 
ROOT
HETATM    1  C   UNK N   1      32.421  16.411   8.255  0.00  0.00     0.087 A 
HETATM    2  N   UNK N   1      33.549  17.088   8.652  0.00  0.00    -0.344 N 
HETATM    3  C   UNK N   1      34.272  16.379   9.596  0.00  0.00     0.052 A 
HETATM    4  S   UNK N   1      32.348  14.962   9.077  0.00  0.00    -0.069 SA
HETATM    5  C   UNK N   1      33.724  15.144   9.948  0.00  0.00     0.036 A 
HETATM    6  C   UNK N   1      34.307  14.295  10.876  0.00  0.00     0.057 A 
HETATM    7  C   UNK N   1      35.502  14.710  11.479  0.00  0.00     0.067 A 
HETATM    8  C   UNK N   1      36.078  15.954  11.140  0.00  0.00     0.039 A 
HETATM    9  C   UNK N   1      35.465  16.798  10.193  0.00  0.00     0.034 A 
HETATM   10  C   UNK N   1      33.960  18.396   8.157  0.00  0.00     0.157 C 
ENDROOT
BRANCH   1  11
HETATM   11  C   UNK N   1      31.401  16.841   7.269  0.00  0.00    -0.002 A 
HETATM   12  C   UNK N   1      30.184  17.342   7.747  0.00  0.00     0.016 A 
HETATM   13  C   UNK N   1      29.190  17.760   6.871  0.00  0.00     0.030 A 
HETATM   14  C   UNK N   1      29.385  17.689   5.487  0.00  0.00     0.029 A 
HETATM   15  C   UNK N   1      30.606  17.186   4.998  0.00  0.00     0.030 A 
HETATM   16  C   UNK N   1      31.607  16.765   5.884  0.00  0.00     0.016 A 
BRANCH  14  17
HETATM   17  N   UNK N   1      28.358  18.121   4.595  0.00  0.00    -0.390 N 
HETATM   18  C   UNK N   1      27.712  17.194   3.701  0.00  0.00     0.149 C 
HETATM   19  C   UNK N   1      27.940  19.502   4.568  0.00  0.00     0.149 C 
ENDBRANCH  14  17
ENDBRANCH   1  11
BRANCH   7  20
HETATM   20  O   UNK N   1      36.100  13.917  12.383  0.00  0.00    -0.361 OA
HETATM   21  H   UNK N   1      36.440  14.283  13.174  0.00  0.00     0.217 HD
ENDBRANCH   7  20
TORSDOF 3
ENDMDL
MODEL 8
REMARK VINA RESULT:      -5.8      9.944     10.975
REMARK  3 active torsions:
REMARK  status: ('A' for Active; 'I' for Inactive)
REMARK    1  A    between atoms: C_1  and  N_17 
REMARK    2  A    between atoms: C_4  and  C_7 
REMARK    3  A    between atoms: C_13  and  O_16 
ROOT
HETATM    1  C   UNK N   1      31.261  17.116   7.817  0.00  0.00     0.087 A 
HETATM    2  N   UNK N   1      30.973  16.967   6.482  0.00  0.00    -0.344 N 
HETATM    3  C   UNK N   1      29.748  17.522   6.153  0.00  0.00     0.052 A 
HETATM    4  S   UNK N   1      30.001  17.924   8.551  0.00  0.00    -0.069 SA
HETATM    5  C   UNK N   1      29.064  18.108   7.219  0.00  0.00     0.036 A 
HETATM    6  C   UNK N   1      27.824  18.712   7.081  0.00  0.00     0.057 A 
HETATM    7  C   UNK N   1      27.244  18.727   5.806  0.00  0.00     0.067 A 
HETATM    8  C   UNK N   1      27.915  18.140   4.710  0.00  0.00     0.039 A 
HETATM    9  C   UNK N   1      29.174  17.533   4.878  0.00  0.00     0.034 A 
HETATM   10  C   UNK N   1      31.835  16.310   5.507  0.00  0.00     0.157 C 
ENDROOT
BRANCH   1  11
HETATM   11  C   UNK N   1      32.469  16.659   8.544  0.00  0.00    -0.002 A 
HETATM   12  C   UNK N   1      32.457  15.380   9.115  0.00  0.00     0.016 A 
HETATM   13  C   UNK N   1      33.560  14.897   9.809  0.00  0.00     0.030 A 
HETATM   14  C   UNK N   1      34.710  15.681   9.952  0.00  0.00     0.029 A 
HETATM   15  C   UNK N   1      34.730  16.968   9.381  0.00  0.00     0.030 A 
HETATM   16  C   UNK N   1      33.617  17.453   8.682  0.00  0.00     0.016 A 
BRANCH  14  17
HETATM   17  N   UNK N   1      35.839  15.175  10.666  0.00  0.00    -0.390 N 
HETATM   18  C   UNK N   1      36.950  14.577   9.972  0.00  0.00     0.149 C 
HETATM   19  C   UNK N   1      35.892  15.252  12.107  0.00  0.00     0.149 C 
ENDBRANCH  14  17
ENDBRANCH   1  11
BRANCH   7  20
HETATM   20  O   UNK N   1      26.043  19.302   5.629  0.00  0.00    -0.361 OA
HETATM   21  H   UNK N   1      25.617  19.725   6.347  0.00  0.00     0.217 HD
ENDBRANCH   7  20
TORSDOF 3
ENDMDL
MODEL 9
REMARK VINA RESULT:      -5.8      8.314     10.513
REMARK  3 active torsions:
REMARK  status: ('A' for Active; 'I' for Inactive)
REMARK    1  A    between atoms: C_1  and  N_17 
REMARK    2  A    between atoms: C_4  and  C_7 
REMARK    3  A    between atoms: C_13  and  O_16 
ROOT
HETATM    1  C   UNK N   1      29.531  17.664   5.372  0.00  0.00     0.087 A 
HETATM    2  N   UNK N   1      30.016  17.514   6.649  0.00  0.00    -0.344 N 
HETATM    3  C   UNK N   1      31.345  17.127   6.655  0.00  0.00     0.052 A 
HETATM    4  S   UNK N   1      30.752  17.317   4.291  0.00  0.00    -0.069 SA
HETATM    5  C   UNK N   1      31.916  16.970   5.392  0.00  0.00     0.036 A 
HETATM    6  C   UNK N   1      33.234  16.587   5.200  0.00  0.00     0.057 A 
HETATM    7  C   UNK N   1      34.017  16.351   6.337  0.00  0.00     0.067 A 
HETATM    8  C   UNK N   1      33.464  16.502   7.628  0.00  0.00     0.039 A 
HETATM    9  C   UNK N   1      32.120  16.892   7.795  0.00  0.00     0.034 A 
HETATM   10  C   UNK N   1      29.246  17.729   7.869  0.00  0.00     0.157 C 
ENDROOT
BRANCH   1  11
HETATM   11  C   UNK N   1      28.166  18.065   4.958  0.00  0.00    -0.002 A 
HETATM   12  C   UNK N   1      27.940  19.406   4.623  0.00  0.00     0.016 A 
HETATM   13  C   UNK N   1      26.681  19.842   4.227  0.00  0.00     0.030 A 
HETATM   14  C   UNK N   1      25.608  18.945   4.155  0.00  0.00     0.029 A 
HETATM   15  C   UNK N   1      25.827  17.595   4.490  0.00  0.00     0.030 A 
HETATM   16  C   UNK N   1      27.098  17.159   4.889  0.00  0.00     0.016 A 
BRANCH  14  17
HETATM   17  N   UNK N   1      24.318  19.402   3.747  0.00  0.00    -0.390 N 
HETATM   18  C   UNK N   1      24.173  20.576   2.925  0.00  0.00     0.149 C 
HETATM   19  C   UNK N   1      23.126  18.697   4.151  0.00  0.00     0.149 C 
ENDBRANCH  14  17
ENDBRANCH   1  11
BRANCH   7  20
HETATM   20  O   UNK N   1      35.299  15.978   6.196  0.00  0.00    -0.361 OA
HETATM   21  H   UNK N   1      35.975  16.448   6.642  0.00  0.00     0.217 HD
ENDBRANCH   7  20
TORSDOF 3
ENDMDL
