REMARK  7 active torsions:
REMARK  status: ('A' for Active; 'I' for Inactive)
REMARK    1  A    between atoms: C_2  and  C_5 
REMARK    2  A    between atoms: C_5  and  C_6 
REMARK    3  A    between atoms: C_11  and  C_12 
REMARK    4  A    between atoms: C_12  and  C_13 
REMARK    5  A    between atoms: C_13  and  C_15 
REMARK    6  A    between atoms: C_13  and  N_14 
REMARK    7  A    between atoms: C_15  and  O_17 
ROOT
HETATM    1  C   UNK N   1       1.171   1.867  -0.159  0.00  0.00    -0.050 A 
HETATM    2  C   UNK N   1      -0.064   2.522  -0.237  0.00  0.00     0.008 A 
HETATM    3  C   UNK N   1      -1.255   1.786  -0.225  0.00  0.00     0.007 A 
HETATM    4  C   UNK N   1       1.202   0.468  -0.072  0.00  0.00     0.008 A 
HETATM    5  C   UNK N   1       0.016  -0.263  -0.059  0.00  0.00     0.007 A 
HETATM    6  C   UNK N   1      -1.222   0.390  -0.134  0.00  0.00    -0.056 A 
ENDROOT
BRANCH   6   7
HETATM    7  C   UNK N   1      -2.522  -0.372  -0.118  0.00  0.00     0.074 C 
BRANCH   7   8
HETATM    8  C   UNK N   1      -2.402  -1.890   0.099  0.00  0.00     0.177 C 
BRANCH   8   9
HETATM    9  C   UNK N   1      -3.754  -2.546   0.163  0.00  0.00     0.163 C 
HETATM   10  O   UNK N   1      -3.832  -3.749   0.362  0.00  0.00    -0.648 OA
BRANCH   9  11
HETATM   11  O   UNK N   1      -4.881  -1.827  -0.002  0.00  0.00    -0.775 OA
HETATM   12  H   UNK N   1      -4.841  -0.898  -0.116  0.00  0.00     0.167 HD
ENDBRANCH   9  11
ENDBRANCH   8   9
BRANCH   8  13
HETATM   13  N   UNK N   1      -1.641  -2.491  -0.985  0.00  0.00    -0.417 N 
HETATM   14  H   UNK N   1      -1.739  -3.164  -1.745  0.00  0.00     0.150 HD
HETATM   15  H   UNK N   1      -0.693  -2.114  -0.985  0.00  0.00     0.150 HD
ENDBRANCH   8  13
ENDBRANCH   7   8
ENDBRANCH   6   7
BRANCH   1  16
HETATM   16  C   UNK N   1       2.433   2.688  -0.156  0.00  0.00     0.155 C 
BRANCH  16  17
HETATM   17  C   UNK N   1       3.720   1.912   0.136  0.00  0.00     0.391 C 
HETATM   18  F   UNK N   1       3.931   0.936  -0.822  0.00  0.00    -0.171 F 
HETATM   19  F   UNK N   1       4.787   2.788   0.121  0.00  0.00    -0.171 F 
HETATM   20  F   UNK N   1       3.641   1.327   1.388  0.00  0.00    -0.171 F 
ENDBRANCH  16  17
ENDBRANCH   1  16
TORSDOF 7
