MODEL 1
REMARK VINA RESULT:      -6.0      0.000      0.000
REMARK  7 active torsions:
REMARK  status: ('A' for Active; 'I' for Inactive)
REMARK    1  A    between atoms: C_2  and  C_5 
REMARK    2  A    between atoms: C_5  and  C_6 
REMARK    3  A    between atoms: C_11  and  C_12 
REMARK    4  A    between atoms: C_12  and  C_13 
REMARK    5  A    between atoms: C_13  and  C_15 
REMARK    6  A    between atoms: C_13  and  N_14 
REMARK    7  A    between atoms: C_15  and  O_17 
ROOT
HETATM    1  C   UNK N   1      35.402  12.810  16.204  0.00  0.00    -0.050 A 
HETATM    2  C   UNK N   1      36.360  13.745  15.794  0.00  0.00     0.008 A 
HETATM    3  C   UNK N   1      36.448  14.122  14.449  0.00  0.00     0.007 A 
HETATM    4  C   UNK N   1      34.536  12.253  15.252  0.00  0.00     0.008 A 
HETATM    5  C   UNK N   1      34.624  12.629  13.914  0.00  0.00     0.007 A 
HETATM    6  C   UNK N   1      35.580  13.568  13.502  0.00  0.00    -0.056 A 
ENDROOT
BRANCH   6   7
HETATM    7  C   UNK N   1      35.698  13.999  12.062  0.00  0.00     0.074 C 
BRANCH   7   8
HETATM    8  C   UNK N   1      34.978  15.309  11.698  0.00  0.00     0.177 C 
BRANCH   8   9
HETATM    9  C   UNK N   1      35.870  16.226  10.907  0.00  0.00     0.163 C 
HETATM   10  O   UNK N   1      35.393  17.211  10.363  0.00  0.00    -0.648 OA
BRANCH   9  11
HETATM   11  O   UNK N   1      37.187  15.973  10.783  0.00  0.00    -0.775 OA
HETATM   12  H   UNK N   1      37.784  16.212  11.465  0.00  0.00     0.167 HD
ENDBRANCH   9  11
ENDBRANCH   8   9
BRANCH   8  13
HETATM   13  N   UNK N   1      33.787  15.023  10.914  0.00  0.00    -0.417 N 
HETATM   14  H   UNK N   1      33.340  15.270  10.031  0.00  0.00     0.150 HD
HETATM   15  H   UNK N   1      33.204  14.352  11.414  0.00  0.00     0.150 HD
ENDBRANCH   8  13
ENDBRANCH   7   8
ENDBRANCH   6   7
BRANCH   1  16
HETATM   16  C   UNK N   1      35.321  12.439  17.661  0.00  0.00     0.155 C 
BRANCH  16  17
HETATM   17  C   UNK N   1      35.707  10.995  17.993  0.00  0.00     0.391 C 
HETATM   18  F   UNK N   1      36.681  10.537  17.123  0.00  0.00    -0.171 F 
HETATM   19  F   UNK N   1      36.203  10.947  19.281  0.00  0.00    -0.171 F 
HETATM   20  F   UNK N   1      34.591  10.181  17.914  0.00  0.00    -0.171 F 
ENDBRANCH  16  17
ENDBRANCH   1  16
TORSDOF 7
ENDMDL
MODEL 2
REMARK VINA RESULT:      -5.7     21.393     23.961
REMARK  7 active torsions:
REMARK  status: ('A' for Active; 'I' for Inactive)
REMARK    1  A    between atoms: C_2  and  C_5 
REMARK    2  A    between atoms: C_5  and  C_6 
REMARK    3  A    between atoms: C_11  and  C_12 
REMARK    4  A    between atoms: C_12  and  C_13 
REMARK    5  A    between atoms: C_13  and  C_15 
REMARK    6  A    between atoms: C_13  and  N_14 
REMARK    7  A    between atoms: C_15  and  O_17 
ROOT
HETATM    1  C   UNK N   1      26.326  24.832  -5.085  0.00  0.00    -0.050 A 
HETATM    2  C   UNK N   1      26.820  24.059  -6.143  0.00  0.00     0.008 A 
HETATM    3  C   UNK N   1      28.027  23.364  -6.005  0.00  0.00     0.007 A 
HETATM    4  C   UNK N   1      27.054  24.905  -3.890  0.00  0.00     0.008 A 
HETATM    5  C   UNK N   1      28.255  24.212  -3.754  0.00  0.00     0.007 A 
HETATM    6  C   UNK N   1      28.750  23.434  -4.810  0.00  0.00    -0.056 A 
ENDROOT
BRANCH   6   7
HETATM    7  C   UNK N   1      30.044  22.670  -4.692  0.00  0.00     0.074 C 
BRANCH   7   8
HETATM    8  C   UNK N   1      31.108  23.297  -3.775  0.00  0.00     0.177 C 
BRANCH   8   9
HETATM    9  C   UNK N   1      31.206  22.566  -2.464  0.00  0.00     0.163 C 
HETATM   10  O   UNK N   1      30.547  22.948  -1.509  0.00  0.00    -0.648 OA
BRANCH   9  11
HETATM   11  O   UNK N   1      32.016  21.498  -2.326  0.00  0.00    -0.775 OA
HETATM   12  H   UNK N   1      32.903  21.606  -2.044  0.00  0.00     0.167 HD
ENDBRANCH   9  11
ENDBRANCH   8   9
BRANCH   8  13
HETATM   13  N   UNK N   1      32.408  23.268  -4.426  0.00  0.00    -0.417 N 
HETATM   14  H   UNK N   1      33.401  23.374  -4.220  0.00  0.00     0.150 HD
HETATM   15  H   UNK N   1      32.286  23.078  -5.421  0.00  0.00     0.150 HD
ENDBRANCH   8  13
ENDBRANCH   7   8
ENDBRANCH   6   7
BRANCH   1  16
HETATM   16  C   UNK N   1      25.016  25.553  -5.259  0.00  0.00     0.155 C 
BRANCH  16  17
HETATM   17  C   UNK N   1      25.115  27.076  -5.379  0.00  0.00     0.391 C 
HETATM   18  F   UNK N   1      25.349  27.650  -4.142  0.00  0.00    -0.171 F 
HETATM   19  F   UNK N   1      26.162  27.393  -6.221  0.00  0.00    -0.171 F 
HETATM   20  F   UNK N   1      23.944  27.582  -5.914  0.00  0.00    -0.171 F 
ENDBRANCH  16  17
ENDBRANCH   1  16
TORSDOF 7
ENDMDL
MODEL 3
REMARK VINA RESULT:      -5.7     24.919     25.972
REMARK  7 active torsions:
REMARK  status: ('A' for Active; 'I' for Inactive)
REMARK    1  A    between atoms: C_2  and  C_5 
REMARK    2  A    between atoms: C_5  and  C_6 
REMARK    3  A    between atoms: C_11  and  C_12 
REMARK    4  A    between atoms: C_12  and  C_13 
REMARK    5  A    between atoms: C_13  and  C_15 
REMARK    6  A    between atoms: C_13  and  N_14 
REMARK    7  A    between atoms: C_15  and  O_17 
ROOT
HETATM    1  C   UNK N   1      25.956  23.578  -6.760  0.00  0.00    -0.050 A 
HETATM    2  C   UNK N   1      25.838  24.688  -7.606  0.00  0.00     0.008 A 
HETATM    3  C   UNK N   1      25.607  25.961  -7.072  0.00  0.00     0.007 A 
HETATM    4  C   UNK N   1      25.836  23.755  -5.375  0.00  0.00     0.008 A 
HETATM    5  C   UNK N   1      25.607  25.023  -4.844  0.00  0.00     0.007 A 
HETATM    6  C   UNK N   1      25.492  26.136  -5.689  0.00  0.00    -0.056 A 
ENDROOT
BRANCH   6   7
HETATM    7  C   UNK N   1      25.248  27.521  -5.145  0.00  0.00     0.074 C 
BRANCH   7   8
HETATM    8  C   UNK N   1      26.299  28.040  -4.149  0.00  0.00     0.177 C 
BRANCH   8   9
HETATM    9  C   UNK N   1      26.589  29.500  -4.365  0.00  0.00     0.163 C 
HETATM   10  O   UNK N   1      27.367  29.836  -5.245  0.00  0.00    -0.648 OA
BRANCH   9  11
HETATM   11  O   UNK N   1      26.009  30.442  -3.598  0.00  0.00    -0.775 OA
HETATM   12  H   UNK N   1      25.596  30.211  -2.789  0.00  0.00     0.167 HD
ENDBRANCH   9  11
ENDBRANCH   8   9
BRANCH   8  13
HETATM   13  N   UNK N   1      25.828  27.853  -2.785  0.00  0.00    -0.417 N 
HETATM   14  H   UNK N   1      26.178  27.705  -1.839  0.00  0.00     0.150 HD
HETATM   15  H   UNK N   1      24.809  27.878  -2.770  0.00  0.00     0.150 HD
ENDBRANCH   8  13
ENDBRANCH   7   8
ENDBRANCH   6   7
BRANCH   1  16
HETATM   16  C   UNK N   1      26.222  22.225  -7.365  0.00  0.00     0.155 C 
BRANCH  16  17
HETATM   17  C   UNK N   1      24.984  21.359  -7.607  0.00  0.00     0.391 C 
HETATM   18  F   UNK N   1      25.324  20.191  -8.266  0.00  0.00    -0.171 F 
HETATM   19  F   UNK N   1      24.417  21.034  -6.390  0.00  0.00    -0.171 F 
HETATM   20  F   UNK N   1      24.057  22.064  -8.356  0.00  0.00    -0.171 F 
ENDBRANCH  16  17
ENDBRANCH   1  16
TORSDOF 7
ENDMDL
MODEL 4
REMARK VINA RESULT:      -5.5      9.603     11.712
REMARK  7 active torsions:
REMARK  status: ('A' for Active; 'I' for Inactive)
REMARK    1  A    between atoms: C_2  and  C_5 
REMARK    2  A    between atoms: C_5  and  C_6 
REMARK    3  A    between atoms: C_11  and  C_12 
REMARK    4  A    between atoms: C_12  and  C_13 
REMARK    5  A    between atoms: C_13  and  C_15 
REMARK    6  A    between atoms: C_13  and  N_14 
REMARK    7  A    between atoms: C_15  and  O_17 
ROOT
HETATM    1  C   UNK N   1      28.568  18.480   6.919  0.00  0.00    -0.050 A 
HETATM    2  C   UNK N   1      28.999  18.748   8.224  0.00  0.00     0.008 A 
HETATM    3  C   UNK N   1      30.150  18.129   8.728  0.00  0.00     0.007 A 
HETATM    4  C   UNK N   1      29.299  17.585   6.124  0.00  0.00     0.008 A 
HETATM    5  C   UNK N   1      30.444  16.971   6.627  0.00  0.00     0.007 A 
HETATM    6  C   UNK N   1      30.880  17.239   7.932  0.00  0.00    -0.056 A 
ENDROOT
BRANCH   6   7
HETATM    7  C   UNK N   1      32.116  16.595   8.502  0.00  0.00     0.074 C 
BRANCH   7   8
HETATM    8  C   UNK N   1      33.339  17.516   8.654  0.00  0.00     0.177 C 
BRANCH   8   9
HETATM    9  C   UNK N   1      34.479  16.811   9.337  0.00  0.00     0.163 C 
HETATM   10  O   UNK N   1      35.030  15.874   8.780  0.00  0.00    -0.648 OA
BRANCH   9  11
HETATM   11  O   UNK N   1      34.897  17.195  10.559  0.00  0.00    -0.775 OA
HETATM   12  H   UNK N   1      35.015  18.102  10.759  0.00  0.00     0.167 HD
ENDBRANCH   9  11
ENDBRANCH   8   9
BRANCH   8  13
HETATM   13  N   UNK N   1      33.786  17.971   7.347  0.00  0.00    -0.417 N 
HETATM   14  H   UNK N   1      34.626  18.026   6.771  0.00  0.00     0.150 HD
HETATM   15  H   UNK N   1      32.997  18.369   6.837  0.00  0.00     0.150 HD
ENDBRANCH   8  13
ENDBRANCH   7   8
ENDBRANCH   6   7
BRANCH   1  16
HETATM   16  C   UNK N   1      27.338  19.175   6.400  0.00  0.00     0.155 C 
BRANCH  16  17
HETATM   17  C   UNK N   1      27.594  20.463   5.612  0.00  0.00     0.391 C 
HETATM   18  F   UNK N   1      28.483  20.233   4.577  0.00  0.00    -0.171 F 
HETATM   19  F   UNK N   1      26.401  20.911   5.082  0.00  0.00    -0.171 F 
HETATM   20  F   UNK N   1      28.101  21.436   6.455  0.00  0.00    -0.171 F 
ENDBRANCH  16  17
ENDBRANCH   1  16
TORSDOF 7
ENDMDL
MODEL 5
REMARK VINA RESULT:      -5.4     24.768     25.894
REMARK  7 active torsions:
REMARK  status: ('A' for Active; 'I' for Inactive)
REMARK    1  A    between atoms: C_2  and  C_5 
REMARK    2  A    between atoms: C_5  and  C_6 
REMARK    3  A    between atoms: C_11  and  C_12 
REMARK    4  A    between atoms: C_12  and  C_13 
REMARK    5  A    between atoms: C_13  and  C_15 
REMARK    6  A    between atoms: C_13  and  N_14 
REMARK    7  A    between atoms: C_15  and  O_17 
ROOT
HETATM    1  C   UNK N   1      25.859  27.003  -4.410  0.00  0.00    -0.050 A 
HETATM    2  C   UNK N   1      25.466  27.329  -5.713  0.00  0.00     0.008 A 
HETATM    3  C   UNK N   1      25.478  26.354  -6.718  0.00  0.00     0.007 A 
HETATM    4  C   UNK N   1      26.269  25.693  -4.123  0.00  0.00     0.008 A 
HETATM    5  C   UNK N   1      26.280  24.724  -5.124  0.00  0.00     0.007 A 
HETATM    6  C   UNK N   1      25.883  25.046  -6.429  0.00  0.00    -0.056 A 
ENDROOT
BRANCH   6   7
HETATM    7  C   UNK N   1      25.880  24.020  -7.533  0.00  0.00     0.074 C 
BRANCH   7   8
HETATM    8  C   UNK N   1      26.019  22.556  -7.081  0.00  0.00     0.177 C 
BRANCH   8   9
HETATM    9  C   UNK N   1      24.867  21.719  -7.566  0.00  0.00     0.163 C 
HETATM   10  O   UNK N   1      24.013  21.351  -6.773  0.00  0.00    -0.648 OA
BRANCH   9  11
HETATM   11  O   UNK N   1      24.767  21.362  -8.861  0.00  0.00    -0.775 OA
HETATM   12  H   UNK N   1      24.195  21.827  -9.440  0.00  0.00     0.167 HD
ENDBRANCH   9  11
ENDBRANCH   8   9
BRANCH   8  13
HETATM   13  N   UNK N   1      27.257  21.990  -7.593  0.00  0.00    -0.417 N 
HETATM   14  H   UNK N   1      28.202  21.751  -7.295  0.00  0.00     0.150 HD
HETATM   15  H   UNK N   1      27.141  21.755  -8.579  0.00  0.00     0.150 HD
ENDBRANCH   8  13
ENDBRANCH   7   8
ENDBRANCH   6   7
BRANCH   1  16
HETATM   16  C   UNK N   1      25.817  28.069  -3.347  0.00  0.00     0.155 C 
BRANCH  16  17
HETATM   17  C   UNK N   1      26.856  29.184  -3.495  0.00  0.00     0.391 C 
HETATM   18  F   UNK N   1      27.224  29.677  -2.256  0.00  0.00    -0.171 F 
HETATM   19  F   UNK N   1      27.976  28.675  -4.122  0.00  0.00    -0.171 F 
HETATM   20  F   UNK N   1      26.339  30.208  -4.269  0.00  0.00    -0.171 F 
ENDBRANCH  16  17
ENDBRANCH   1  16
TORSDOF 7
ENDMDL
MODEL 6
REMARK VINA RESULT:      -5.4     24.579     25.909
REMARK  7 active torsions:
REMARK  status: ('A' for Active; 'I' for Inactive)
REMARK    1  A    between atoms: C_2  and  C_5 
REMARK    2  A    between atoms: C_5  and  C_6 
REMARK    3  A    between atoms: C_11  and  C_12 
REMARK    4  A    between atoms: C_12  and  C_13 
REMARK    5  A    between atoms: C_13  and  C_15 
REMARK    6  A    between atoms: C_13  and  N_14 
REMARK    7  A    between atoms: C_15  and  O_17 
ROOT
HETATM    1  C   UNK N   1      25.724  26.646  -4.660  0.00  0.00    -0.050 A 
HETATM    2  C   UNK N   1      26.306  25.570  -3.979  0.00  0.00     0.008 A 
HETATM    3  C   UNK N   1      26.539  24.359  -4.640  0.00  0.00     0.007 A 
HETATM    4  C   UNK N   1      25.375  26.496  -6.009  0.00  0.00     0.008 A 
HETATM    5  C   UNK N   1      25.608  25.290  -6.667  0.00  0.00     0.007 A 
HETATM    6  C   UNK N   1      26.194  24.212  -5.989  0.00  0.00    -0.056 A 
ENDROOT
BRANCH   6   7
HETATM    7  C   UNK N   1      26.463  22.897  -6.673  0.00  0.00     0.074 C 
BRANCH   7   8
HETATM    8  C   UNK N   1      25.357  22.399  -7.619  0.00  0.00     0.177 C 
BRANCH   8   9
HETATM    9  C   UNK N   1      25.912  21.504  -8.693  0.00  0.00     0.163 C 
HETATM   10  O   UNK N   1      27.095  21.199  -8.672  0.00  0.00    -0.648 OA
BRANCH   9  11
HETATM   11  O   UNK N   1      25.124  21.038  -9.681  0.00  0.00    -0.775 OA
HETATM   12  H   UNK N   1      24.283  20.674  -9.489  0.00  0.00     0.167 HD
ENDBRANCH   9  11
ENDBRANCH   8   9
BRANCH   8  13
HETATM   13  N   UNK N   1      24.352  21.662  -6.868  0.00  0.00    -0.417 N 
HETATM   14  H   UNK N   1      23.589  21.810  -6.208  0.00  0.00     0.150 HD
HETATM   15  H   UNK N   1      24.440  20.666  -7.069  0.00  0.00     0.150 HD
ENDBRANCH   8  13
ENDBRANCH   7   8
ENDBRANCH   6   7
BRANCH   1  16
HETATM   16  C   UNK N   1      25.503  27.941  -3.925  0.00  0.00     0.155 C 
BRANCH  16  17
HETATM   17  C   UNK N   1      26.613  28.983  -4.083  0.00  0.00     0.391 C 
HETATM   18  F   UNK N   1      26.834  29.263  -5.420  0.00  0.00    -0.171 F 
HETATM   19  F   UNK N   1      26.234  30.146  -3.442  0.00  0.00    -0.171 F 
HETATM   20  F   UNK N   1      27.781  28.516  -3.505  0.00  0.00    -0.171 F 
ENDBRANCH  16  17
ENDBRANCH   1  16
TORSDOF 7
ENDMDL
MODEL 7
REMARK VINA RESULT:      -5.4      2.759      4.038
REMARK  7 active torsions:
REMARK  status: ('A' for Active; 'I' for Inactive)
REMARK    1  A    between atoms: C_2  and  C_5 
REMARK    2  A    between atoms: C_5  and  C_6 
REMARK    3  A    between atoms: C_11  and  C_12 
REMARK    4  A    between atoms: C_12  and  C_13 
REMARK    5  A    between atoms: C_13  and  C_15 
REMARK    6  A    between atoms: C_13  and  N_14 
REMARK    7  A    between atoms: C_15  and  O_17 
ROOT
HETATM    1  C   UNK N   1      35.039  10.451  18.978  0.00  0.00    -0.050 A 
HETATM    2  C   UNK N   1      35.168  11.808  19.297  0.00  0.00     0.008 A 
HETATM    3  C   UNK N   1      35.265  12.767  18.281  0.00  0.00     0.007 A 
HETATM    4  C   UNK N   1      35.011  10.063  17.631  0.00  0.00     0.008 A 
HETATM    5  C   UNK N   1      35.107  11.017  16.621  0.00  0.00     0.007 A 
HETATM    6  C   UNK N   1      35.233  12.377  16.937  0.00  0.00    -0.056 A 
ENDROOT
BRANCH   6   7
HETATM    7  C   UNK N   1      35.334  13.434  15.868  0.00  0.00     0.074 C 
BRANCH   7   8
HETATM    8  C   UNK N   1      36.034  13.001  14.568  0.00  0.00     0.177 C 
BRANCH   8   9
HETATM    9  C   UNK N   1      35.718  13.938  13.434  0.00  0.00     0.163 C 
HETATM   10  O   UNK N   1      34.737  13.730  12.735  0.00  0.00    -0.648 OA
BRANCH   9  11
HETATM   11  O   UNK N   1      36.504  15.000  13.174  0.00  0.00    -0.775 OA
HETATM   12  H   UNK N   1      36.489  15.408  12.331  0.00  0.00     0.167 HD
ENDBRANCH   9  11
ENDBRANCH   8   9
BRANCH   8  13
HETATM   13  N   UNK N   1      37.475  12.971  14.763  0.00  0.00    -0.417 N 
HETATM   14  H   UNK N   1      38.186  13.192  15.459  0.00  0.00     0.150 HD
HETATM   15  H   UNK N   1      37.924  12.609  13.921  0.00  0.00     0.150 HD
ENDBRANCH   8  13
ENDBRANCH   7   8
ENDBRANCH   6   7
BRANCH   1  16
HETATM   16  C   UNK N   1      34.919   9.448  20.094  0.00  0.00     0.155 C 
BRANCH  16  17
HETATM   17  C   UNK N   1      33.493   9.179  20.584  0.00  0.00     0.391 C 
HETATM   18  F   UNK N   1      33.034  10.233  21.354  0.00  0.00    -0.171 F 
HETATM   19  F   UNK N   1      32.662   9.031  19.492  0.00  0.00    -0.171 F 
HETATM   20  F   UNK N   1      33.465   8.012  21.327  0.00  0.00    -0.171 F 
ENDBRANCH  16  17
ENDBRANCH   1  16
TORSDOF 7
ENDMDL
MODEL 8
REMARK VINA RESULT:      -5.3     24.837     25.943
REMARK  7 active torsions:
REMARK  status: ('A' for Active; 'I' for Inactive)
REMARK    1  A    between atoms: C_2  and  C_5 
REMARK    2  A    between atoms: C_5  and  C_6 
REMARK    3  A    between atoms: C_11  and  C_12 
REMARK    4  A    between atoms: C_12  and  C_13 
REMARK    5  A    between atoms: C_13  and  C_15 
REMARK    6  A    between atoms: C_13  and  N_14 
REMARK    7  A    between atoms: C_15  and  O_17 
ROOT
HETATM    1  C   UNK N   1      26.011  23.547  -6.811  0.00  0.00    -0.050 A 
HETATM    2  C   UNK N   1      25.891  23.771  -5.434  0.00  0.00     0.008 A 
HETATM    3  C   UNK N   1      25.670  25.064  -4.945  0.00  0.00     0.007 A 
HETATM    4  C   UNK N   1      25.910  24.632  -7.694  0.00  0.00     0.008 A 
HETATM    5  C   UNK N   1      25.688  25.918  -7.206  0.00  0.00     0.007 A 
HETATM    6  C   UNK N   1      25.565  26.144  -5.829  0.00  0.00    -0.056 A 
ENDROOT
BRANCH   6   7
HETATM    7  C   UNK N   1      25.320  27.523  -5.271  0.00  0.00     0.074 C 
BRANCH   7   8
HETATM    8  C   UNK N   1      26.392  28.049  -4.301  0.00  0.00     0.177 C 
BRANCH   8   9
HETATM    9  C   UNK N   1      27.573  28.617  -5.040  0.00  0.00     0.163 C 
HETATM   10  O   UNK N   1      27.427  29.036  -6.178  0.00  0.00    -0.648 OA
BRANCH   9  11
HETATM   11  O   UNK N   1      28.790  28.665  -4.466  0.00  0.00    -0.775 OA
HETATM   12  H   UNK N   1      29.434  28.013  -4.660  0.00  0.00     0.167 HD
ENDBRANCH   9  11
ENDBRANCH   8   9
BRANCH   8  13
HETATM   13  N   UNK N   1      25.830  29.085  -3.450  0.00  0.00    -0.417 N 
HETATM   14  H   UNK N   1      24.942  29.387  -3.047  0.00  0.00     0.150 HD
HETATM   15  H   UNK N   1      26.569  29.725  -3.158  0.00  0.00     0.150 HD
ENDBRANCH   8  13
ENDBRANCH   7   8
ENDBRANCH   6   7
BRANCH   1  16
HETATM   16  C   UNK N   1      26.231  22.142  -7.305  0.00  0.00     0.155 C 
BRANCH  16  17
HETATM   17  C   UNK N   1      24.959  21.329  -7.557  0.00  0.00     0.391 C 
HETATM   18  F   UNK N   1      25.262  20.125  -8.169  0.00  0.00    -0.171 F 
HETATM   19  F   UNK N   1      24.342  21.071  -6.349  0.00  0.00    -0.171 F 
HETATM   20  F   UNK N   1      24.091  22.052  -8.356  0.00  0.00    -0.171 F 
ENDBRANCH  16  17
ENDBRANCH   1  16
TORSDOF 7
ENDMDL
MODEL 9
REMARK VINA RESULT:      -5.3     21.054     22.969
REMARK  7 active torsions:
REMARK  status: ('A' for Active; 'I' for Inactive)
REMARK    1  A    between atoms: C_2  and  C_5 
REMARK    2  A    between atoms: C_5  and  C_6 
REMARK    3  A    between atoms: C_11  and  C_12 
REMARK    4  A    between atoms: C_12  and  C_13 
REMARK    5  A    between atoms: C_13  and  C_15 
REMARK    6  A    between atoms: C_13  and  N_14 
REMARK    7  A    between atoms: C_15  and  O_17 
ROOT
HETATM    1  C   UNK N   1      27.459  25.311  -3.783  0.00  0.00    -0.050 A 
HETATM    2  C   UNK N   1      28.783  25.594  -4.139  0.00  0.00     0.008 A 
HETATM    3  C   UNK N   1      29.824  24.764  -3.704  0.00  0.00     0.007 A 
HETATM    4  C   UNK N   1      27.187  24.192  -2.984  0.00  0.00     0.008 A 
HETATM    5  C   UNK N   1      28.223  23.366  -2.552  0.00  0.00     0.007 A 
HETATM    6  C   UNK N   1      29.549  23.645  -2.910  0.00  0.00    -0.056 A 
ENDROOT
BRANCH   6   7
HETATM    7  C   UNK N   1      30.691  22.769  -2.462  0.00  0.00     0.074 C 
BRANCH   7   8
HETATM    8  C   UNK N   1      31.292  21.854  -3.543  0.00  0.00     0.177 C 
BRANCH   8   9
HETATM    9  C   UNK N   1      32.716  21.487  -3.224  0.00  0.00     0.163 C 
HETATM   10  O   UNK N   1      33.570  21.573  -4.093  0.00  0.00    -0.648 OA
BRANCH   9  11
HETATM   11  O   UNK N   1      33.062  21.058  -1.995  0.00  0.00    -0.775 OA
HETATM   12  H   UNK N   1      33.702  20.382  -1.889  0.00  0.00     0.167 HD
ENDBRANCH   9  11
ENDBRANCH   8   9
BRANCH   8  13
HETATM   13  N   UNK N   1      30.508  20.634  -3.657  0.00  0.00    -0.417 N 
HETATM   14  H   UNK N   1      30.544  19.705  -4.075  0.00  0.00     0.150 HD
HETATM   15  H   UNK N   1      29.630  20.745  -3.150  0.00  0.00     0.150 HD
ENDBRANCH   8  13
ENDBRANCH   7   8
ENDBRANCH   6   7
BRANCH   1  16
HETATM   16  C   UNK N   1      26.361  26.212  -4.282  0.00  0.00     0.155 C 
BRANCH  16  17
HETATM   17  C   UNK N   1      25.650  25.739  -5.552  0.00  0.00     0.391 C 
HETATM   18  F   UNK N   1      24.520  26.500  -5.794  0.00  0.00    -0.171 F 
HETATM   19  F   UNK N   1      26.511  25.868  -6.624  0.00  0.00    -0.171 F 
HETATM   20  F   UNK N   1      25.296  24.407  -5.423  0.00  0.00    -0.171 F 
ENDBRANCH  16  17
ENDBRANCH   1  16
TORSDOF 7
ENDMDL
