MODEL 1
REMARK VINA RESULT:      -6.3      0.000      0.000
REMARK  6 active torsions:
REMARK  status: ('A' for Active; 'I' for Inactive)
REMARK    1  A    between atoms: C_1  and  C_20 
REMARK    2  A    between atoms: C_9  and  O_10 
REMARK    3  A    between atoms: P_11  and  O_10 
REMARK    4  A    between atoms: P_11  and  O_13 
REMARK    5  A    between atoms: P_11  and  C_14 
REMARK    6  A    between atoms: C_20  and  O_22 
ROOT
HETATM    1  C   UNK N   1      26.388  25.563  -3.783  0.00  0.00     0.148 C 
HETATM    2  C   UNK N   1      27.015  27.006  -3.763  0.00  0.00     0.239 C 
HETATM    3  N   UNK N   1      25.923  27.960  -3.991  0.00  0.00     0.094 N 
HETATM    4  C   UNK N   1      26.353  29.327  -3.681  0.00  0.00     0.310 C 
HETATM    5  C   UNK N   1      27.996  27.228  -4.922  0.00  0.00     0.039 C 
HETATM    6  C   UNK N   1      27.111  27.777  -6.047  0.00  0.00     0.038 C 
HETATM    7  C   UNK N   1      25.708  27.813  -5.425  0.00  0.00     0.225 C 
HETATM    8  C   UNK N   1      24.946  26.484  -5.628  0.00  0.00     0.069 C 
HETATM    9  C   UNK N   1      25.781  25.252  -5.197  0.00  0.00     0.149 C 
ENDROOT
BRANCH   9  10
HETATM   10  O   UNK N   1      26.834  25.055  -6.127  0.00  0.00    -0.309 OA
BRANCH  10  11
HETATM   11  P   UNK N   1      26.607  23.898  -7.459  0.00  0.00     0.273 P 
HETATM   12  O   UNK N   1      26.348  23.004  -6.216  0.00  0.00    -0.650 OA
BRANCH  11  13
HETATM   13  O   UNK N   1      28.248  24.189  -7.963  0.00  0.00    -0.325 OA
HETATM   14  H   UNK N   1      29.166  24.490  -8.055  0.00  0.00     0.220 HD
ENDBRANCH  11  13
BRANCH  11  15
HETATM   15  C   UNK N   1      27.755  22.382  -7.364  0.00  0.00     0.050 A 
HETATM   16  C   UNK N   1      28.782  22.379  -6.406  0.00  0.00     0.019 A 
HETATM   17  C   UNK N   1      29.660  21.294  -6.305  0.00  0.00     0.001 A 
HETATM   18  C   UNK N   1      29.523  20.192  -7.156  0.00  0.00     0.000 A 
HETATM   19  C   UNK N   1      28.513  20.167  -8.115  0.00  0.00     0.001 A 
HETATM   20  C   UNK N   1      27.637  21.247  -8.231  0.00  0.00     0.019 A 
ENDBRANCH  11  15
ENDBRANCH  10  11
ENDBRANCH   9  10
BRANCH   1  21
HETATM   21  C   UNK N   1      27.362  24.493  -3.291  0.00  0.00     0.267 C 
HETATM   22  O   UNK N   1      26.974  23.624  -2.524  0.00  0.00    -0.265 OA
BRANCH  21  23
HETATM   23  O   UNK N   1      28.675  24.496  -3.647  0.00  0.00    -0.326 OA
HETATM   24  C   UNK N   1      29.656  23.797  -2.982  0.00  0.00     0.213 C 
ENDBRANCH  21  23
ENDBRANCH   1  21
TORSDOF 6
ENDMDL
MODEL 2
REMARK VINA RESULT:      -6.2     20.564     23.629
REMARK  6 active torsions:
REMARK  status: ('A' for Active; 'I' for Inactive)
REMARK    1  A    between atoms: C_1  and  C_20 
REMARK    2  A    between atoms: C_9  and  O_10 
REMARK    3  A    between atoms: P_11  and  O_10 
REMARK    4  A    between atoms: P_11  and  O_13 
REMARK    5  A    between atoms: P_11  and  C_14 
REMARK    6  A    between atoms: C_20  and  O_22 
ROOT
HETATM    1  C   UNK N   1      35.154  13.365  10.299  0.00  0.00     0.148 C 
HETATM    2  C   UNK N   1      36.543  13.308   9.561  0.00  0.00     0.239 C 
HETATM    3  N   UNK N   1      36.706  11.945   9.042  0.00  0.00     0.094 N 
HETATM    4  C   UNK N   1      37.813  11.883   8.083  0.00  0.00     0.310 C 
HETATM    5  C   UNK N   1      37.719  13.521  10.522  0.00  0.00     0.039 C 
HETATM    6  C   UNK N   1      38.065  12.103  10.991  0.00  0.00     0.038 C 
HETATM    7  C   UNK N   1      37.051  11.215  10.256  0.00  0.00     0.225 C 
HETATM    8  C   UNK N   1      35.742  11.040  11.058  0.00  0.00     0.069 C 
HETATM    9  C   UNK N   1      35.151  12.391  11.530  0.00  0.00     0.149 C 
ENDROOT
BRANCH   9  10
HETATM   10  O   UNK N   1      35.974  12.927  12.554  0.00  0.00    -0.309 OA
BRANCH  10  11
HETATM   11  P   UNK N   1      35.877  12.240  14.192  0.00  0.00     0.273 P 
HETATM   12  O   UNK N   1      34.779  13.338  14.244  0.00  0.00    -0.650 OA
BRANCH  11  13
HETATM   13  O   UNK N   1      37.537  12.692  14.457  0.00  0.00    -0.325 OA
HETATM   14  H   UNK N   1      38.463  12.754  14.740  0.00  0.00     0.220 HD
ENDBRANCH  11  13
BRANCH  11  15
HETATM   15  C   UNK N   1      36.147  13.516  15.578  0.00  0.00     0.050 A 
HETATM   16  C   UNK N   1      35.395  13.394  16.757  0.00  0.00     0.019 A 
HETATM   17  C   UNK N   1      35.550  14.315  17.800  0.00  0.00     0.001 A 
HETATM   18  C   UNK N   1      36.459  15.371  17.683  0.00  0.00     0.000 A 
HETATM   19  C   UNK N   1      37.219  15.517  16.524  0.00  0.00     0.001 A 
HETATM   20  C   UNK N   1      37.069  14.610  15.475  0.00  0.00     0.019 A 
ENDBRANCH  11  15
ENDBRANCH  10  11
ENDBRANCH   9  10
BRANCH   1  21
HETATM   21  C   UNK N   1      34.735  14.792  10.651  0.00  0.00     0.267 C 
HETATM   22  O   UNK N   1      33.844  14.980  11.467  0.00  0.00    -0.265 OA
BRANCH  21  23
HETATM   23  O   UNK N   1      35.294  15.876  10.050  0.00  0.00    -0.326 OA
HETATM   24  C   UNK N   1      34.686  16.608   9.057  0.00  0.00     0.213 C 
ENDBRANCH  21  23
ENDBRANCH   1  21
TORSDOF 6
ENDMDL
MODEL 3
REMARK VINA RESULT:      -6.1     13.790     16.580
REMARK  6 active torsions:
REMARK  status: ('A' for Active; 'I' for Inactive)
REMARK    1  A    between atoms: C_1  and  C_20 
REMARK    2  A    between atoms: C_9  and  O_10 
REMARK    3  A    between atoms: P_11  and  O_10 
REMARK    4  A    between atoms: P_11  and  O_13 
REMARK    5  A    between atoms: P_11  and  C_14 
REMARK    6  A    between atoms: C_20  and  O_22 
ROOT
HETATM    1  C   UNK N   1      30.289  16.300   6.673  0.00  0.00     0.148 C 
HETATM    2  C   UNK N   1      30.051  16.518   5.132  0.00  0.00     0.239 C 
HETATM    3  N   UNK N   1      30.434  15.276   4.451  0.00  0.00     0.094 N 
HETATM    4  C   UNK N   1      29.957  15.276   3.064  0.00  0.00     0.310 C 
HETATM    5  C   UNK N   1      30.971  17.601   4.552  0.00  0.00     0.039 C 
HETATM    6  C   UNK N   1      32.214  16.820   4.109  0.00  0.00     0.038 C 
HETATM    7  C   UNK N   1      31.888  15.367   4.483  0.00  0.00     0.225 C 
HETATM    8  C   UNK N   1      32.324  15.024   5.925  0.00  0.00     0.069 C 
HETATM    9  C   UNK N   1      31.813  16.058   6.959  0.00  0.00     0.149 C 
ENDROOT
BRANCH   9  10
HETATM   10  O   UNK N   1      32.522  17.275   6.791  0.00  0.00    -0.309 OA
BRANCH  10  11
HETATM   11  P   UNK N   1      33.521  17.887   8.129  0.00  0.00     0.273 P 
HETATM   12  O   UNK N   1      34.600  17.362   7.142  0.00  0.00    -0.650 OA
BRANCH  11  13
HETATM   13  O   UNK N   1      32.738  16.762   9.201  0.00  0.00    -0.325 OA
HETATM   14  H   UNK N   1      32.494  16.167   9.928  0.00  0.00     0.220 HD
ENDBRANCH  11  13
BRANCH  11  15
HETATM   15  C   UNK N   1      34.671  16.576   8.891  0.00  0.00     0.050 A 
HETATM   16  C   UNK N   1      35.152  16.783  10.194  0.00  0.00     0.019 A 
HETATM   17  C   UNK N   1      36.009  15.854  10.794  0.00  0.00     0.001 A 
HETATM   18  C   UNK N   1      36.398  14.701  10.104  0.00  0.00     0.000 A 
HETATM   19  C   UNK N   1      35.936  14.470   8.809  0.00  0.00     0.001 A 
HETATM   20  C   UNK N   1      35.087  15.392   8.198  0.00  0.00     0.019 A 
ENDBRANCH  11  15
ENDBRANCH  10  11
ENDBRANCH   9  10
BRANCH   1  21
HETATM   21  C   UNK N   1      29.679  17.413   7.524  0.00  0.00     0.267 C 
HETATM   22  O   UNK N   1      28.968  18.258   7.000  0.00  0.00    -0.265 OA
BRANCH  21  23
HETATM   23  O   UNK N   1      29.935  17.524   8.855  0.00  0.00    -0.326 OA
HETATM   24  C   UNK N   1      29.754  18.678   9.582  0.00  0.00     0.213 C 
ENDBRANCH  21  23
ENDBRANCH   1  21
TORSDOF 6
ENDMDL
MODEL 4
REMARK VINA RESULT:      -6.1     16.222     18.080
REMARK  6 active torsions:
REMARK  status: ('A' for Active; 'I' for Inactive)
REMARK    1  A    between atoms: C_1  and  C_20 
REMARK    2  A    between atoms: C_9  and  O_10 
REMARK    3  A    between atoms: P_11  and  O_10 
REMARK    4  A    between atoms: P_11  and  O_13 
REMARK    5  A    between atoms: P_11  and  C_14 
REMARK    6  A    between atoms: C_20  and  O_22 
ROOT
HETATM    1  C   UNK N   1      20.008  16.123   6.411  0.00  0.00     0.148 C 
HETATM    2  C   UNK N   1      21.139  16.902   5.644  0.00  0.00     0.239 C 
HETATM    3  N   UNK N   1      21.100  16.464   4.245  0.00  0.00     0.094 N 
HETATM    4  C   UNK N   1      21.900  17.355   3.398  0.00  0.00     0.310 C 
HETATM    5  C   UNK N   1      22.541  16.532   6.147  0.00  0.00     0.039 C 
HETATM    6  C   UNK N   1      22.944  15.350   5.258  0.00  0.00     0.038 C 
HETATM    7  C   UNK N   1      21.733  15.154   4.336  0.00  0.00     0.225 C 
HETATM    8  C   UNK N   1      20.685  14.195   4.944  0.00  0.00     0.069 C 
HETATM    9  C   UNK N   1      20.301  14.581   6.394  0.00  0.00     0.149 C 
ENDROOT
BRANCH   9  10
HETATM   10  O   UNK N   1      21.393  14.301   7.255  0.00  0.00    -0.309 OA
BRANCH  10  11
HETATM   11  P   UNK N   1      21.783  12.608   7.638  0.00  0.00     0.273 P 
HETATM   12  O   UNK N   1      20.715  12.938   8.717  0.00  0.00    -0.650 OA
BRANCH  11  13
HETATM   13  O   UNK N   1      23.437  13.074   7.916  0.00  0.00    -0.325 OA
HETATM   14  H   UNK N   1      24.304  13.289   8.295  0.00  0.00     0.220 HD
ENDBRANCH  11  13
BRANCH  11  15
HETATM   15  C   UNK N   1      22.399  12.346   9.420  0.00  0.00     0.050 A 
HETATM   16  C   UNK N   1      21.458  12.350  10.462  0.00  0.00     0.019 A 
HETATM   17  C   UNK N   1      21.863  12.174  11.789  0.00  0.00     0.001 A 
HETATM   18  C   UNK N   1      23.214  11.986  12.098  0.00  0.00     0.000 A 
HETATM   19  C   UNK N   1      24.170  11.976  11.084  0.00  0.00     0.001 A 
HETATM   20  C   UNK N   1      23.780  12.159   9.758  0.00  0.00     0.019 A 
ENDBRANCH  11  15
ENDBRANCH  10  11
ENDBRANCH   9  10
BRANCH   1  21
HETATM   21  C   UNK N   1      19.759  16.679   7.813  0.00  0.00     0.267 C 
HETATM   22  O   UNK N   1      20.406  17.638   8.210  0.00  0.00    -0.265 OA
BRANCH  21  23
HETATM   23  O   UNK N   1      18.861  16.113   8.663  0.00  0.00    -0.326 OA
HETATM   24  C   UNK N   1      17.909  16.819   9.362  0.00  0.00     0.213 C 
ENDBRANCH  21  23
ENDBRANCH   1  21
TORSDOF 6
ENDMDL
MODEL 5
REMARK VINA RESULT:      -6.1     22.372     25.228
REMARK  6 active torsions:
REMARK  status: ('A' for Active; 'I' for Inactive)
REMARK    1  A    between atoms: C_1  and  C_20 
REMARK    2  A    between atoms: C_9  and  O_10 
REMARK    3  A    between atoms: P_11  and  O_10 
REMARK    4  A    between atoms: P_11  and  O_13 
REMARK    5  A    between atoms: P_11  and  C_14 
REMARK    6  A    between atoms: C_20  and  O_22 
ROOT
HETATM    1  C   UNK N   1      37.289  11.909  12.257  0.00  0.00     0.148 C 
HETATM    2  C   UNK N   1      36.712  12.683  11.015  0.00  0.00     0.239 C 
HETATM    3  N   UNK N   1      37.029  14.104  11.200  0.00  0.00     0.094 N 
HETATM    4  C   UNK N   1      36.810  14.852   9.958  0.00  0.00     0.310 C 
HETATM    5  C   UNK N   1      35.181  12.613  10.948  0.00  0.00     0.039 C 
HETATM    6  C   UNK N   1      34.727  13.839  11.749  0.00  0.00     0.038 C 
HETATM    7  C   UNK N   1      36.041  14.490  12.200  0.00  0.00     0.225 C 
HETATM    8  C   UNK N   1      36.535  13.929  13.553  0.00  0.00     0.069 C 
HETATM    9  C   UNK N   1      36.574  12.381  13.573  0.00  0.00     0.149 C 
ENDROOT
BRANCH   9  10
HETATM   10  O   UNK N   1      35.246  11.882  13.591  0.00  0.00    -0.309 OA
BRANCH  10  11
HETATM   11  P   UNK N   1      34.713  10.889  14.967  0.00  0.00     0.273 P 
HETATM   12  O   UNK N   1      33.867  12.178  15.160  0.00  0.00    -0.650 OA
BRANCH  11  13
HETATM   13  O   UNK N   1      36.351  10.859  15.553  0.00  0.00    -0.325 OA
HETATM   14  H   UNK N   1      37.214  11.059  15.949  0.00  0.00     0.220 HD
ENDBRANCH  11  13
BRANCH  11  15
HETATM   15  C   UNK N   1      34.973  11.719  16.660  0.00  0.00     0.050 A 
HETATM   16  C   UNK N   1      35.222  10.903  17.775  0.00  0.00     0.019 A 
HETATM   17  C   UNK N   1      35.408  11.466  19.043  0.00  0.00     0.001 A 
HETATM   18  C   UNK N   1      35.351  12.852  19.218  0.00  0.00     0.000 A 
HETATM   19  C   UNK N   1      35.105  13.687  18.129  0.00  0.00     0.001 A 
HETATM   20  C   UNK N   1      34.911  13.138  16.861  0.00  0.00     0.019 A 
ENDBRANCH  11  15
ENDBRANCH  10  11
ENDBRANCH   9  10
BRANCH   1  21
HETATM   21  C   UNK N   1      37.269  10.393  12.065  0.00  0.00     0.267 C 
HETATM   22  O   UNK N   1      37.042   9.923  10.959  0.00  0.00    -0.265 OA
BRANCH  21  23
HETATM   23  O   UNK N   1      37.455   9.532  13.102  0.00  0.00    -0.326 OA
HETATM   24  C   UNK N   1      38.629   8.858  13.344  0.00  0.00     0.213 C 
ENDBRANCH  21  23
ENDBRANCH   1  21
TORSDOF 6
ENDMDL
MODEL 6
REMARK VINA RESULT:      -6.0     16.392     19.134
REMARK  6 active torsions:
REMARK  status: ('A' for Active; 'I' for Inactive)
REMARK    1  A    between atoms: C_1  and  C_20 
REMARK    2  A    between atoms: C_9  and  O_10 
REMARK    3  A    between atoms: P_11  and  O_10 
REMARK    4  A    between atoms: P_11  and  O_13 
REMARK    5  A    between atoms: P_11  and  C_14 
REMARK    6  A    between atoms: C_20  and  O_22 
ROOT
HETATM    1  C   UNK N   1      34.218  16.259   6.652  0.00  0.00     0.148 C 
HETATM    2  C   UNK N   1      32.682  15.937   6.540  0.00  0.00     0.239 C 
HETATM    3  N   UNK N   1      31.963  17.215   6.582  0.00  0.00     0.094 N 
HETATM    4  C   UNK N   1      30.565  17.039   6.175  0.00  0.00     0.310 C 
HETATM    5  C   UNK N   1      32.168  15.141   7.747  0.00  0.00     0.039 C 
HETATM    6  C   UNK N   1      31.728  16.227   8.736  0.00  0.00     0.038 C 
HETATM    7  C   UNK N   1      32.036  17.539   8.001  0.00  0.00     0.225 C 
HETATM    8  C   UNK N   1      33.475  18.034   8.271  0.00  0.00     0.069 C 
HETATM    9  C   UNK N   1      34.535  16.930   8.035  0.00  0.00     0.149 C 
ENDROOT
BRANCH   9  10
HETATM   10  O   UNK N   1      34.433  15.958   9.063  0.00  0.00    -0.309 OA
BRANCH  10  11
HETATM   11  P   UNK N   1      35.208  16.272  10.633  0.00  0.00     0.273 P 
HETATM   12  O   UNK N   1      36.382  15.668   9.815  0.00  0.00    -0.650 OA
BRANCH  11  13
HETATM   13  O   UNK N   1      34.065  15.198  11.388  0.00  0.00    -0.325 OA
HETATM   14  H   UNK N   1      33.332  14.596  11.595  0.00  0.00     0.220 HD
ENDBRANCH  11  13
BRANCH  11  15
HETATM   15  C   UNK N   1      35.973  14.725  11.435  0.00  0.00     0.050 A 
HETATM   16  C   UNK N   1      35.796  14.528  12.814  0.00  0.00     0.019 A 
HETATM   17  C   UNK N   1      36.350  13.412  13.451  0.00  0.00     0.001 A 
HETATM   18  C   UNK N   1      37.086  12.472  12.722  0.00  0.00     0.000 A 
HETATM   19  C   UNK N   1      37.277  12.642  11.352  0.00  0.00     0.001 A 
HETATM   20  C   UNK N   1      36.736  13.754  10.706  0.00  0.00     0.019 A 
ENDBRANCH  11  15
ENDBRANCH  10  11
ENDBRANCH   9  10
BRANCH   1  21
HETATM   21  C   UNK N   1      35.096  15.045   6.349  0.00  0.00     0.267 C 
HETATM   22  O   UNK N   1      36.216  15.205   5.884  0.00  0.00    -0.265 OA
BRANCH  21  23
HETATM   23  O   UNK N   1      34.657  13.773   6.542  0.00  0.00    -0.326 OA
HETATM   24  C   UNK N   1      35.248  12.874   7.401  0.00  0.00     0.213 C 
ENDBRANCH  21  23
ENDBRANCH   1  21
TORSDOF 6
ENDMDL
MODEL 7
REMARK VINA RESULT:      -6.0     21.363     24.332
REMARK  6 active torsions:
REMARK  status: ('A' for Active; 'I' for Inactive)
REMARK    1  A    between atoms: C_1  and  C_20 
REMARK    2  A    between atoms: C_9  and  O_10 
REMARK    3  A    between atoms: P_11  and  O_10 
REMARK    4  A    between atoms: P_11  and  O_13 
REMARK    5  A    between atoms: P_11  and  C_14 
REMARK    6  A    between atoms: C_20  and  O_22 
ROOT
HETATM    1  C   UNK N   1      34.920  12.651  10.955  0.00  0.00     0.148 C 
HETATM    2  C   UNK N   1      35.945  12.000   9.953  0.00  0.00     0.239 C 
HETATM    3  N   UNK N   1      35.743  10.547  10.005  0.00  0.00     0.094 N 
HETATM    4  C   UNK N   1      36.428   9.887   8.889  0.00  0.00     0.310 C 
HETATM    5  C   UNK N   1      37.400  12.224  10.386  0.00  0.00     0.039 C 
HETATM    6  C   UNK N   1      37.704  11.010  11.272  0.00  0.00     0.038 C 
HETATM    7  C   UNK N   1      36.394  10.211  11.265  0.00  0.00     0.225 C 
HETATM    8  C   UNK N   1      35.436  10.652  12.393  0.00  0.00     0.069 C 
HETATM    9  C   UNK N   1      35.223  12.186  12.423  0.00  0.00     0.149 C 
ENDROOT
BRANCH   9  10
HETATM   10  O   UNK N   1      36.413  12.813  12.877  0.00  0.00    -0.309 OA
BRANCH  10  11
HETATM   11  P   UNK N   1      36.364  13.790  14.362  0.00  0.00     0.273 P 
HETATM   12  O   UNK N   1      37.442  12.729  14.717  0.00  0.00    -0.650 OA
BRANCH  11  13
HETATM   13  O   UNK N   1      34.683  13.381  14.551  0.00  0.00    -0.325 OA
HETATM   14  H   UNK N   1      33.764  13.094  14.431  0.00  0.00     0.220 HD
ENDBRANCH  11  13
BRANCH  11  15
HETATM   15  C   UNK N   1      35.955  12.788  15.928  0.00  0.00     0.050 A 
HETATM   16  C   UNK N   1      35.374  13.455  17.018  0.00  0.00     0.019 A 
HETATM   17  C   UNK N   1      35.066  12.764  18.196  0.00  0.00     0.001 A 
HETATM   18  C   UNK N   1      35.330  11.395  18.303  0.00  0.00     0.000 A 
HETATM   19  C   UNK N   1      35.906  10.707  17.237  0.00  0.00     0.001 A 
HETATM   20  C   UNK N   1      36.224  11.385  16.061  0.00  0.00     0.019 A 
ENDBRANCH  11  15
ENDBRANCH  10  11
ENDBRANCH   9  10
BRANCH   1  21
HETATM   21  C   UNK N   1      34.834  14.169  10.802  0.00  0.00     0.267 C 
HETATM   22  O   UNK N   1      34.165  14.822  11.590  0.00  0.00    -0.265 OA
BRANCH  21  23
HETATM   23  O   UNK N   1      35.449  14.826   9.783  0.00  0.00    -0.326 OA
HETATM   24  C   UNK N   1      34.782  15.443   8.749  0.00  0.00     0.213 C 
ENDBRANCH  21  23
ENDBRANCH   1  21
TORSDOF 6
ENDMDL
MODEL 8
REMARK VINA RESULT:      -5.9     15.379     18.276
REMARK  6 active torsions:
REMARK  status: ('A' for Active; 'I' for Inactive)
REMARK    1  A    between atoms: C_1  and  C_20 
REMARK    2  A    between atoms: C_9  and  O_10 
REMARK    3  A    between atoms: P_11  and  O_10 
REMARK    4  A    between atoms: P_11  and  O_13 
REMARK    5  A    between atoms: P_11  and  C_14 
REMARK    6  A    between atoms: C_20  and  O_22 
ROOT
HETATM    1  C   UNK N   1      33.535  13.844   8.826  0.00  0.00     0.148 C 
HETATM    2  C   UNK N   1      34.802  12.962   9.131  0.00  0.00     0.239 C 
HETATM    3  N   UNK N   1      34.859  12.767  10.584  0.00  0.00     0.094 N 
HETATM    4  C   UNK N   1      35.815  11.710  10.930  0.00  0.00     0.310 C 
HETATM    5  C   UNK N   1      36.109  13.679   8.766  0.00  0.00     0.039 C 
HETATM    6  C   UNK N   1      36.486  14.422  10.053  0.00  0.00     0.038 C 
HETATM    7  C   UNK N   1      35.357  14.062  11.029  0.00  0.00     0.225 C 
HETATM    8  C   UNK N   1      34.172  15.050  10.939  0.00  0.00     0.069 C 
HETATM    9  C   UNK N   1      33.687  15.261   9.484  0.00  0.00     0.149 C 
ENDROOT
BRANCH   9  10
HETATM   10  O   UNK N   1      34.660  16.008   8.772  0.00  0.00    -0.309 OA
BRANCH  10  11
HETATM   11  P   UNK N   1      34.205  17.580   8.074  0.00  0.00     0.273 P 
HETATM   12  O   UNK N   1      32.836  17.052   8.584  0.00  0.00    -0.650 OA
BRANCH  11  13
HETATM   13  O   UNK N   1      34.795  17.040   6.528  0.00  0.00    -0.325 OA
HETATM   14  H   UNK N   1      35.005  16.925   5.587  0.00  0.00     0.220 HD
ENDBRANCH  11  13
BRANCH  11  15
HETATM   15  C   UNK N   1      32.883  17.461   6.710  0.00  0.00     0.050 A 
HETATM   16  C   UNK N   1      31.549  17.235   7.087  0.00  0.00     0.019 A 
HETATM   17  C   UNK N   1      30.543  17.128   6.120  0.00  0.00     0.001 A 
HETATM   18  C   UNK N   1      30.851  17.248   4.762  0.00  0.00     0.000 A 
HETATM   19  C   UNK N   1      32.166  17.472   4.358  0.00  0.00     0.001 A 
HETATM   20  C   UNK N   1      33.179  17.573   5.311  0.00  0.00     0.019 A 
ENDBRANCH  11  15
ENDBRANCH  10  11
ENDBRANCH   9  10
BRANCH   1  21
HETATM   21  C   UNK N   1      33.204  13.898   7.335  0.00  0.00     0.267 C 
HETATM   22  O   UNK N   1      32.052  13.725   6.962  0.00  0.00    -0.265 OA
BRANCH  21  23
HETATM   23  O   UNK N   1      34.162  14.093   6.390  0.00  0.00    -0.326 OA
HETATM   24  C   UNK N   1      33.966  13.904   5.041  0.00  0.00     0.213 C 
ENDBRANCH  21  23
ENDBRANCH   1  21
TORSDOF 6
ENDMDL
MODEL 9
REMARK VINA RESULT:      -5.8     12.277     15.115
REMARK  6 active torsions:
REMARK  status: ('A' for Active; 'I' for Inactive)
REMARK    1  A    between atoms: C_1  and  C_20 
REMARK    2  A    between atoms: C_9  and  O_10 
REMARK    3  A    between atoms: P_11  and  O_10 
REMARK    4  A    between atoms: P_11  and  O_13 
REMARK    5  A    between atoms: P_11  and  C_14 
REMARK    6  A    between atoms: C_20  and  O_22 
ROOT
HETATM    1  C   UNK N   1      32.379  17.007   6.558  0.00  0.00     0.148 C 
HETATM    2  C   UNK N   1      32.932  15.648   5.990  0.00  0.00     0.239 C 
HETATM    3  N   UNK N   1      33.111  15.819   4.543  0.00  0.00     0.094 N 
HETATM    4  C   UNK N   1      33.908  14.723   3.984  0.00  0.00     0.310 C 
HETATM    5  C   UNK N   1      31.923  14.503   6.142  0.00  0.00     0.039 C 
HETATM    6  C   UNK N   1      31.113  14.558   4.841  0.00  0.00     0.038 C 
HETATM    7  C   UNK N   1      31.734  15.732   4.072  0.00  0.00     0.225 C 
HETATM    8  C   UNK N   1      31.059  17.078   4.418  0.00  0.00     0.069 C 
HETATM    9  C   UNK N   1      30.968  17.320   5.945  0.00  0.00     0.149 C 
ENDROOT
BRANCH   9  10
HETATM   10  O   UNK N   1      30.009  16.435   6.500  0.00  0.00    -0.309 OA
BRANCH  10  11
HETATM   11  P   UNK N   1      28.484  17.097   7.133  0.00  0.00     0.273 P 
HETATM   12  O   UNK N   1      28.111  16.801   5.654  0.00  0.00    -0.650 OA
BRANCH  11  13
HETATM   13  O   UNK N   1      29.311  18.580   7.515  0.00  0.00    -0.325 OA
HETATM   14  H   UNK N   1      29.851  19.283   7.911  0.00  0.00     0.220 HD
ENDBRANCH  11  13
BRANCH  11  15
HETATM   15  C   UNK N   1      27.860  18.627   6.188  0.00  0.00     0.050 A 
HETATM   16  C   UNK N   1      27.569  19.792   6.917  0.00  0.00     0.019 A 
HETATM   17  C   UNK N   1      27.096  20.939   6.269  0.00  0.00     0.001 A 
HETATM   18  C   UNK N   1      26.910  20.943   4.883  0.00  0.00     0.000 A 
HETATM   19  C   UNK N   1      27.192  19.802   4.135  0.00  0.00     0.001 A 
HETATM   20  C   UNK N   1      27.656  18.650   4.769  0.00  0.00     0.019 A 
ENDBRANCH  11  15
ENDBRANCH  10  11
ENDBRANCH   9  10
BRANCH   1  21
HETATM   21  C   UNK N   1      32.404  17.058   8.085  0.00  0.00     0.267 C 
HETATM   22  O   UNK N   1      31.825  17.961   8.673  0.00  0.00    -0.265 OA
BRANCH  21  23
HETATM   23  O   UNK N   1      33.091  16.148   8.825  0.00  0.00    -0.326 OA
HETATM   24  C   UNK N   1      34.283  16.410   9.460  0.00  0.00     0.213 C 
ENDBRANCH  21  23
ENDBRANCH   1  21
TORSDOF 6
ENDMDL
