MODEL 1
REMARK VINA RESULT:      -7.8      0.000      0.000
REMARK  6 active torsions:
REMARK  status: ('A' for Active; 'I' for Inactive)
REMARK    1  A    between atoms: C_18  and  O_19 
REMARK    2  A    between atoms: O_19  and  C_21 
REMARK    3  A    between atoms: C_21  and  C_24 
REMARK    4  A    between atoms: C_23  and  C_24 
REMARK    5  A    between atoms: C_23  and  C_25 
REMARK    6  A    between atoms: C_25  and  O_27 
ROOT
HETATM    1  C   UNK N   1      27.774  18.908   7.291  0.00  0.00     0.022 C 
HETATM    2  C   UNK N   1      27.805  20.293   6.678  0.00  0.00     0.084 C 
HETATM    3  C   UNK N   1      27.349  20.163   5.264  0.00  0.00     0.149 C 
HETATM    4  O   UNK N   1      26.479  20.892   4.818  0.00  0.00    -0.293 OA
HETATM    5  C   UNK N   1      27.987  19.146   4.417  0.00  0.00     0.053 C 
HETATM    6  C   UNK N   1      28.610  18.100   4.985  0.00  0.00    -0.068 C 
HETATM    7  C   UNK N   1      29.380  17.137   4.125  0.00  0.00     0.035 C 
HETATM    8  C   UNK N   1      30.829  17.023   4.637  0.00  0.00     0.010 C 
HETATM    9  C   UNK N   1      30.843  16.696   6.138  0.00  0.00    -0.004 C 
HETATM   10  C   UNK N   1      30.068  17.768   6.978  0.00  0.00     0.002 C 
HETATM   11  C   UNK N   1      28.592  17.860   6.495  0.00  0.00    -0.016 C 
HETATM   12  C   UNK N   1      30.072  17.418   8.493  0.00  0.00     0.007 C 
HETATM   13  C   UNK N   1      31.314  16.677   9.010  0.00  0.00     0.012 C 
HETATM   14  C   UNK N   1      32.515  16.882   8.101  0.00  0.00    -0.013 C 
HETATM   15  C   UNK N   1      32.234  16.296   6.725  0.00  0.00     0.001 C 
HETATM   16  C   UNK N   1      33.579  16.488   6.025  0.00  0.00     0.008 C 
HETATM   17  C   UNK N   1      34.616  16.278   7.173  0.00  0.00     0.034 C 
HETATM   18  C   UNK N   1      33.779  16.103   8.460  0.00  0.00     0.140 C 
HETATM   19  C   UNK N   1      32.843  18.394   8.057  0.00  0.00     0.018 C 
HETATM   20  C   UNK N   1      27.871  16.536   6.752  0.00  0.00     0.020 C 
ENDROOT
BRANCH  18  21
HETATM   21  O   UNK N   1      34.375  16.597   9.610  0.00  0.00    -0.315 OA
BRANCH  21  22
HETATM   22  C   UNK N   1      35.136  15.802  10.420  0.00  0.00     0.259 C 
HETATM   23  O   UNK N   1      36.330  16.023  10.565  0.00  0.00    -0.265 OA
BRANCH  22  24
HETATM   24  C   UNK N   1      34.532  14.576  11.030  0.00  0.00     0.121 C 
BRANCH  24  25
HETATM   25  C   UNK N   1      35.553  13.705  11.752  0.00  0.00     0.119 C 
BRANCH  25  26
HETATM   26  C   UNK N   1      35.696  14.092  13.194  0.00  0.00     0.139 C 
HETATM   27  O   UNK N   1      35.004  13.560  14.049  0.00  0.00    -0.650 OA
BRANCH  26  28
HETATM   28  O   UNK N   1      36.587  15.036  13.546  0.00  0.00    -0.776 OA
HETATM   29  H   UNK N   1      37.122  15.412  14.216  0.00  0.00     0.167 HD
ENDBRANCH  26  28
ENDBRANCH  25  26
ENDBRANCH  24  25
ENDBRANCH  22  24
ENDBRANCH  21  22
ENDBRANCH  18  21
TORSDOF 6
ENDMDL
MODEL 2
REMARK VINA RESULT:      -7.6      1.575      2.019
REMARK  6 active torsions:
REMARK  status: ('A' for Active; 'I' for Inactive)
REMARK    1  A    between atoms: C_18  and  O_19 
REMARK    2  A    between atoms: O_19  and  C_21 
REMARK    3  A    between atoms: C_21  and  C_24 
REMARK    4  A    between atoms: C_23  and  C_24 
REMARK    5  A    between atoms: C_23  and  C_25 
REMARK    6  A    between atoms: C_25  and  O_27 
ROOT
HETATM    1  C   UNK N   1      28.001  18.620   7.052  0.00  0.00     0.022 C 
HETATM    2  C   UNK N   1      27.992  20.022   6.474  0.00  0.00     0.084 C 
HETATM    3  C   UNK N   1      27.168  19.986   5.232  0.00  0.00     0.149 C 
HETATM    4  O   UNK N   1      26.281  20.801   5.048  0.00  0.00    -0.293 OA
HETATM    5  C   UNK N   1      27.464  18.953   4.230  0.00  0.00     0.053 C 
HETATM    6  C   UNK N   1      28.118  17.838   4.593  0.00  0.00    -0.068 C 
HETATM    7  C   UNK N   1      28.542  16.849   3.543  0.00  0.00     0.035 C 
HETATM    8  C   UNK N   1      30.058  16.595   3.646  0.00  0.00     0.010 C 
HETATM    9  C   UNK N   1      30.440  16.209   5.083  0.00  0.00    -0.004 C 
HETATM   10  C   UNK N   1      30.017  17.308   6.117  0.00  0.00     0.002 C 
HETATM   11  C   UNK N   1      28.480  17.541   6.049  0.00  0.00    -0.016 C 
HETATM   12  C   UNK N   1      30.390  16.899   7.569  0.00  0.00     0.007 C 
HETATM   13  C   UNK N   1      31.653  16.038   7.723  0.00  0.00     0.012 C 
HETATM   14  C   UNK N   1      32.583  16.179   6.529  0.00  0.00    -0.013 C 
HETATM   15  C   UNK N   1      31.896  15.672   5.269  0.00  0.00     0.001 C 
HETATM   16  C   UNK N   1      33.018  15.780   4.238  0.00  0.00     0.008 C 
HETATM   17  C   UNK N   1      34.299  15.440   5.063  0.00  0.00     0.034 C 
HETATM   18  C   UNK N   1      33.822  15.284   6.524  0.00  0.00     0.140 C 
HETATM   19  C   UNK N   1      33.023  17.659   6.423  0.00  0.00     0.018 C 
HETATM   20  C   UNK N   1      27.736  16.272   6.468  0.00  0.00     0.020 C 
ENDROOT
BRANCH  18  21
HETATM   21  O   UNK N   1      34.744  15.681   7.480  0.00  0.00    -0.315 OA
BRANCH  21  22
HETATM   22  C   UNK N   1      35.412  14.772   8.250  0.00  0.00     0.259 C 
HETATM   23  O   UNK N   1      36.433  14.239   7.839  0.00  0.00    -0.265 OA
BRANCH  22  24
HETATM   24  C   UNK N   1      34.820  14.328   9.552  0.00  0.00     0.121 C 
BRANCH  24  25
HETATM   25  C   UNK N   1      34.526  15.485  10.498  0.00  0.00     0.119 C 
BRANCH  25  26
HETATM   26  C   UNK N   1      35.677  16.443  10.581  0.00  0.00     0.139 C 
HETATM   27  O   UNK N   1      35.534  17.613  10.256  0.00  0.00    -0.650 OA
BRANCH  26  28
HETATM   28  O   UNK N   1      36.876  16.010  11.008  0.00  0.00    -0.776 OA
HETATM   29  H   UNK N   1      37.685  15.581  10.806  0.00  0.00     0.167 HD
ENDBRANCH  26  28
ENDBRANCH  25  26
ENDBRANCH  24  25
ENDBRANCH  22  24
ENDBRANCH  21  22
ENDBRANCH  18  21
TORSDOF 6
ENDMDL
MODEL 3
REMARK VINA RESULT:      -7.5     12.404     16.049
REMARK  6 active torsions:
REMARK  status: ('A' for Active; 'I' for Inactive)
REMARK    1  A    between atoms: C_18  and  O_19 
REMARK    2  A    between atoms: O_19  and  C_21 
REMARK    3  A    between atoms: C_21  and  C_24 
REMARK    4  A    between atoms: C_23  and  C_24 
REMARK    5  A    between atoms: C_23  and  C_25 
REMARK    6  A    between atoms: C_25  and  O_27 
ROOT
HETATM    1  C   UNK N   1      25.840  27.591  -3.836  0.00  0.00     0.022 C 
HETATM    2  C   UNK N   1      26.589  28.559  -2.941  0.00  0.00     0.084 C 
HETATM    3  C   UNK N   1      26.718  29.844  -3.686  0.00  0.00     0.149 C 
HETATM    4  O   UNK N   1      26.408  30.901  -3.165  0.00  0.00    -0.293 OA
HETATM    5  C   UNK N   1      27.246  29.803  -5.057  0.00  0.00     0.053 C 
HETATM    6  C   UNK N   1      27.188  28.662  -5.761  0.00  0.00    -0.068 C 
HETATM    7  C   UNK N   1      27.852  28.585  -7.108  0.00  0.00     0.035 C 
HETATM    8  C   UNK N   1      28.840  27.403  -7.136  0.00  0.00     0.010 C 
HETATM    9  C   UNK N   1      28.143  26.109  -6.689  0.00  0.00    -0.004 C 
HETATM   10  C   UNK N   1      27.521  26.244  -5.257  0.00  0.00     0.002 C 
HETATM   11  C   UNK N   1      26.490  27.408  -5.230  0.00  0.00    -0.016 C 
HETATM   12  C   UNK N   1      26.802  24.937  -4.822  0.00  0.00     0.007 C 
HETATM   13  C   UNK N   1      27.396  23.628  -5.364  0.00  0.00     0.012 C 
HETATM   14  C   UNK N   1      28.849  23.795  -5.778  0.00  0.00    -0.013 C 
HETATM   15  C   UNK N   1      28.955  24.794  -6.921  0.00  0.00     0.001 C 
HETATM   16  C   UNK N   1      30.442  24.721  -7.262  0.00  0.00     0.008 C 
HETATM   17  C   UNK N   1      30.795  23.220  -7.011  0.00  0.00     0.034 C 
HETATM   18  C   UNK N   1      29.512  22.584  -6.432  0.00  0.00     0.140 C 
HETATM   19  C   UNK N   1      29.668  24.213  -4.532  0.00  0.00     0.018 C 
HETATM   20  C   UNK N   1      25.317  27.095  -6.161  0.00  0.00     0.020 C 
ENDROOT
BRANCH  18  21
HETATM   21  O   UNK N   1      29.732  21.565  -5.519  0.00  0.00    -0.315 OA
BRANCH  21  22
HETATM   22  C   UNK N   1      30.601  20.544  -5.781  0.00  0.00     0.259 C 
HETATM   23  O   UNK N   1      30.389  19.769  -6.703  0.00  0.00    -0.265 OA
BRANCH  22  24
HETATM   24  C   UNK N   1      31.750  20.295  -4.855  0.00  0.00     0.121 C 
BRANCH  24  25
HETATM   25  C   UNK N   1      32.325  21.575  -4.262  0.00  0.00     0.119 C 
BRANCH  25  26
HETATM   26  C   UNK N   1      32.162  21.622  -2.772  0.00  0.00     0.139 C 
HETATM   27  O   UNK N   1      31.216  22.210  -2.271  0.00  0.00    -0.650 OA
BRANCH  26  28
HETATM   28  O   UNK N   1      33.068  21.017  -1.983  0.00  0.00    -0.776 OA
HETATM   29  H   UNK N   1      33.433  20.217  -1.660  0.00  0.00     0.167 HD
ENDBRANCH  26  28
ENDBRANCH  25  26
ENDBRANCH  24  25
ENDBRANCH  22  24
ENDBRANCH  21  22
ENDBRANCH  18  21
TORSDOF 6
ENDMDL
MODEL 4
REMARK VINA RESULT:      -7.4      6.387     13.002
REMARK  6 active torsions:
REMARK  status: ('A' for Active; 'I' for Inactive)
REMARK    1  A    between atoms: C_18  and  O_19 
REMARK    2  A    between atoms: O_19  and  C_21 
REMARK    3  A    between atoms: C_21  and  C_24 
REMARK    4  A    between atoms: C_23  and  C_24 
REMARK    5  A    between atoms: C_23  and  C_25 
REMARK    6  A    between atoms: C_25  and  O_27 
ROOT
HETATM    1  C   UNK N   1      36.359   8.420  18.748  0.00  0.00     0.022 C 
HETATM    2  C   UNK N   1      37.725   8.513  19.398  0.00  0.00     0.084 C 
HETATM    3  C   UNK N   1      37.542   9.165  20.727  0.00  0.00     0.149 C 
HETATM    4  O   UNK N   1      38.016   8.670  21.735  0.00  0.00    -0.293 OA
HETATM    5  C   UNK N   1      36.791  10.426  20.786  0.00  0.00     0.053 C 
HETATM    6  C   UNK N   1      35.938  10.742  19.799  0.00  0.00    -0.068 C 
HETATM    7  C   UNK N   1      35.277  12.092  19.791  0.00  0.00     0.035 C 
HETATM    8  C   UNK N   1      35.553  12.801  18.451  0.00  0.00     0.010 C 
HETATM    9  C   UNK N   1      35.168  11.891  17.274  0.00  0.00    -0.004 C 
HETATM   10  C   UNK N   1      35.934  10.524  17.316  0.00  0.00     0.002 C 
HETATM   11  C   UNK N   1      35.627   9.783  18.648  0.00  0.00    -0.016 C 
HETATM   12  C   UNK N   1      35.523   9.604  16.132  0.00  0.00     0.007 C 
HETATM   13  C   UNK N   1      35.140  10.316  14.826  0.00  0.00     0.012 C 
HETATM   14  C   UNK N   1      35.722  11.718  14.755  0.00  0.00    -0.013 C 
HETATM   15  C   UNK N   1      35.151  12.580  15.871  0.00  0.00     0.001 C 
HETATM   16  C   UNK N   1      35.751  13.947  15.549  0.00  0.00     0.008 C 
HETATM   17  C   UNK N   1      35.787  13.965  13.987  0.00  0.00     0.034 C 
HETATM   18  C   UNK N   1      35.317  12.561  13.546  0.00  0.00     0.140 C 
HETATM   19  C   UNK N   1      37.266  11.611  14.805  0.00  0.00     0.018 C 
HETATM   20  C   UNK N   1      34.142   9.426  18.723  0.00  0.00     0.020 C 
ENDROOT
BRANCH  18  21
HETATM   21  O   UNK N   1      35.901  12.095  12.378  0.00  0.00    -0.315 OA
BRANCH  21  22
HETATM   22  C   UNK N   1      35.362  12.364  11.152  0.00  0.00     0.259 C 
HETATM   23  O   UNK N   1      34.586  11.577  10.628  0.00  0.00    -0.265 OA
BRANCH  22  24
HETATM   24  C   UNK N   1      35.824  13.565  10.388  0.00  0.00     0.121 C 
BRANCH  24  25
HETATM   25  C   UNK N   1      34.936  14.785  10.603  0.00  0.00     0.119 C 
BRANCH  25  26
HETATM   26  C   UNK N   1      35.740  16.046  10.716  0.00  0.00     0.139 C 
HETATM   27  O   UNK N   1      35.203  17.136  10.584  0.00  0.00    -0.650 OA
BRANCH  26  28
HETATM   28  O   UNK N   1      37.061  15.976  10.957  0.00  0.00    -0.776 OA
HETATM   29  H   UNK N   1      37.827  16.381  11.315  0.00  0.00     0.167 HD
ENDBRANCH  26  28
ENDBRANCH  25  26
ENDBRANCH  24  25
ENDBRANCH  22  24
ENDBRANCH  21  22
ENDBRANCH  18  21
TORSDOF 6
ENDMDL
MODEL 5
REMARK VINA RESULT:      -7.3      6.206     13.110
REMARK  6 active torsions:
REMARK  status: ('A' for Active; 'I' for Inactive)
REMARK    1  A    between atoms: C_18  and  O_19 
REMARK    2  A    between atoms: O_19  and  C_21 
REMARK    3  A    between atoms: C_21  and  C_24 
REMARK    4  A    between atoms: C_23  and  C_24 
REMARK    5  A    between atoms: C_23  and  C_25 
REMARK    6  A    between atoms: C_25  and  O_27 
ROOT
HETATM    1  C   UNK N   1      34.561  10.325  20.379  0.00  0.00     0.022 C 
HETATM    2  C   UNK N   1      33.247   9.651  20.723  0.00  0.00     0.084 C 
HETATM    3  C   UNK N   1      33.552   8.235  21.076  0.00  0.00     0.149 C 
HETATM    4  O   UNK N   1      33.117   7.740  22.102  0.00  0.00    -0.293 OA
HETATM    5  C   UNK N   1      34.376   7.448  20.149  0.00  0.00     0.053 C 
HETATM    6  C   UNK N   1      35.181   8.074  19.275  0.00  0.00    -0.068 C 
HETATM    7  C   UNK N   1      35.915   7.273  18.236  0.00  0.00     0.035 C 
HETATM    8  C   UNK N   1      35.595   7.820  16.832  0.00  0.00     0.010 C 
HETATM    9  C   UNK N   1      35.850   9.334  16.774  0.00  0.00    -0.004 C 
HETATM   10  C   UNK N   1      35.012  10.110  17.848  0.00  0.00     0.002 C 
HETATM   11  C   UNK N   1      35.361   9.592  19.273  0.00  0.00    -0.016 C 
HETATM   12  C   UNK N   1      35.292  11.638  17.795  0.00  0.00     0.007 C 
HETATM   13  C   UNK N   1      35.630  12.213  16.411  0.00  0.00     0.012 C 
HETATM   14  C   UNK N   1      35.125  11.321  15.288  0.00  0.00    -0.013 C 
HETATM   15  C   UNK N   1      35.816   9.967  15.346  0.00  0.00     0.001 C 
HETATM   16  C   UNK N   1      35.275   9.287  14.089  0.00  0.00     0.008 C 
HETATM   17  C   UNK N   1      35.140  10.465  13.073  0.00  0.00     0.034 C 
HETATM   18  C   UNK N   1      35.499  11.741  13.867  0.00  0.00     0.140 C 
HETATM   19  C   UNK N   1      33.584  11.218  15.400  0.00  0.00     0.018 C 
HETATM   20  C   UNK N   1      36.825   9.892  19.598  0.00  0.00     0.020 C 
ENDROOT
BRANCH  18  21
HETATM   21  O   UNK N   1      34.815  12.880  13.473  0.00  0.00    -0.315 OA
BRANCH  21  22
HETATM   22  C   UNK N   1      35.439  13.892  12.801  0.00  0.00     0.259 C 
HETATM   23  O   UNK N   1      36.082  14.738  13.407  0.00  0.00    -0.265 OA
BRANCH  22  24
HETATM   24  C   UNK N   1      35.227  14.042  11.327  0.00  0.00     0.121 C 
BRANCH  24  25
HETATM   25  C   UNK N   1      34.663  15.404  10.942  0.00  0.00     0.119 C 
BRANCH  25  26
HETATM   26  C   UNK N   1      35.750  16.407  10.692  0.00  0.00     0.139 C 
HETATM   27  O   UNK N   1      35.475  17.551  10.365  0.00  0.00    -0.650 OA
BRANCH  26  28
HETATM   28  O   UNK N   1      37.038  16.040  10.822  0.00  0.00    -0.776 OA
HETATM   29  H   UNK N   1      37.663  15.447  11.192  0.00  0.00     0.167 HD
ENDBRANCH  26  28
ENDBRANCH  25  26
ENDBRANCH  24  25
ENDBRANCH  22  24
ENDBRANCH  21  22
ENDBRANCH  18  21
TORSDOF 6
ENDMDL
MODEL 6
REMARK VINA RESULT:      -7.3      4.947     11.381
REMARK  6 active torsions:
REMARK  status: ('A' for Active; 'I' for Inactive)
REMARK    1  A    between atoms: C_18  and  O_19 
REMARK    2  A    between atoms: O_19  and  C_21 
REMARK    3  A    between atoms: C_21  and  C_24 
REMARK    4  A    between atoms: C_23  and  C_24 
REMARK    5  A    between atoms: C_23  and  C_25 
REMARK    6  A    between atoms: C_25  and  O_27 
ROOT
HETATM    1  C   UNK N   1      27.700  19.060   6.554  0.00  0.00     0.022 C 
HETATM    2  C   UNK N   1      28.271  18.221   7.680  0.00  0.00     0.084 C 
HETATM    3  C   UNK N   1      29.600  17.717   7.228  0.00  0.00     0.149 C 
HETATM    4  O   UNK N   1      30.586  17.838   7.934  0.00  0.00    -0.293 OA
HETATM    5  C   UNK N   1      29.686  17.057   5.918  0.00  0.00     0.053 C 
HETATM    6  C   UNK N   1      28.744  17.289   4.990  0.00  0.00    -0.068 C 
HETATM    7  C   UNK N   1      28.757  16.508   3.706  0.00  0.00     0.035 C 
HETATM    8  C   UNK N   1      27.395  15.817   3.501  0.00  0.00     0.010 C 
HETATM    9  C   UNK N   1      26.252  16.837   3.621  0.00  0.00    -0.004 C 
HETATM   10  C   UNK N   1      26.268  17.575   5.003  0.00  0.00     0.002 C 
HETATM   11  C   UNK N   1      27.625  18.311   5.200  0.00  0.00    -0.016 C 
HETATM   12  C   UNK N   1      25.121  18.618   5.107  0.00  0.00     0.007 C 
HETATM   13  C   UNK N   1      23.829  18.278   4.347  0.00  0.00     0.012 C 
HETATM   14  C   UNK N   1      23.708  16.787   4.078  0.00  0.00    -0.013 C 
HETATM   15  C   UNK N   1      24.844  16.324   3.178  0.00  0.00     0.001 C 
HETATM   16  C   UNK N   1      24.472  14.863   2.932  0.00  0.00     0.008 C 
HETATM   17  C   UNK N   1      22.911  14.891   2.889  0.00  0.00     0.034 C 
HETATM   18  C   UNK N   1      22.514  16.344   3.234  0.00  0.00     0.140 C 
HETATM   19  C   UNK N   1      23.674  16.045   5.437  0.00  0.00     0.018 C 
HETATM   20  C   UNK N   1      27.787  19.407   4.146  0.00  0.00     0.020 C 
ENDROOT
BRANCH  18  21
HETATM   21  O   UNK N   1      21.321  16.469   3.929  0.00  0.00    -0.315 OA
BRANCH  21  22
HETATM   22  C   UNK N   1      20.297  17.241   3.459  0.00  0.00     0.259 C 
HETATM   23  O   UNK N   1      19.208  17.237   4.016  0.00  0.00    -0.265 OA
BRANCH  22  24
HETATM   24  C   UNK N   1      20.469  17.998   2.179  0.00  0.00     0.121 C 
BRANCH  24  25
HETATM   25  C   UNK N   1      20.223  19.494   2.334  0.00  0.00     0.119 C 
BRANCH  25  26
HETATM   26  C   UNK N   1      20.974  20.291   1.310  0.00  0.00     0.139 C 
HETATM   27  O   UNK N   1      22.003  20.877   1.613  0.00  0.00    -0.650 OA
BRANCH  26  28
HETATM   28  O   UNK N   1      20.506  20.368   0.051  0.00  0.00    -0.776 OA
HETATM   29  H   UNK N   1      20.013  19.970  -0.639  0.00  0.00     0.167 HD
ENDBRANCH  26  28
ENDBRANCH  25  26
ENDBRANCH  24  25
ENDBRANCH  22  24
ENDBRANCH  21  22
ENDBRANCH  18  21
TORSDOF 6
ENDMDL
MODEL 7
REMARK VINA RESULT:      -7.3      4.487     10.302
REMARK  6 active torsions:
REMARK  status: ('A' for Active; 'I' for Inactive)
REMARK    1  A    between atoms: C_18  and  O_19 
REMARK    2  A    between atoms: O_19  and  C_21 
REMARK    3  A    between atoms: C_21  and  C_24 
REMARK    4  A    between atoms: C_23  and  C_24 
REMARK    5  A    between atoms: C_23  and  C_25 
REMARK    6  A    between atoms: C_25  and  O_27 
ROOT
HETATM    1  C   UNK N   1      35.642   9.326  13.807  0.00  0.00     0.022 C 
HETATM    2  C   UNK N   1      37.048   9.011  14.278  0.00  0.00     0.084 C 
HETATM    3  C   UNK N   1      37.136   9.406  15.713  0.00  0.00     0.149 C 
HETATM    4  O   UNK N   1      37.578   8.634  16.547  0.00  0.00    -0.293 OA
HETATM    5  C   UNK N   1      36.691  10.753  16.093  0.00  0.00     0.053 C 
HETATM    6  C   UNK N   1      35.842  11.426  15.299  0.00  0.00    -0.068 C 
HETATM    7  C   UNK N   1      35.499  12.854  15.617  0.00  0.00     0.035 C 
HETATM    8  C   UNK N   1      35.802  13.748  14.399  0.00  0.00     0.010 C 
HETATM    9  C   UNK N   1      35.121  13.189  13.141  0.00  0.00    -0.004 C 
HETATM   10  C   UNK N   1      35.565  11.717  12.839  0.00  0.00     0.002 C 
HETATM   11  C   UNK N   1      35.224  10.799  14.048  0.00  0.00    -0.016 C 
HETATM   12  C   UNK N   1      34.855  11.154  11.576  0.00  0.00     0.007 C 
HETATM   13  C   UNK N   1      34.522  12.176  10.479  0.00  0.00     0.012 C 
HETATM   14  C   UNK N   1      35.391  13.419  10.580  0.00  0.00    -0.013 C 
HETATM   15  C   UNK N   1      35.128  14.135  11.897  0.00  0.00     0.001 C 
HETATM   16  C   UNK N   1      35.984  15.391  11.746  0.00  0.00     0.008 C 
HETATM   17  C   UNK N   1      35.881  15.715  10.221  0.00  0.00     0.034 C 
HETATM   18  C   UNK N   1      35.075  14.551   9.604  0.00  0.00     0.140 C 
HETATM   19  C   UNK N   1      36.871  12.997  10.408  0.00  0.00     0.018 C 
HETATM   20  C   UNK N   1      33.710  10.738  14.253  0.00  0.00     0.020 C 
ENDROOT
BRANCH  18  21
HETATM   21  O   UNK N   1      35.433  14.222   8.305  0.00  0.00    -0.315 OA
BRANCH  21  22
HETATM   22  C   UNK N   1      35.169  15.058   7.258  0.00  0.00     0.259 C 
HETATM   23  O   UNK N   1      36.015  15.266   6.400  0.00  0.00    -0.265 OA
BRANCH  22  24
HETATM   24  C   UNK N   1      33.882  15.823   7.228  0.00  0.00     0.121 C 
BRANCH  24  25
HETATM   25  C   UNK N   1      34.078  17.305   6.931  0.00  0.00     0.119 C 
BRANCH  25  26
HETATM   26  C   UNK N   1      34.176  18.117   8.188  0.00  0.00     0.139 C 
HETATM   27  O   UNK N   1      34.981  19.032   8.273  0.00  0.00    -0.650 OA
BRANCH  26  28
HETATM   28  O   UNK N   1      33.375  17.832   9.230  0.00  0.00    -0.776 OA
HETATM   29  H   UNK N   1      33.291  17.692  10.153  0.00  0.00     0.167 HD
ENDBRANCH  26  28
ENDBRANCH  25  26
ENDBRANCH  24  25
ENDBRANCH  22  24
ENDBRANCH  21  22
ENDBRANCH  18  21
TORSDOF 6
ENDMDL
MODEL 8
REMARK VINA RESULT:      -7.0     12.960     17.122
REMARK  6 active torsions:
REMARK  status: ('A' for Active; 'I' for Inactive)
REMARK    1  A    between atoms: C_18  and  O_19 
REMARK    2  A    between atoms: O_19  and  C_21 
REMARK    3  A    between atoms: C_21  and  C_24 
REMARK    4  A    between atoms: C_23  and  C_24 
REMARK    5  A    between atoms: C_23  and  C_25 
REMARK    6  A    between atoms: C_25  and  O_27 
ROOT
HETATM    1  C   UNK N   1      32.464  22.632  -4.100  0.00  0.00     0.022 C 
HETATM    2  C   UNK N   1      32.447  21.335  -3.315  0.00  0.00     0.084 C 
HETATM    3  C   UNK N   1      32.620  20.222  -4.293  0.00  0.00     0.149 C 
HETATM    4  O   UNK N   1      33.456  19.353  -4.108  0.00  0.00    -0.293 OA
HETATM    5  C   UNK N   1      31.747  20.190  -5.474  0.00  0.00     0.053 C 
HETATM    6  C   UNK N   1      31.147  21.316  -5.892  0.00  0.00    -0.068 C 
HETATM    7  C   UNK N   1      30.147  21.255  -7.012  0.00  0.00     0.035 C 
HETATM    8  C   UNK N   1      28.814  21.878  -6.557  0.00  0.00     0.010 C 
HETATM    9  C   UNK N   1      29.047  23.283  -5.981  0.00  0.00    -0.004 C 
HETATM   10  C   UNK N   1      30.057  23.265  -4.784  0.00  0.00     0.002 C 
HETATM   11  C   UNK N   1      31.421  22.676  -5.246  0.00  0.00    -0.016 C 
HETATM   12  C   UNK N   1      30.301  24.693  -4.221  0.00  0.00     0.007 C 
HETATM   13  C   UNK N   1      29.113  25.663  -4.308  0.00  0.00     0.012 C 
HETATM   14  C   UNK N   1      27.790  24.927  -4.432  0.00  0.00    -0.013 C 
HETATM   15  C   UNK N   1      27.757  24.127  -5.726  0.00  0.00     0.001 C 
HETATM   16  C   UNK N   1      26.329  23.581  -5.719  0.00  0.00     0.008 C 
HETATM   17  C   UNK N   1      25.507  24.734  -5.060  0.00  0.00     0.034 C 
HETATM   18  C   UNK N   1      26.547  25.794  -4.634  0.00  0.00     0.140 C 
HETATM   19  C   UNK N   1      27.598  24.048  -3.173  0.00  0.00     0.018 C 
HETATM   20  C   UNK N   1      32.054  23.580  -6.305  0.00  0.00     0.020 C 
ENDROOT
BRANCH  18  21
HETATM   21  O   UNK N   1      26.221  26.497  -3.485  0.00  0.00    -0.315 OA
BRANCH  21  22
HETATM   22  C   UNK N   1      26.414  27.845  -3.392  0.00  0.00     0.259 C 
HETATM   23  O   UNK N   1      26.726  28.358  -2.327  0.00  0.00    -0.265 OA
BRANCH  22  24
HETATM   24  C   UNK N   1      26.113  28.718  -4.571  0.00  0.00     0.121 C 
BRANCH  24  25
HETATM   25  C   UNK N   1      27.277  29.625  -4.953  0.00  0.00     0.119 C 
BRANCH  25  26
HETATM   26  C   UNK N   1      27.892  29.223  -6.260  0.00  0.00     0.139 C 
HETATM   27  O   UNK N   1      28.841  29.844  -6.715  0.00  0.00    -0.650 OA
BRANCH  26  28
HETATM   28  O   UNK N   1      27.389  28.177  -6.940  0.00  0.00    -0.776 OA
HETATM   29  H   UNK N   1      27.506  27.537  -7.614  0.00  0.00     0.167 HD
ENDBRANCH  26  28
ENDBRANCH  25  26
ENDBRANCH  24  25
ENDBRANCH  22  24
ENDBRANCH  21  22
ENDBRANCH  18  21
TORSDOF 6
ENDMDL
MODEL 9
REMARK VINA RESULT:      -6.9      3.218      9.844
REMARK  6 active torsions:
REMARK  status: ('A' for Active; 'I' for Inactive)
REMARK    1  A    between atoms: C_18  and  O_19 
REMARK    2  A    between atoms: O_19  and  C_21 
REMARK    3  A    between atoms: C_21  and  C_24 
REMARK    4  A    between atoms: C_23  and  C_24 
REMARK    5  A    between atoms: C_23  and  C_25 
REMARK    6  A    between atoms: C_25  and  O_27 
ROOT
HETATM    1  C   UNK N   1      36.230   9.936  11.983  0.00  0.00     0.022 C 
HETATM    2  C   UNK N   1      37.729   9.726  12.074  0.00  0.00     0.084 C 
HETATM    3  C   UNK N   1      38.104   9.817  13.514  0.00  0.00     0.149 C 
HETATM    4  O   UNK N   1      38.791   8.956  14.036  0.00  0.00    -0.293 OA
HETATM    5  C   UNK N   1      37.640  10.980  14.282  0.00  0.00     0.053 C 
HETATM    6  C   UNK N   1      36.577  11.681  13.855  0.00  0.00    -0.068 C 
HETATM    7  C   UNK N   1      36.189  12.949  14.564  0.00  0.00     0.035 C 
HETATM    8  C   UNK N   1      36.127  14.113  13.555  0.00  0.00     0.010 C 
HETATM    9  C   UNK N   1      35.230  13.743  12.364  0.00  0.00    -0.004 C 
HETATM   10  C   UNK N   1      35.723  12.442  11.641  0.00  0.00     0.002 C 
HETATM   11  C   UNK N   1      35.749  11.252  12.643  0.00  0.00    -0.016 C 
HETATM   12  C   UNK N   1      34.799  12.066  10.450  0.00  0.00     0.007 C 
HETATM   13  C   UNK N   1      34.135  13.240   9.714  0.00  0.00     0.012 C 
HETATM   14  C   UNK N   1      34.891  14.541   9.929  0.00  0.00    -0.013 C 
HETATM   15  C   UNK N   1      34.871  14.921  11.402  0.00  0.00     0.001 C 
HETATM   16  C   UNK N   1      35.556  16.287  11.382  0.00  0.00     0.008 C 
HETATM   17  C   UNK N   1      35.081  16.907  10.029  0.00  0.00     0.034 C 
HETATM   18  C   UNK N   1      34.262  15.799   9.331  0.00  0.00     0.140 C 
HETATM   19  C   UNK N   1      36.325  14.374   9.368  0.00  0.00     0.018 C 
HETATM   20  C   UNK N   1      34.332  10.942  13.128  0.00  0.00     0.020 C 
ENDROOT
BRANCH  18  21
HETATM   21  O   UNK N   1      34.344  15.804   7.947  0.00  0.00    -0.315 OA
BRANCH  21  22
HETATM   22  C   UNK N   1      33.822  16.823   7.203  0.00  0.00     0.259 C 
HETATM   23  O   UNK N   1      34.556  17.586   6.591  0.00  0.00    -0.265 OA
BRANCH  22  24
HETATM   24  C   UNK N   1      32.349  17.088   7.241  0.00  0.00     0.121 C 
BRANCH  24  25
HETATM   25  C   UNK N   1      31.957  18.122   8.290  0.00  0.00     0.119 C 
BRANCH  25  26
HETATM   26  C   UNK N   1      30.543  17.938   8.753  0.00  0.00     0.139 C 
HETATM   27  O   UNK N   1      29.762  17.259   8.103  0.00  0.00    -0.650 OA
BRANCH  26  28
HETATM   28  O   UNK N   1      30.130  18.531   9.887  0.00  0.00    -0.776 OA
HETATM   29  H   UNK N   1      30.002  19.325  10.368  0.00  0.00     0.167 HD
ENDBRANCH  26  28
ENDBRANCH  25  26
ENDBRANCH  24  25
ENDBRANCH  22  24
ENDBRANCH  21  22
ENDBRANCH  18  21
TORSDOF 6
ENDMDL
