MODEL 1
REMARK VINA RESULT:      -5.9      0.000      0.000
REMARK  2 active torsions:
REMARK  status: ('A' for Active; 'I' for Inactive)
REMARK    1  A    between atoms: C_8  and  C_9 
REMARK    2  A    between atoms: C_9  and  N_10 
ROOT
HETATM    1  N   UNK N   1      35.815  13.577  12.345  0.00  0.00    -0.356 N 
HETATM    2  C   UNK N   1      35.602  12.151  12.283  0.00  0.00     0.136 C 
HETATM    3  C   UNK N   1      34.604  11.858  13.353  0.00  0.00     0.102 C 
HETATM    4  S   UNK N   1      35.263  12.765  14.795  0.00  0.00    -0.092 SA
HETATM    5  C   UNK N   1      35.868  13.993  13.636  0.00  0.00     0.151 C 
HETATM    6  N   UNK N   1      36.646  14.968  13.921  0.00  0.00    -0.274 N 
ATOM      7  HN  UNK N   1      36.881  15.648  13.197  1.00  0.00     0.180 HD
HETATM    8  C   UNK N   1      37.164  15.116  15.169  0.00  0.00     0.183 C 
HETATM    9  N   UNK N   1      37.591  15.222  16.230  0.00  0.00    -0.172 NA
ENDROOT
BRANCH   1  10
HETATM   10  C   UNK N   1      36.637  14.288  11.401  0.00  0.00     0.165 C 
BRANCH  10  11
HETATM   11  C   UNK N   1      35.819  15.120  10.567  0.00  0.00    -0.025 A 
HETATM   12  C   UNK N   1      35.303  14.619   9.397  0.00  0.00     0.013 A 
HETATM   13  C   UNK N   1      34.518  15.464   8.632  0.00  0.00     0.043 A 
HETATM   14  C   UNK N   1      34.281  16.777   9.076  0.00  0.00     0.103 A 
HETATM   15  N   UNK N   1      34.808  17.232  10.221  0.00  0.00    -0.356 N 
HETATM   16 Cl   UNK N   1      33.284  17.844   8.189  0.00  0.00    -0.065 Cl
HETATM   17  C   UNK N   1      35.563  16.431  10.952  0.00  0.00     0.098 A 
ATOM     18  HN  UNK N   1      34.628  18.189  10.526  1.00  0.00     0.166 HD
ENDBRANCH  10  11
ENDBRANCH   1  10
TORSDOF 2
ENDMDL
MODEL 2
REMARK VINA RESULT:      -5.6      7.355      9.614
REMARK  2 active torsions:
REMARK  status: ('A' for Active; 'I' for Inactive)
REMARK    1  A    between atoms: C_8  and  C_9 
REMARK    2  A    between atoms: C_9  and  N_10 
ROOT
HETATM    1  N   UNK N   1      31.040  17.211   6.328  0.00  0.00    -0.356 N 
HETATM    2  C   UNK N   1      31.585  16.742   7.579  0.00  0.00     0.136 C 
HETATM    3  C   UNK N   1      32.927  17.386   7.687  0.00  0.00     0.102 C 
HETATM    4  S   UNK N   1      33.661  17.094   6.041  0.00  0.00    -0.092 SA
HETATM    5  C   UNK N   1      32.003  17.239   5.372  0.00  0.00     0.151 C 
HETATM    6  N   UNK N   1      31.660  16.980   4.167  0.00  0.00    -0.274 N 
ATOM      7  HN  UNK N   1      30.699  17.156   3.872  1.00  0.00     0.180 HD
HETATM    8  C   UNK N   1      32.551  16.478   3.271  0.00  0.00     0.183 C 
HETATM    9  N   UNK N   1      33.319  16.053   2.531  0.00  0.00    -0.172 NA
ENDROOT
BRANCH   1  10
HETATM   10  C   UNK N   1      29.702  16.905   5.892  0.00  0.00     0.165 C 
BRANCH  10  11
HETATM   11  C   UNK N   1      28.878  18.075   5.980  0.00  0.00    -0.025 A 
HETATM   12  C   UNK N   1      28.594  18.798   4.847  0.00  0.00     0.013 A 
HETATM   13  C   UNK N   1      27.791  19.916   4.988  0.00  0.00     0.043 A 
HETATM   14  C   UNK N   1      27.304  20.261   6.261  0.00  0.00     0.103 A 
HETATM   15  N   UNK N   1      27.610  19.534   7.345  0.00  0.00    -0.356 N 
HETATM   16 Cl   UNK N   1      26.275  21.607   6.480  0.00  0.00    -0.065 Cl
HETATM   17  C   UNK N   1      28.380  18.469   7.216  0.00  0.00     0.098 A 
ATOM     18  HN  UNK N   1      27.250  19.801   8.262  1.00  0.00     0.166 HD
ENDBRANCH  10  11
ENDBRANCH   1  10
TORSDOF 2
ENDMDL
MODEL 3
REMARK VINA RESULT:      -5.4      4.043      6.310
REMARK  2 active torsions:
REMARK  status: ('A' for Active; 'I' for Inactive)
REMARK    1  A    between atoms: C_8  and  C_9 
REMARK    2  A    between atoms: C_9  and  N_10 
ROOT
HETATM    1  N   UNK N   1      35.981  13.411  12.690  0.00  0.00    -0.356 N 
HETATM    2  C   UNK N   1      34.937  12.422  12.580  0.00  0.00     0.136 C 
HETATM    3  C   UNK N   1      34.932  12.018  11.142  0.00  0.00     0.102 C 
HETATM    4  S   UNK N   1      34.966  13.618  10.262  0.00  0.00    -0.092 SA
HETATM    5  C   UNK N   1      35.962  14.243  11.617  0.00  0.00     0.151 C 
HETATM    6  N   UNK N   1      36.290  15.466  11.799  0.00  0.00    -0.274 N 
ATOM      7  HN  UNK N   1      36.914  15.706  12.570  1.00  0.00     0.180 HD
HETATM    8  C   UNK N   1      35.825  16.450  10.986  0.00  0.00     0.183 C 
HETATM    9  N   UNK N   1      35.420  17.266  10.287  0.00  0.00    -0.172 NA
ENDROOT
BRANCH   1  10
HETATM   10  C   UNK N   1      36.388  13.985  13.947  0.00  0.00     0.165 C 
BRANCH  10  11
HETATM   11  C   UNK N   1      36.206  13.031  15.002  0.00  0.00    -0.025 A 
HETATM   12  C   UNK N   1      35.303  13.284  16.005  0.00  0.00     0.013 A 
HETATM   13  C   UNK N   1      35.166  12.329  16.997  0.00  0.00     0.043 A 
HETATM   14  C   UNK N   1      35.941  11.157  16.939  0.00  0.00     0.103 A 
HETATM   15  N   UNK N   1      36.818  10.949  15.948  0.00  0.00    -0.356 N 
HETATM   16 Cl   UNK N   1      35.776   9.929  18.116  0.00  0.00    -0.065 Cl
HETATM   17  C   UNK N   1      36.955  11.860  15.001  0.00  0.00     0.098 A 
ATOM     18  HN  UNK N   1      37.373  10.094  15.922  1.00  0.00     0.166 HD
ENDBRANCH  10  11
ENDBRANCH   1  10
TORSDOF 2
ENDMDL
MODEL 4
REMARK VINA RESULT:      -5.3      3.760      6.218
REMARK  2 active torsions:
REMARK  status: ('A' for Active; 'I' for Inactive)
REMARK    1  A    between atoms: C_8  and  C_9 
REMARK    2  A    between atoms: C_9  and  N_10 
ROOT
HETATM    1  N   UNK N   1      35.455  14.462  11.411  0.00  0.00    -0.356 N 
HETATM    2  C   UNK N   1      36.267  15.608  11.079  0.00  0.00     0.136 C 
HETATM    3  C   UNK N   1      35.297  16.670  10.681  0.00  0.00     0.102 C 
HETATM    4  S   UNK N   1      34.179  15.801   9.528  0.00  0.00    -0.092 SA
HETATM    5  C   UNK N   1      34.433  14.333  10.528  0.00  0.00     0.151 C 
HETATM    6  N   UNK N   1      34.041  13.151  10.231  0.00  0.00    -0.274 N 
ATOM      7  HN  UNK N   1      34.183  12.395  10.900  1.00  0.00     0.180 HD
HETATM    8  C   UNK N   1      33.439  12.885   9.041  0.00  0.00     0.183 C 
HETATM    9  N   UNK N   1      32.934  12.682   8.030  0.00  0.00    -0.172 NA
ENDROOT
BRANCH   1  10
HETATM   10  C   UNK N   1      36.003  13.244  11.950  0.00  0.00     0.165 C 
BRANCH  10  11
HETATM   11  C   UNK N   1      35.816  13.210  13.372  0.00  0.00    -0.025 A 
HETATM   12  C   UNK N   1      36.661  13.918  14.190  0.00  0.00     0.013 A 
HETATM   13  C   UNK N   1      36.434  13.853  15.553  0.00  0.00     0.043 A 
HETATM   14  C   UNK N   1      35.365  13.079  16.039  0.00  0.00     0.103 A 
HETATM   15  N   UNK N   1      34.565  12.396  15.209  0.00  0.00    -0.356 N 
HETATM   16 Cl   UNK N   1      35.017  13.001  17.710  0.00  0.00    -0.065 Cl
HETATM   17  C   UNK N   1      34.782  12.452  13.907  0.00  0.00     0.098 A 
ATOM     18  HN  UNK N   1      33.795  11.838  15.579  1.00  0.00     0.166 HD
ENDBRANCH  10  11
ENDBRANCH   1  10
TORSDOF 2
ENDMDL
MODEL 5
REMARK VINA RESULT:      -5.3      2.208      2.836
REMARK  2 active torsions:
REMARK  status: ('A' for Active; 'I' for Inactive)
REMARK    1  A    between atoms: C_8  and  C_9 
REMARK    2  A    between atoms: C_9  and  N_10 
ROOT
HETATM    1  N   UNK N   1      35.807  13.260  11.594  0.00  0.00    -0.356 N 
HETATM    2  C   UNK N   1      37.203  13.129  11.254  0.00  0.00     0.136 C 
HETATM    3  C   UNK N   1      37.325  11.783  10.620  0.00  0.00     0.102 C 
HETATM    4  S   UNK N   1      36.412  10.697  11.770  0.00  0.00    -0.092 SA
HETATM    5  C   UNK N   1      35.325  12.089  12.083  0.00  0.00     0.151 C 
HETATM    6  N   UNK N   1      34.424  12.142  12.990  0.00  0.00    -0.274 N 
ATOM      7  HN  UNK N   1      33.816  12.960  13.043  1.00  0.00     0.180 HD
HETATM    8  C   UNK N   1      34.260  11.131  13.883  0.00  0.00     0.183 C 
HETATM    9  N   UNK N   1      34.139  10.265  14.627  0.00  0.00    -0.172 NA
ENDROOT
BRANCH   1  10
HETATM   10  C   UNK N   1      35.243  14.469  12.136  0.00  0.00     0.165 C 
BRANCH  10  11
HETATM   11  C   UNK N   1      34.804  15.325  11.073  0.00  0.00    -0.025 A 
HETATM   12  C   UNK N   1      33.861  14.878  10.180  0.00  0.00     0.013 A 
HETATM   13  C   UNK N   1      33.471  15.746   9.175  0.00  0.00     0.043 A 
HETATM   14  C   UNK N   1      34.043  17.029   9.110  0.00  0.00     0.103 A 
HETATM   15  N   UNK N   1      34.966  17.427   9.996  0.00  0.00    -0.356 N 
HETATM   16 Cl   UNK N   1      33.563  18.152   7.914  0.00  0.00    -0.065 Cl
HETATM   17  C   UNK N   1      35.345  16.600  10.954  0.00  0.00     0.098 A 
ATOM     18  HN  UNK N   1      35.372  18.361   9.932  1.00  0.00     0.166 HD
ENDBRANCH  10  11
ENDBRANCH   1  10
TORSDOF 2
ENDMDL
MODEL 6
REMARK VINA RESULT:      -5.3      5.162      8.173
REMARK  2 active torsions:
REMARK  status: ('A' for Active; 'I' for Inactive)
REMARK    1  A    between atoms: C_8  and  C_9 
REMARK    2  A    between atoms: C_9  and  N_10 
ROOT
HETATM    1  N   UNK N   1      30.835  17.586   8.195  0.00  0.00    -0.356 N 
HETATM    2  C   UNK N   1      30.440  18.639   9.098  0.00  0.00     0.136 C 
HETATM    3  C   UNK N   1      28.997  18.388   9.383  0.00  0.00     0.102 C 
HETATM    4  S   UNK N   1      28.289  18.101   7.724  0.00  0.00    -0.092 SA
HETATM    5  C   UNK N   1      29.859  17.353   7.281  0.00  0.00     0.151 C 
HETATM    6  N   UNK N   1      30.211  17.003   6.102  0.00  0.00    -0.274 N 
ATOM      7  HN  UNK N   1      31.104  16.528   5.967  1.00  0.00     0.180 HD
HETATM    8  C   UNK N   1      29.418  17.250   5.025  0.00  0.00     0.183 C 
HETATM    9  N   UNK N   1      28.734  17.469   4.130  0.00  0.00    -0.172 NA
ENDROOT
BRANCH   1  10
HETATM   10  C   UNK N   1      32.193  17.400   7.753  0.00  0.00     0.165 C 
BRANCH  10  11
HETATM   11  C   UNK N   1      32.939  16.685   8.748  0.00  0.00    -0.025 A 
HETATM   12  C   UNK N   1      34.190  17.121   9.109  0.00  0.00     0.013 A 
HETATM   13  C   UNK N   1      34.864  16.396  10.076  0.00  0.00     0.043 A 
HETATM   14  C   UNK N   1      34.252  15.263  10.641  0.00  0.00     0.103 A 
HETATM   15  N   UNK N   1      33.032  14.864  10.257  0.00  0.00    -0.356 N 
HETATM   16 Cl   UNK N   1      35.026  14.359  11.868  0.00  0.00    -0.065 Cl
HETATM   17  C   UNK N   1      32.387  15.551   9.331  0.00  0.00     0.098 A 
ATOM     18  HN  UNK N   1      32.604  14.038  10.676  1.00  0.00     0.166 HD
ENDBRANCH  10  11
ENDBRANCH   1  10
TORSDOF 2
ENDMDL
MODEL 7
REMARK VINA RESULT:      -5.2      7.170     10.087
REMARK  2 active torsions:
REMARK  status: ('A' for Active; 'I' for Inactive)
REMARK    1  A    between atoms: C_8  and  C_9 
REMARK    2  A    between atoms: C_9  and  N_10 
ROOT
HETATM    1  N   UNK N   1      28.370  17.562   5.953  0.00  0.00    -0.356 N 
HETATM    2  C   UNK N   1      27.669  16.625   5.109  0.00  0.00     0.136 C 
HETATM    3  C   UNK N   1      27.593  17.285   3.772  0.00  0.00     0.102 C 
HETATM    4  S   UNK N   1      27.024  18.973   4.174  0.00  0.00    -0.092 SA
HETATM    5  C   UNK N   1      27.958  18.830   5.700  0.00  0.00     0.151 C 
HETATM    6  N   UNK N   1      27.922  19.656   6.676  0.00  0.00    -0.274 N 
ATOM      7  HN  UNK N   1      28.541  19.514   7.474  1.00  0.00     0.180 HD
HETATM    8  C   UNK N   1      27.077  20.721   6.670  0.00  0.00     0.183 C 
HETATM    9  N   UNK N   1      26.354  21.613   6.644  0.00  0.00    -0.172 NA
ENDROOT
BRANCH   1  10
HETATM   10  C   UNK N   1      28.749  17.263   7.310  0.00  0.00     0.165 C 
BRANCH  10  11
HETATM   11  C   UNK N   1      30.164  17.428   7.472  0.00  0.00    -0.025 A 
HETATM   12  C   UNK N   1      31.017  17.041   6.467  0.00  0.00     0.013 A 
HETATM   13  C   UNK N   1      32.373  17.226   6.674  0.00  0.00     0.043 A 
HETATM   14  C   UNK N   1      32.816  17.793   7.882  0.00  0.00     0.103 A 
HETATM   15  N   UNK N   1      31.953  18.151   8.842  0.00  0.00    -0.356 N 
HETATM   16 Cl   UNK N   1      34.476  18.081   8.167  0.00  0.00    -0.065 Cl
HETATM   17  C   UNK N   1      30.658  17.973   8.651  0.00  0.00     0.098 A 
ATOM     18  HN  UNK N   1      32.293  18.560   9.713  1.00  0.00     0.166 HD
ENDBRANCH  10  11
ENDBRANCH   1  10
TORSDOF 2
ENDMDL
MODEL 8
REMARK VINA RESULT:      -5.1     13.917     15.779
REMARK  2 active torsions:
REMARK  status: ('A' for Active; 'I' for Inactive)
REMARK    1  A    between atoms: C_8  and  C_9 
REMARK    2  A    between atoms: C_9  and  N_10 
ROOT
HETATM    1  N   UNK N   1      20.936  14.406   7.818  0.00  0.00    -0.356 N 
HETATM    2  C   UNK N   1      21.031  15.639   8.559  0.00  0.00     0.136 C 
HETATM    3  C   UNK N   1      19.720  16.322   8.351  0.00  0.00     0.102 C 
HETATM    4  S   UNK N   1      19.467  16.193   6.547  0.00  0.00    -0.092 SA
HETATM    5  C   UNK N   1      20.312  14.613   6.630  0.00  0.00     0.151 C 
HETATM    6  N   UNK N   1      20.685  13.913   5.626  0.00  0.00    -0.274 N 
ATOM      7  HN  UNK N   1      21.104  12.996   5.784  1.00  0.00     0.180 HD
HETATM    8  C   UNK N   1      20.532  14.366   4.353  0.00  0.00     0.183 C 
HETATM    9  N   UNK N   1      20.394  14.769   3.287  0.00  0.00    -0.172 NA
ENDROOT
BRANCH   1  10
HETATM   10  C   UNK N   1      21.962  13.395   7.843  0.00  0.00     0.165 C 
BRANCH  10  11
HETATM   11  C   UNK N   1      22.222  12.995   9.195  0.00  0.00    -0.025 A 
HETATM   12  C   UNK N   1      21.191  12.555   9.989  0.00  0.00     0.013 A 
HETATM   13  C   UNK N   1      21.499  12.178  11.284  0.00  0.00     0.043 A 
HETATM   14  C   UNK N   1      22.831  12.256  11.729  0.00  0.00     0.103 A 
HETATM   15  N   UNK N   1      23.809  12.698  10.926  0.00  0.00    -0.356 N 
HETATM   16 Cl   UNK N   1      23.268  11.762  13.305  0.00  0.00    -0.065 Cl
HETATM   17  C   UNK N   1      23.519  13.063   9.690  0.00  0.00     0.098 A 
ATOM     18  HN  UNK N   1      24.770  12.750  11.266  1.00  0.00     0.166 HD
ENDBRANCH  10  11
ENDBRANCH   1  10
TORSDOF 2
ENDMDL
MODEL 9
REMARK VINA RESULT:      -4.9      9.998     12.333
REMARK  2 active torsions:
REMARK  status: ('A' for Active; 'I' for Inactive)
REMARK    1  A    between atoms: C_8  and  C_9 
REMARK    2  A    between atoms: C_9  and  N_10 
ROOT
HETATM    1  N   UNK N   1      27.462  18.263   4.963  0.00  0.00    -0.356 N 
HETATM    2  C   UNK N   1      28.297  17.549   4.028  0.00  0.00     0.136 C 
HETATM    3  C   UNK N   1      28.349  16.148   4.541  0.00  0.00     0.102 C 
HETATM    4  S   UNK N   1      28.706  16.370   6.318  0.00  0.00    -0.092 SA
HETATM    5  C   UNK N   1      27.737  17.878   6.235  0.00  0.00     0.151 C 
HETATM    6  N   UNK N   1      27.640  18.754   7.162  0.00  0.00    -0.274 N 
ATOM      7  HN  UNK N   1      27.011  19.548   7.036  1.00  0.00     0.180 HD
HETATM    8  C   UNK N   1      28.358  18.649   8.311  0.00  0.00     0.183 C 
HETATM    9  N   UNK N   1      28.975  18.540   9.274  0.00  0.00    -0.172 NA
ENDROOT
BRANCH   1  10
HETATM   10  C   UNK N   1      27.068  19.635   4.772  0.00  0.00     0.165 C 
BRANCH  10  11
HETATM   11  C   UNK N   1      25.733  19.694   4.252  0.00  0.00    -0.025 A 
HETATM   12  C   UNK N   1      25.434  20.566   3.233  0.00  0.00     0.013 A 
HETATM   13  C   UNK N   1      24.131  20.580   2.767  0.00  0.00     0.043 A 
HETATM   14  C   UNK N   1      23.182  19.715   3.341  0.00  0.00     0.103 A 
HETATM   15  N   UNK N   1      23.511  18.884   4.339  0.00  0.00    -0.356 N 
HETATM   16 Cl   UNK N   1      21.572  19.665   2.771  0.00  0.00    -0.065 Cl
HETATM   17  C   UNK N   1      24.752  18.870   4.791  0.00  0.00     0.098 A 
ATOM     18  HN  UNK N   1      22.809  18.265   4.746  1.00  0.00     0.166 HD
ENDBRANCH  10  11
ENDBRANCH   1  10
TORSDOF 2
ENDMDL
