REMARK  2 active torsions:
REMARK  status: ('A' for Active; 'I' for Inactive)
REMARK    1  A    between atoms: C_8  and  C_9 
REMARK    2  A    between atoms: C_9  and  N_10 
ROOT
HETATM    1  N   UNK N   1      -0.514  -0.489   0.111  0.00  0.00    -0.356 N 
HETATM    2  C   UNK N   1      -1.524   0.289  -0.564  0.00  0.00     0.136 C 
HETATM    3  C   UNK N   1      -2.796  -0.013   0.157  0.00  0.00     0.102 C 
HETATM    4  S   UNK N   1      -2.778  -1.835   0.285  0.00  0.00    -0.092 SA
HETATM    5  C   UNK N   1      -0.993  -1.720   0.424  0.00  0.00     0.151 C 
HETATM    6  N   UNK N   1      -0.178  -2.706   0.398  0.00  0.00    -0.274 N 
ATOM      7  HN  UNK N   1       0.817  -2.536   0.548  1.00  0.00     0.180 HD
HETATM    8  C   UNK N   1      -0.612  -3.975   0.176  0.00  0.00     0.183 C 
HETATM    9  N   UNK N   1      -1.000  -5.039  -0.014  0.00  0.00    -0.172 NA
ENDROOT
BRANCH   1  10
HETATM   10  C   UNK N   1       0.887  -0.402  -0.211  0.00  0.00     0.165 C 
BRANCH  10  11
HETATM   11  C   UNK N   1       1.327   0.960  -0.121  0.00  0.00    -0.025 A 
HETATM   12  C   UNK N   1       2.665   1.239   0.015  0.00  0.00     0.013 A 
HETATM   13  C   UNK N   1       3.035   2.570   0.094  0.00  0.00     0.043 A 
HETATM   14  C   UNK N   1       2.045   3.567   0.031  0.00  0.00     0.103 A 
HETATM   15  N   UNK N   1       0.748   3.255  -0.095  0.00  0.00    -0.356 N 
HETATM   16 Cl   UNK N   1       2.455   5.225   0.081  0.00  0.00    -0.065 Cl
HETATM   17  C   UNK N   1       0.390   1.985  -0.166  0.00  0.00     0.098 A 
ATOM     18  HN  UNK N   1       0.043   3.991  -0.137  1.00  0.00     0.166 HD
ENDBRANCH  10  11
ENDBRANCH   1  10
TORSDOF 2
