REMARK  8 active torsions:
REMARK  status: ('A' for Active; 'I' for Inactive)
REMARK    1  A    between atoms: C_1  and  C_4 
REMARK       I    between atoms: C_4  and  N_6 
REMARK    2  A    between atoms: C_7  and  N_6 
REMARK    3  A    between atoms: C_7  and  C_8 
REMARK    4  A    between atoms: C_7  and  C_10 
REMARK    5  A    between atoms: C_8  and  O_9 
REMARK    6  A    between atoms: C_10  and  O_11 
REMARK    7  A    between atoms: C_10  and  C_12 
REMARK    8  A    between atoms: C_15  and  S_21 
ROOT
HETATM    1  C   UNK N   1      -4.521  22.047  -0.068  0.00  0.00     0.176 C 
ENDROOT
BRANCH   1   2
HETATM    2  C   UNK N   1      -5.720  21.078  -0.200  0.00  0.00     0.141 C 
BRANCH   2   3
HETATM    3  N   UNK N   1      -6.952  21.837  -0.247  0.00  0.00    -0.349 N 
HETATM    4  C   UNK N   1      -8.145  21.332   0.170  0.00  0.00     0.251 C 
HETATM    5  O   UNK N   1      -8.208  20.207   0.643  0.00  0.00    -0.271 OA
HETATM    6  H   UNK N   1      -6.926  22.757  -0.597  0.00  0.00     0.163 HD
BRANCH   4   7
HETATM    7  C   UNK N   1      -9.398  22.154   0.073  0.00  0.00     0.269 C 
HETATM    8 Cl   UNK N   1     -10.608  21.304  -0.921  0.00  0.00    -0.098 Cl
HETATM    9 Cl   UNK N   1      -9.116  23.778  -0.614  0.00  0.00    -0.098 Cl
ENDBRANCH   4   7
ENDBRANCH   2   3
BRANCH   2  10
HETATM   10  C   UNK N   1      -5.642  20.223  -1.473  0.00  0.00     0.192 C 
BRANCH  10  11
HETATM   11  O   UNK N   1      -4.609  19.285  -1.409  0.00  0.00    -0.399 OA
HETATM   12  H   UNK N   1      -4.814  18.338  -1.363  0.00  0.00     0.209 HD
ENDBRANCH  10  11
ENDBRANCH   2  10
ENDBRANCH   1   2
BRANCH   1  13
HETATM   13  O   UNK N   1      -4.693  22.880   1.042  0.00  0.00    -0.389 OA
HETATM   14  H   UNK N   1      -4.253  23.272   1.812  0.00  0.00     0.210 HD
ENDBRANCH   1  13
BRANCH   1  15
HETATM   15  C   UNK N   1      -3.242  21.270   0.090  0.00  0.00    -0.028 A 
HETATM   16  C   UNK N   1      -2.292  21.269  -0.936  0.00  0.00     0.011 A 
HETATM   17  C   UNK N   1      -1.185  20.424  -0.863  0.00  0.00     0.024 A 
HETATM   18  C   UNK N   1      -0.984  19.586   0.278  0.00  0.00     0.058 A 
HETATM   19  C   UNK N   1      -1.933  19.628   1.310  0.00  0.00     0.024 A 
HETATM   20  C   UNK N   1      -3.050  20.457   1.216  0.00  0.00     0.011 A 
BRANCH  18  21
HETATM   21  S   UNK N   1       0.326  18.289   0.398  0.00  0.00     0.171 S 
HETATM   22  O   UNK N   1       1.288  18.469  -0.785  0.00  0.00    -0.223 OA
HETATM   23  O   UNK N   1      -0.602  17.855  -0.751  0.00  0.00    -0.223 OA
HETATM   24  C   UNK N   1       1.081  19.945   0.545  0.00  0.00     0.167 C 
ENDBRANCH  18  21
ENDBRANCH   1  15
TORSDOF 8
