MODEL 1
REMARK VINA RESULT:      -6.2      0.000      0.000
REMARK  8 active torsions:
REMARK  status: ('A' for Active; 'I' for Inactive)
REMARK    1  A    between atoms: C_1  and  C_4 
REMARK       I    between atoms: C_4  and  N_6 
REMARK    2  A    between atoms: C_7  and  N_6 
REMARK    3  A    between atoms: C_7  and  C_8 
REMARK    4  A    between atoms: C_7  and  C_10 
REMARK    5  A    between atoms: C_8  and  O_9 
REMARK    6  A    between atoms: C_10  and  O_11 
REMARK    7  A    between atoms: C_10  and  C_12 
REMARK    8  A    between atoms: C_15  and  S_21 
ROOT
HETATM    1  C   UNK N   1      28.149  18.311   7.914  0.00  0.00     0.176 C 
ENDROOT
BRANCH   1   2
HETATM    2  C   UNK N   1      27.716  19.019   6.608  0.00  0.00     0.141 C 
BRANCH   2   3
HETATM    3  N   UNK N   1      26.615  18.294   6.008  0.00  0.00    -0.349 N 
HETATM    4  C   UNK N   1      26.641  17.847   4.723  0.00  0.00     0.251 C 
HETATM    5  O   UNK N   1      27.633  18.016   4.030  0.00  0.00    -0.271 OA
HETATM    6  H   UNK N   1      25.814  18.118   6.553  0.00  0.00     0.163 HD
BRANCH   4   7
HETATM    7  C   UNK N   1      25.460  17.124   4.142  0.00  0.00     0.269 C 
HETATM    8 Cl   UNK N   1      25.923  16.329   2.617  0.00  0.00    -0.098 Cl
HETATM    9 Cl   UNK N   1      24.065  18.197   3.840  0.00  0.00    -0.098 Cl
ENDBRANCH   4   7
ENDBRANCH   2   3
BRANCH   2  10
HETATM   10  C   UNK N   1      27.254  20.463   6.853  0.00  0.00     0.192 C 
BRANCH  10  11
HETATM   11  O   UNK N   1      26.323  20.544   7.891  0.00  0.00    -0.399 OA
HETATM   12  H   UNK N   1      25.387  20.705   7.694  0.00  0.00     0.209 HD
ENDBRANCH  10  11
ENDBRANCH   2  10
ENDBRANCH   1   2
BRANCH   1  13
HETATM   13  O   UNK N   1      27.342  17.194   8.150  0.00  0.00    -0.389 OA
HETATM   14  H   UNK N   1      26.483  16.785   7.960  0.00  0.00     0.210 HD
ENDBRANCH   1  13
BRANCH   1  15
HETATM   15  C   UNK N   1      29.585  17.871   7.813  0.00  0.00    -0.028 A 
HETATM   16  C   UNK N   1      30.505  18.252   8.794  0.00  0.00     0.011 A 
HETATM   17  C   UNK N   1      31.863  17.985   8.620  0.00  0.00     0.024 A 
HETATM   18  C   UNK N   1      32.324  17.282   7.464  0.00  0.00     0.058 A 
HETATM   19  C   UNK N   1      31.378  16.881   6.508  0.00  0.00     0.024 A 
HETATM   20  C   UNK N   1      30.026  17.174   6.679  0.00  0.00     0.011 A 
BRANCH  18  21
HETATM   21  S   UNK N   1      34.104  17.049   7.029  0.00  0.00     0.171 S 
HETATM   22  O   UNK N   1      34.848  18.355   7.340  0.00  0.00    -0.223 OA
HETATM   23  O   UNK N   1      33.509  17.947   5.929  0.00  0.00    -0.223 OA
HETATM   24  C   UNK N   1      33.942  17.365   8.820  0.00  0.00     0.167 C 
ENDBRANCH  18  21
ENDBRANCH   1  15
TORSDOF 8
ENDMDL
MODEL 2
REMARK VINA RESULT:      -6.1      7.578     10.561
REMARK  8 active torsions:
REMARK  status: ('A' for Active; 'I' for Inactive)
REMARK    1  A    between atoms: C_1  and  C_4 
REMARK       I    between atoms: C_4  and  N_6 
REMARK    2  A    between atoms: C_7  and  N_6 
REMARK    3  A    between atoms: C_7  and  C_8 
REMARK    4  A    between atoms: C_7  and  C_10 
REMARK    5  A    between atoms: C_8  and  O_9 
REMARK    6  A    between atoms: C_10  and  O_11 
REMARK    7  A    between atoms: C_10  and  C_12 
REMARK    8  A    between atoms: C_15  and  S_21 
ROOT
HETATM    1  C   UNK N   1      35.329  12.982  10.995  0.00  0.00     0.176 C 
ENDROOT
BRANCH   1   2
HETATM    2  C   UNK N   1      36.581  13.272  11.856  0.00  0.00     0.141 C 
BRANCH   2   3
HETATM    3  N   UNK N   1      36.366  12.781  13.201  0.00  0.00    -0.349 N 
HETATM    4  C   UNK N   1      36.409  13.588  14.296  0.00  0.00     0.251 C 
HETATM    5  O   UNK N   1      36.600  14.789  14.171  0.00  0.00    -0.271 OA
HETATM    6  H   UNK N   1      36.182  11.822  13.330  0.00  0.00     0.163 HD
BRANCH   4   7
HETATM    7  C   UNK N   1      36.206  13.021  15.672  0.00  0.00     0.269 C 
HETATM    8 Cl   UNK N   1      36.674  11.302  15.696  0.00  0.00    -0.098 Cl
HETATM    9 Cl   UNK N   1      34.523  13.175  16.249  0.00  0.00    -0.098 Cl
ENDBRANCH   4   7
ENDBRANCH   2   3
BRANCH   2  10
HETATM   10  C   UNK N   1      37.841  12.593  11.301  0.00  0.00     0.192 C 
BRANCH  10  11
HETATM   11  O   UNK N   1      38.743  13.520  10.772  0.00  0.00    -0.399 OA
HETATM   12  H   UNK N   1      38.983  13.483   9.833  0.00  0.00     0.209 HD
ENDBRANCH  10  11
ENDBRANCH   2  10
ENDBRANCH   1   2
BRANCH   1  13
HETATM   13  O   UNK N   1      34.335  12.382  11.773  0.00  0.00    -0.389 OA
HETATM   14  H   UNK N   1      33.409  12.440  12.056  0.00  0.00     0.210 HD
ENDBRANCH   1  13
BRANCH   1  15
HETATM   15  C   UNK N   1      34.794  14.263  10.412  0.00  0.00    -0.028 A 
HETATM   16  C   UNK N   1      33.734  14.228   9.501  0.00  0.00     0.011 A 
HETATM   17  C   UNK N   1      33.345  15.391   8.837  0.00  0.00     0.024 A 
HETATM   18  C   UNK N   1      33.991  16.637   9.112  0.00  0.00     0.058 A 
HETATM   19  C   UNK N   1      35.030  16.653  10.054  0.00  0.00     0.024 A 
HETATM   20  C   UNK N   1      35.429  15.480  10.694  0.00  0.00     0.011 A 
BRANCH  18  21
HETATM   21  S   UNK N   1      33.701  18.192   8.159  0.00  0.00     0.171 S 
HETATM   22  O   UNK N   1      34.578  18.152   6.899  0.00  0.00    -0.223 OA
HETATM   23  O   UNK N   1      35.087  18.342   8.811  0.00  0.00    -0.223 OA
HETATM   24  C   UNK N   1      33.178  16.752   7.165  0.00  0.00     0.167 C 
ENDBRANCH  18  21
ENDBRANCH   1  15
TORSDOF 8
ENDMDL
MODEL 3
REMARK VINA RESULT:      -5.9      2.140      3.483
REMARK  8 active torsions:
REMARK  status: ('A' for Active; 'I' for Inactive)
REMARK    1  A    between atoms: C_1  and  C_4 
REMARK       I    between atoms: C_4  and  N_6 
REMARK    2  A    between atoms: C_7  and  N_6 
REMARK    3  A    between atoms: C_7  and  C_8 
REMARK    4  A    between atoms: C_7  and  C_10 
REMARK    5  A    between atoms: C_8  and  O_9 
REMARK    6  A    between atoms: C_10  and  O_11 
REMARK    7  A    between atoms: C_10  and  C_12 
REMARK    8  A    between atoms: C_15  and  S_21 
ROOT
HETATM    1  C   UNK N   1      29.012  16.409   4.210  0.00  0.00     0.176 C 
ENDROOT
BRANCH   1   2
HETATM    2  C   UNK N   1      27.733  16.588   5.062  0.00  0.00     0.141 C 
BRANCH   2   3
HETATM    3  N   UNK N   1      27.135  17.875   4.774  0.00  0.00    -0.349 N 
HETATM    4  C   UNK N   1      27.184  18.921   5.643  0.00  0.00     0.251 C 
HETATM    5  O   UNK N   1      27.779  18.816   6.704  0.00  0.00    -0.271 OA
HETATM    6  H   UNK N   1      26.673  17.998   3.913  0.00  0.00     0.163 HD
BRANCH   4   7
HETATM    7  C   UNK N   1      26.522  20.226   5.304  0.00  0.00     0.269 C 
HETATM    8 Cl   UNK N   1      26.612  20.516   3.548  0.00  0.00    -0.098 Cl
HETATM    9 Cl   UNK N   1      27.243  21.617   6.161  0.00  0.00    -0.098 Cl
ENDBRANCH   4   7
ENDBRANCH   2   3
BRANCH   2  10
HETATM   10  C   UNK N   1      26.684  15.504   4.776  0.00  0.00     0.192 C 
BRANCH  10  11
HETATM   11  O   UNK N   1      26.944  14.829   3.581  0.00  0.00    -0.399 OA
HETATM   12  H   UNK N   1      27.544  14.067   3.573  0.00  0.00     0.209 HD
ENDBRANCH  10  11
ENDBRANCH   2  10
ENDBRANCH   1   2
BRANCH   1  13
HETATM   13  O   UNK N   1      28.966  17.244   3.089  0.00  0.00    -0.389 OA
HETATM   14  H   UNK N   1      28.522  18.009   2.691  0.00  0.00     0.210 HD
ENDBRANCH   1  13
BRANCH   1  15
HETATM   15  C   UNK N   1      30.230  16.744   5.027  0.00  0.00    -0.028 A 
HETATM   16  C   UNK N   1      31.338  17.344   4.419  0.00  0.00     0.011 A 
HETATM   17  C   UNK N   1      32.524  17.506   5.133  0.00  0.00     0.024 A 
HETATM   18  C   UNK N   1      32.609  17.106   6.503  0.00  0.00     0.058 A 
HETATM   19  C   UNK N   1      31.475  16.538   7.102  0.00  0.00     0.024 A 
HETATM   20  C   UNK N   1      30.301  16.356   6.372  0.00  0.00     0.011 A 
BRANCH  18  21
HETATM   21  S   UNK N   1      34.173  17.086   7.486  0.00  0.00     0.171 S 
HETATM   22  O   UNK N   1      34.718  18.520   7.548  0.00  0.00    -0.223 OA
HETATM   23  O   UNK N   1      34.594  17.260   6.016  0.00  0.00    -0.223 OA
HETATM   24  C   UNK N   1      32.925  18.118   8.331  0.00  0.00     0.167 C 
ENDBRANCH  18  21
ENDBRANCH   1  15
TORSDOF 8
ENDMDL
MODEL 4
REMARK VINA RESULT:      -5.9      4.597      8.079
REMARK  8 active torsions:
REMARK  status: ('A' for Active; 'I' for Inactive)
REMARK    1  A    between atoms: C_1  and  C_4 
REMARK       I    between atoms: C_4  and  N_6 
REMARK    2  A    between atoms: C_7  and  N_6 
REMARK    3  A    between atoms: C_7  and  C_8 
REMARK    4  A    between atoms: C_7  and  C_10 
REMARK    5  A    between atoms: C_8  and  O_9 
REMARK    6  A    between atoms: C_10  and  O_11 
REMARK    7  A    between atoms: C_10  and  C_12 
REMARK    8  A    between atoms: C_15  and  S_21 
ROOT
HETATM    1  C   UNK N   1      26.918  20.009   4.497  0.00  0.00     0.176 C 
ENDROOT
BRANCH   1   2
HETATM    2  C   UNK N   1      27.201  19.361   5.874  0.00  0.00     0.141 C 
BRANCH   2   3
HETATM    3  N   UNK N   1      28.389  18.538   5.786  0.00  0.00    -0.349 N 
HETATM    4  C   UNK N   1      28.426  17.248   6.216  0.00  0.00     0.251 C 
HETATM    5  O   UNK N   1      27.421  16.718   6.667  0.00  0.00    -0.271 OA
HETATM    6  H   UNK N   1      29.206  18.930   5.400  0.00  0.00     0.163 HD
BRANCH   4   7
HETATM    7  C   UNK N   1      29.694  16.449   6.127  0.00  0.00     0.269 C 
HETATM    8 Cl   UNK N   1      30.900  17.328   5.154  0.00  0.00    -0.098 Cl
HETATM    9 Cl   UNK N   1      29.448  14.826   5.423  0.00  0.00    -0.098 Cl
ENDBRANCH   4   7
ENDBRANCH   2   3
BRANCH   2  10
HETATM   10  C   UNK N   1      27.429  20.406   6.975  0.00  0.00     0.192 C 
BRANCH  10  11
HETATM   11  O   UNK N   1      26.319  20.529   7.815  0.00  0.00    -0.399 OA
HETATM   12  H   UNK N   1      26.411  20.954   8.682  0.00  0.00     0.209 HD
ENDBRANCH  10  11
ENDBRANCH   2  10
ENDBRANCH   1   2
BRANCH   1  13
HETATM   13  O   UNK N   1      27.780  19.482   3.530  0.00  0.00    -0.389 OA
HETATM   14  H   UNK N   1      27.832  18.932   2.733  0.00  0.00     0.210 HD
ENDBRANCH   1  13
BRANCH   1  15
HETATM   15  C   UNK N   1      25.494  19.749   4.085  0.00  0.00    -0.028 A 
HETATM   16  C   UNK N   1      24.871  20.587   3.155  0.00  0.00     0.011 A 
HETATM   17  C   UNK N   1      23.508  20.450   2.894  0.00  0.00     0.024 A 
HETATM   18  C   UNK N   1      22.744  19.426   3.537  0.00  0.00     0.058 A 
HETATM   19  C   UNK N   1      23.397  18.577   4.442  0.00  0.00     0.024 A 
HETATM   20  C   UNK N   1      24.755  18.738   4.716  0.00  0.00     0.011 A 
BRANCH  18  21
HETATM   21  S   UNK N   1      20.906  19.275   3.425  0.00  0.00     0.171 S 
HETATM   22  O   UNK N   1      20.290  20.627   3.809  0.00  0.00    -0.223 OA
HETATM   23  O   UNK N   1      21.244  19.289   4.927  0.00  0.00    -0.223 OA
HETATM   24  C   UNK N   1      21.498  20.515   2.222  0.00  0.00     0.167 C 
ENDBRANCH  18  21
ENDBRANCH   1  15
TORSDOF 8
ENDMDL
MODEL 5
REMARK VINA RESULT:      -5.8      7.537      9.774
REMARK  8 active torsions:
REMARK  status: ('A' for Active; 'I' for Inactive)
REMARK    1  A    between atoms: C_1  and  C_4 
REMARK       I    between atoms: C_4  and  N_6 
REMARK    2  A    between atoms: C_7  and  N_6 
REMARK    3  A    between atoms: C_7  and  C_8 
REMARK    4  A    between atoms: C_7  and  C_10 
REMARK    5  A    between atoms: C_8  and  O_9 
REMARK    6  A    between atoms: C_10  and  O_11 
REMARK    7  A    between atoms: C_10  and  C_12 
REMARK    8  A    between atoms: C_15  and  S_21 
ROOT
HETATM    1  C   UNK N   1      35.033  13.839  10.422  0.00  0.00     0.176 C 
ENDROOT
BRANCH   1   2
HETATM    2  C   UNK N   1      35.068  14.846  11.596  0.00  0.00     0.141 C 
BRANCH   2   3
HETATM    3  N   UNK N   1      36.030  14.403  12.584  0.00  0.00    -0.349 N 
HETATM    4  C   UNK N   1      35.693  13.603  13.633  0.00  0.00     0.251 C 
HETATM    5  O   UNK N   1      34.548  13.194  13.755  0.00  0.00    -0.271 OA
HETATM    6  H   UNK N   1      36.966  14.694  12.495  0.00  0.00     0.163 HD
BRANCH   4   7
HETATM    7  C   UNK N   1      36.725  13.196  14.645  0.00  0.00     0.269 C 
HETATM    8 Cl   UNK N   1      36.091  11.882  15.666  0.00  0.00    -0.098 Cl
HETATM    9 Cl   UNK N   1      37.249  14.546  15.689  0.00  0.00    -0.098 Cl
ENDBRANCH   4   7
ENDBRANCH   2   3
BRANCH   2  10
HETATM   10  C   UNK N   1      35.471  16.256  11.143  0.00  0.00     0.192 C 
BRANCH  10  11
HETATM   11  O   UNK N   1      36.839  16.347  10.872  0.00  0.00    -0.399 OA
HETATM   12  H   UNK N   1      37.188  16.035  10.023  0.00  0.00     0.209 HD
ENDBRANCH  10  11
ENDBRANCH   2  10
ENDBRANCH   1   2
BRANCH   1  13
HETATM   13  O   UNK N   1      34.248  12.731  10.759  0.00  0.00    -0.389 OA
HETATM   14  H   UNK N   1      33.504  12.425  11.300  0.00  0.00     0.210 HD
ENDBRANCH   1  13
BRANCH   1  15
HETATM   15  C   UNK N   1      34.462  14.494   9.194  0.00  0.00    -0.028 A 
HETATM   16  C   UNK N   1      35.285  14.762   8.096  0.00  0.00     0.011 A 
HETATM   17  C   UNK N   1      34.801  15.513   7.026  0.00  0.00     0.024 A 
HETATM   18  C   UNK N   1      33.449  15.977   7.016  0.00  0.00     0.058 A 
HETATM   19  C   UNK N   1      32.631  15.669   8.113  0.00  0.00     0.024 A 
HETATM   20  C   UNK N   1      33.132  14.939   9.191  0.00  0.00     0.011 A 
BRANCH  18  21
HETATM   21  S   UNK N   1      32.757  17.140   5.758  0.00  0.00     0.171 S 
HETATM   22  O   UNK N   1      33.419  16.834   4.407  0.00  0.00    -0.223 OA
HETATM   23  O   UNK N   1      34.185  17.633   6.058  0.00  0.00    -0.223 OA
HETATM   24  C   UNK N   1      32.332  15.422   5.310  0.00  0.00     0.167 C 
ENDBRANCH  18  21
ENDBRANCH   1  15
TORSDOF 8
ENDMDL
MODEL 6
REMARK VINA RESULT:      -5.7      5.128      7.687
REMARK  8 active torsions:
REMARK  status: ('A' for Active; 'I' for Inactive)
REMARK    1  A    between atoms: C_1  and  C_4 
REMARK       I    between atoms: C_4  and  N_6 
REMARK    2  A    between atoms: C_7  and  N_6 
REMARK    3  A    between atoms: C_7  and  C_8 
REMARK    4  A    between atoms: C_7  and  C_10 
REMARK    5  A    between atoms: C_8  and  O_9 
REMARK    6  A    between atoms: C_10  and  O_11 
REMARK    7  A    between atoms: C_10  and  C_12 
REMARK    8  A    between atoms: C_15  and  S_21 
ROOT
HETATM    1  C   UNK N   1      31.694  16.245   8.452  0.00  0.00     0.176 C 
ENDROOT
BRANCH   1   2
HETATM    2  C   UNK N   1      33.097  16.897   8.416  0.00  0.00     0.141 C 
BRANCH   2   3
HETATM    3  N   UNK N   1      34.026  16.088   9.176  0.00  0.00    -0.349 N 
HETATM    4  C   UNK N   1      35.094  16.615   9.835  0.00  0.00     0.251 C 
HETATM    5  O   UNK N   1      35.286  17.822   9.835  0.00  0.00    -0.271 OA
HETATM    6  H   UNK N   1      33.880  15.115   9.217  0.00  0.00     0.163 HD
BRANCH   4   7
HETATM    7  C   UNK N   1      36.043  15.725  10.586  0.00  0.00     0.269 C 
HETATM    8 Cl   UNK N   1      36.724  14.497   9.489  0.00  0.00    -0.098 Cl
HETATM    9 Cl   UNK N   1      35.278  14.905  11.976  0.00  0.00    -0.098 Cl
ENDBRANCH   4   7
ENDBRANCH   2   3
BRANCH   2  10
HETATM   10  C   UNK N   1      33.643  17.029   6.987  0.00  0.00     0.192 C 
BRANCH  10  11
HETATM   11  O   UNK N   1      34.654  17.989   6.901  0.00  0.00    -0.399 OA
HETATM   12  H   UNK N   1      34.973  18.433   7.702  0.00  0.00     0.209 HD
ENDBRANCH  10  11
ENDBRANCH   2  10
ENDBRANCH   1   2
BRANCH   1  13
HETATM   13  O   UNK N   1      31.319  15.979   9.772  0.00  0.00    -0.389 OA
HETATM   14  H   UNK N   1      31.641  15.718  10.649  0.00  0.00     0.210 HD
ENDBRANCH   1  13
BRANCH   1  15
HETATM   15  C   UNK N   1      30.680  17.163   7.824  0.00  0.00    -0.028 A 
HETATM   16  C   UNK N   1      30.040  18.134   8.600  0.00  0.00     0.011 A 
HETATM   17  C   UNK N   1      28.986  18.874   8.064  0.00  0.00     0.024 A 
HETATM   18  C   UNK N   1      28.580  18.683   6.706  0.00  0.00     0.058 A 
HETATM   19  C   UNK N   1      29.259  17.726   5.937  0.00  0.00     0.024 A 
HETATM   20  C   UNK N   1      30.294  16.973   6.490  0.00  0.00     0.011 A 
BRANCH  18  21
HETATM   21  S   UNK N   1      27.081  19.454   5.951  0.00  0.00     0.171 S 
HETATM   22  O   UNK N   1      27.477  20.832   5.400  0.00  0.00    -0.223 OA
HETATM   23  O   UNK N   1      27.322  20.197   7.277  0.00  0.00    -0.223 OA
HETATM   24  C   UNK N   1      28.355  19.193   4.668  0.00  0.00     0.167 C 
ENDBRANCH  18  21
ENDBRANCH   1  15
TORSDOF 8
ENDMDL
MODEL 7
REMARK VINA RESULT:      -5.7     12.532     14.257
REMARK  8 active torsions:
REMARK  status: ('A' for Active; 'I' for Inactive)
REMARK    1  A    between atoms: C_1  and  C_4 
REMARK       I    between atoms: C_4  and  N_6 
REMARK    2  A    between atoms: C_7  and  N_6 
REMARK    3  A    between atoms: C_7  and  C_8 
REMARK    4  A    between atoms: C_7  and  C_10 
REMARK    5  A    between atoms: C_8  and  O_9 
REMARK    6  A    between atoms: C_10  and  O_11 
REMARK    7  A    between atoms: C_10  and  C_12 
REMARK    8  A    between atoms: C_15  and  S_21 
ROOT
HETATM    1  C   UNK N   1      25.641  23.905  -5.797  0.00  0.00     0.176 C 
ENDROOT
BRANCH   1   2
HETATM    2  C   UNK N   1      25.521  24.967  -6.917  0.00  0.00     0.141 C 
BRANCH   2   3
HETATM    3  N   UNK N   1      26.493  26.016  -6.693  0.00  0.00    -0.349 N 
HETATM    4  C   UNK N   1      26.174  27.205  -6.114  0.00  0.00     0.251 C 
HETATM    5  O   UNK N   1      25.036  27.415  -5.720  0.00  0.00    -0.271 OA
HETATM    6  H   UNK N   1      27.425  25.864  -6.975  0.00  0.00     0.163 HD
BRANCH   4   7
HETATM    7  C   UNK N   1      27.217  28.270  -5.931  0.00  0.00     0.269 C 
HETATM    8 Cl   UNK N   1      28.775  27.527  -5.493  0.00  0.00    -0.098 Cl
HETATM    9 Cl   UNK N   1      26.775  29.474  -4.688  0.00  0.00    -0.098 Cl
ENDBRANCH   4   7
ENDBRANCH   2   3
BRANCH   2  10
HETATM   10  C   UNK N   1      25.775  24.376  -8.311  0.00  0.00     0.192 C 
BRANCH  10  11
HETATM   11  O   UNK N   1      24.631  23.771  -8.837  0.00  0.00    -0.399 OA
HETATM   12  H   UNK N   1      24.445  22.837  -8.650  0.00  0.00     0.209 HD
ENDBRANCH  10  11
ENDBRANCH   2  10
ENDBRANCH   1   2
BRANCH   1  13
HETATM   13  O   UNK N   1      25.296  22.643  -6.290  0.00  0.00    -0.389 OA
HETATM   14  H   UNK N   1      24.814  22.171  -6.987  0.00  0.00     0.210 HD
ENDBRANCH   1  13
BRANCH   1  15
HETATM   15  C   UNK N   1      27.051  23.863  -5.272  0.00  0.00    -0.028 A 
HETATM   16  C   UNK N   1      28.050  23.213  -6.002  0.00  0.00     0.011 A 
HETATM   17  C   UNK N   1      29.316  23.030  -5.445  0.00  0.00     0.024 A 
HETATM   18  C   UNK N   1      29.619  23.544  -4.146  0.00  0.00     0.058 A 
HETATM   19  C   UNK N   1      28.610  24.221  -3.446  0.00  0.00     0.024 A 
HETATM   20  C   UNK N   1      27.341  24.376  -4.000  0.00  0.00     0.011 A 
BRANCH  18  21
HETATM   21  S   UNK N   1      31.184  23.193  -3.229  0.00  0.00     0.171 S 
HETATM   22  O   UNK N   1      30.824  22.886  -1.768  0.00  0.00    -0.223 OA
HETATM   23  O   UNK N   1      30.729  24.594  -2.780  0.00  0.00    -0.223 OA
HETATM   24  C   UNK N   1      30.118  21.711  -3.221  0.00  0.00     0.167 C 
ENDBRANCH  18  21
ENDBRANCH   1  15
TORSDOF 8
ENDMDL
MODEL 8
REMARK VINA RESULT:      -5.7     13.553     15.621
REMARK  8 active torsions:
REMARK  status: ('A' for Active; 'I' for Inactive)
REMARK    1  A    between atoms: C_1  and  C_4 
REMARK       I    between atoms: C_4  and  N_6 
REMARK    2  A    between atoms: C_7  and  N_6 
REMARK    3  A    between atoms: C_7  and  C_8 
REMARK    4  A    between atoms: C_7  and  C_10 
REMARK    5  A    between atoms: C_8  and  O_9 
REMARK    6  A    between atoms: C_10  and  O_11 
REMARK    7  A    between atoms: C_10  and  C_12 
REMARK    8  A    between atoms: C_15  and  S_21 
ROOT
HETATM    1  C   UNK N   1      25.567  25.647  -6.371  0.00  0.00     0.176 C 
ENDROOT
BRANCH   1   2
HETATM    2  C   UNK N   1      26.807  24.811  -6.769  0.00  0.00     0.141 C 
BRANCH   2   3
HETATM    3  N   UNK N   1      27.329  24.135  -5.600  0.00  0.00    -0.349 N 
HETATM    4  C   UNK N   1      28.560  24.398  -5.084  0.00  0.00     0.251 C 
HETATM    5  O   UNK N   1      29.266  25.262  -5.582  0.00  0.00    -0.271 OA
HETATM    6  H   UNK N   1      26.769  23.454  -5.160  0.00  0.00     0.163 HD
BRANCH   4   7
HETATM    7  C   UNK N   1      29.063  23.647  -3.885  0.00  0.00     0.269 C 
HETATM    8 Cl   UNK N   1      27.827  23.652  -2.601  0.00  0.00    -0.098 Cl
HETATM    9 Cl   UNK N   1      30.585  24.313  -3.231  0.00  0.00    -0.098 Cl
ENDBRANCH   4   7
ENDBRANCH   2   3
BRANCH   2  10
HETATM   10  C   UNK N   1      26.479  23.746  -7.825  0.00  0.00     0.192 C 
BRANCH  10  11
HETATM   11  O   UNK N   1      25.103  23.555  -7.964  0.00  0.00    -0.399 OA
HETATM   12  H   UNK N   1      24.660  23.794  -8.793  0.00  0.00     0.209 HD
ENDBRANCH  10  11
ENDBRANCH   2  10
ENDBRANCH   1   2
BRANCH   1  13
HETATM   13  O   UNK N   1      24.839  24.988  -5.375  0.00  0.00    -0.389 OA
HETATM   14  H   UNK N   1      24.320  25.108  -4.565  0.00  0.00     0.210 HD
ENDBRANCH   1  13
BRANCH   1  15
HETATM   15  C   UNK N   1      25.994  26.997  -5.862  0.00  0.00    -0.028 A 
HETATM   16  C   UNK N   1      26.966  27.729  -6.549  0.00  0.00     0.011 A 
HETATM   17  C   UNK N   1      27.481  28.901  -5.994  0.00  0.00     0.024 A 
HETATM   18  C   UNK N   1      26.988  29.391  -4.744  0.00  0.00     0.058 A 
HETATM   19  C   UNK N   1      25.989  28.657  -4.089  0.00  0.00     0.024 A 
HETATM   20  C   UNK N   1      25.500  27.473  -4.639  0.00  0.00     0.011 A 
BRANCH  18  21
HETATM   21  S   UNK N   1      27.726  30.811  -3.821  0.00  0.00     0.171 S 
HETATM   22  O   UNK N   1      27.484  30.585  -2.322  0.00  0.00    -0.223 OA
HETATM   23  O   UNK N   1      26.201  31.017  -3.777  0.00  0.00    -0.223 OA
HETATM   24  C   UNK N   1      28.571  29.262  -3.351  0.00  0.00     0.167 C 
ENDBRANCH  18  21
ENDBRANCH   1  15
TORSDOF 8
ENDMDL
MODEL 9
REMARK VINA RESULT:      -5.6     12.066     13.742
REMARK  8 active torsions:
REMARK  status: ('A' for Active; 'I' for Inactive)
REMARK    1  A    between atoms: C_1  and  C_4 
REMARK       I    between atoms: C_4  and  N_6 
REMARK    2  A    between atoms: C_7  and  N_6 
REMARK    3  A    between atoms: C_7  and  C_8 
REMARK    4  A    between atoms: C_7  and  C_10 
REMARK    5  A    between atoms: C_8  and  O_9 
REMARK    6  A    between atoms: C_10  and  O_11 
REMARK    7  A    between atoms: C_10  and  C_12 
REMARK    8  A    between atoms: C_15  and  S_21 
ROOT
HETATM    1  C   UNK N   1      25.505  24.709  -5.070  0.00  0.00     0.176 C 
ENDROOT
BRANCH   1   2
HETATM    2  C   UNK N   1      25.559  26.255  -5.116  0.00  0.00     0.141 C 
BRANCH   2   3
HETATM    3  N   UNK N   1      26.849  26.707  -4.639  0.00  0.00    -0.349 N 
HETATM    4  C   UNK N   1      26.987  27.685  -3.702  0.00  0.00     0.251 C 
HETATM    5  O   UNK N   1      26.000  28.198  -3.195  0.00  0.00    -0.271 OA
HETATM    6  H   UNK N   1      27.661  26.292  -5.009  0.00  0.00     0.163 HD
BRANCH   4   7
HETATM    7  C   UNK N   1      28.350  28.135  -3.263  0.00  0.00     0.269 C 
HETATM    8 Cl   UNK N   1      28.623  29.824  -3.763  0.00  0.00    -0.098 Cl
HETATM    9 Cl   UNK N   1      29.665  27.116  -3.913  0.00  0.00    -0.098 Cl
ENDBRANCH   4   7
ENDBRANCH   2   3
BRANCH   2  10
HETATM   10  C   UNK N   1      25.360  26.804  -6.535  0.00  0.00     0.192 C 
BRANCH  10  11
HETATM   11  O   UNK N   1      26.523  26.702  -7.302  0.00  0.00    -0.399 OA
HETATM   12  H   UNK N   1      26.497  26.267  -8.169  0.00  0.00     0.209 HD
ENDBRANCH  10  11
ENDBRANCH   2  10
ENDBRANCH   1   2
BRANCH   1  13
HETATM   13  O   UNK N   1      25.189  24.200  -6.334  0.00  0.00    -0.389 OA
HETATM   14  H   UNK N   1      25.527  24.037  -7.228  0.00  0.00     0.210 HD
ENDBRANCH   1  13
BRANCH   1  15
HETATM   15  C   UNK N   1      26.834  24.157  -4.632  0.00  0.00    -0.028 A 
HETATM   16  C   UNK N   1      27.145  24.077  -3.271  0.00  0.00     0.011 A 
HETATM   17  C   UNK N   1      28.432  23.721  -2.868  0.00  0.00     0.024 A 
HETATM   18  C   UNK N   1      29.431  23.389  -3.835  0.00  0.00     0.058 A 
HETATM   19  C   UNK N   1      29.087  23.444  -5.194  0.00  0.00     0.024 A 
HETATM   20  C   UNK N   1      27.806  23.826  -5.588  0.00  0.00     0.011 A 
BRANCH  18  21
HETATM   21  S   UNK N   1      31.211  23.098  -3.434  0.00  0.00     0.171 S 
HETATM   22  O   UNK N   1      31.284  22.346  -2.097  0.00  0.00    -0.223 OA
HETATM   23  O   UNK N   1      30.736  24.216  -2.488  0.00  0.00    -0.223 OA
HETATM   24  C   UNK N   1      30.358  21.499  -3.651  0.00  0.00     0.167 C 
ENDBRANCH  18  21
ENDBRANCH   1  15
TORSDOF 8
ENDMDL
