REMARK  7 active torsions:
REMARK  status: ('A' for Active; 'I' for Inactive)
REMARK    1  A    between atoms: N_1  and  C_8 
REMARK    2  A    between atoms: C_4  and  O_5 
REMARK    3  A    between atoms: C_4  and  C_19 
REMARK    4  A    between atoms: C_8  and  C_9 
REMARK    5  A    between atoms: C_9  and  C_10 
REMARK    6  A    between atoms: C_10  and  C_11 
REMARK    7  A    between atoms: C_11  and  C_12 
ROOT
HETATM    1  N   UNK N   1       0.944   1.284   0.339  0.00  0.00     0.088 N 
HETATM    2  C   UNK N   1       1.956   2.223   0.848  0.00  0.00     0.276 C 
HETATM    3  C   UNK N   1       3.301   1.522   1.027  0.00  0.00     0.073 C 
HETATM    4  C   UNK N   1       3.831   0.957  -0.305  0.00  0.00     0.088 C 
HETATM    5  C   UNK N   1       2.733   0.905  -1.376  0.00  0.00     0.073 C 
HETATM    6  C   UNK N   1       1.418   0.428  -0.769  0.00  0.00     0.276 C 
ENDROOT
BRANCH   1   7
HETATM    7  C   UNK N   1      -0.184   2.085  -0.123  0.00  0.00     0.272 C 
BRANCH   7   8
HETATM    8  C   UNK N   1      -1.332   1.215  -0.623  0.00  0.00     0.033 C 
BRANCH   8   9
HETATM    9  C   UNK N   1      -1.753   0.194   0.431  0.00  0.00     0.038 C 
BRANCH   9  10
HETATM   10  C   UNK N   1      -3.094  -0.472   0.095  0.00  0.00     0.083 C 
HETATM   11  S   UNK N   1      -3.412  -1.718   1.394  0.00  0.00    -0.142 SA
HETATM   12  C   UNK N   1      -2.486  -2.977   0.493  0.00  0.00     0.086 C 
HETATM   13  C   UNK N   1      -3.057  -2.993  -0.895  0.00  0.00     0.086 C 
HETATM   14  S   UNK N   1      -2.971  -1.302  -1.548  0.00  0.00    -0.142 SA
BRANCH  10  15
HETATM   15  C   UNK N   1      -4.254   0.510   0.079  0.00  0.00    -0.029 A 
HETATM   16  C   UNK N   1      -5.552   0.068  -0.231  0.00  0.00     0.012 A 
HETATM   17  C   UNK N   1      -6.619   0.970  -0.259  0.00  0.00     0.043 A 
HETATM   18  C   UNK N   1      -6.404   2.323   0.026  0.00  0.00     0.116 A 
HETATM   19  F   UNK N   1      -7.436   3.197  -0.005  0.00  0.00    -0.206 F 
HETATM   20  C   UNK N   1      -5.122   2.771   0.345  0.00  0.00     0.043 A 
HETATM   21  C   UNK N   1      -4.059   1.874   0.372  0.00  0.00     0.012 A 
ENDBRANCH  10  15
ENDBRANCH   9  10
ENDBRANCH   8   9
ENDBRANCH   7   8
ENDBRANCH   1   7
BRANCH   4  22
HETATM   22  O   UNK N   1       4.832   1.809  -0.779  0.00  0.00    -0.385 OA
HETATM   23  H   UNK N   1       5.692   1.502  -1.107  0.00  0.00     0.211 HD
ENDBRANCH   4  22
BRANCH   4  24
HETATM   24  C   UNK N   1       4.383  -0.433  -0.067  0.00  0.00    -0.024 A 
HETATM   25  C   UNK N   1       5.722  -0.736  -0.362  0.00  0.00     0.012 A 
HETATM   26  C   UNK N   1       6.216  -2.027  -0.157  0.00  0.00     0.024 A 
HETATM   27  C   UNK N   1       5.380  -3.025   0.349  0.00  0.00     0.034 A 
HETATM   28 Cl   UNK N   1       5.999  -4.642   0.599  0.00  0.00    -0.084 Cl
HETATM   29  C   UNK N   1       4.049  -2.735   0.653  0.00  0.00     0.024 A 
HETATM   30  C   UNK N   1       3.552  -1.447   0.445  0.00  0.00     0.012 A 
ENDBRANCH   4  24
TORSDOF 7
