MODEL 1
REMARK VINA RESULT:      -7.6      0.000      0.000
REMARK  7 active torsions:
REMARK  status: ('A' for Active; 'I' for Inactive)
REMARK    1  A    between atoms: N_1  and  C_8 
REMARK    2  A    between atoms: C_4  and  O_5 
REMARK    3  A    between atoms: C_4  and  C_19 
REMARK    4  A    between atoms: C_8  and  C_9 
REMARK    5  A    between atoms: C_9  and  C_10 
REMARK    6  A    between atoms: C_10  and  C_11 
REMARK    7  A    between atoms: C_11  and  C_12 
ROOT
HETATM    1  N   UNK N   1      36.717  14.060  11.039  0.00  0.00     0.088 N 
HETATM    2  C   UNK N   1      35.954  14.912  11.965  0.00  0.00     0.276 C 
HETATM    3  C   UNK N   1      35.010  15.834  11.197  0.00  0.00     0.073 C 
HETATM    4  C   UNK N   1      33.989  15.037  10.362  0.00  0.00     0.088 C 
HETATM    5  C   UNK N   1      34.402  13.566  10.214  0.00  0.00     0.073 C 
HETATM    6  C   UNK N   1      35.902  13.456   9.964  0.00  0.00     0.276 C 
ENDROOT
BRANCH   1   7
HETATM    7  C   UNK N   1      37.319  12.998  11.838  0.00  0.00     0.272 C 
BRANCH   7   8
HETATM    8  C   UNK N   1      36.908  13.086  13.303  0.00  0.00     0.033 C 
BRANCH   8   9
HETATM    9  C   UNK N   1      37.187  11.777  14.036  0.00  0.00     0.038 C 
BRANCH   9  10
HETATM   10  C   UNK N   1      35.916  11.160  14.634  0.00  0.00     0.083 C 
HETATM   11  S   UNK N   1      36.108   9.345  14.543  0.00  0.00    -0.142 SA
HETATM   12  C   UNK N   1      35.424   9.300  12.874  0.00  0.00     0.086 C 
HETATM   13  C   UNK N   1      34.120  10.040  12.943  0.00  0.00     0.086 C 
HETATM   14  S   UNK N   1      34.454  11.684  13.638  0.00  0.00    -0.142 SA
BRANCH  10  15
HETATM   15  C   UNK N   1      35.699  11.546  16.089  0.00  0.00    -0.029 A 
HETATM   16  C   UNK N   1      35.241  12.833  16.419  0.00  0.00     0.012 A 
HETATM   17  C   UNK N   1      35.053  13.196  17.756  0.00  0.00     0.043 A 
HETATM   18  C   UNK N   1      35.316  12.277  18.778  0.00  0.00     0.116 A 
HETATM   19  F   UNK N   1      35.138  12.629  20.071  0.00  0.00    -0.206 F 
HETATM   20  C   UNK N   1      35.761  10.993  18.461  0.00  0.00     0.043 A 
HETATM   21  C   UNK N   1      35.950  10.632  17.131  0.00  0.00     0.012 A 
ENDBRANCH  10  15
ENDBRANCH   9  10
ENDBRANCH   8   9
ENDBRANCH   7   8
ENDBRANCH   1   7
BRANCH   4  22
HETATM   22  O   UNK N   1      32.761  15.057  11.030  0.00  0.00    -0.385 OA
HETATM   23  H   UNK N   1      32.616  14.664  11.905  0.00  0.00     0.211 HD
ENDBRANCH   4  22
BRANCH   4  24
HETATM   24  C   UNK N   1      33.862  15.676   8.995  0.00  0.00    -0.024 A 
HETATM   25  C   UNK N   1      34.399  16.948   8.743  0.00  0.00     0.012 A 
HETATM   26  C   UNK N   1      34.260  17.537   7.483  0.00  0.00     0.024 A 
HETATM   27  C   UNK N   1      33.588  16.859   6.463  0.00  0.00     0.034 A 
HETATM   28 Cl   UNK N   1      33.409  17.600   4.889  0.00  0.00    -0.084 Cl
HETATM   29  C   UNK N   1      33.056  15.590   6.699  0.00  0.00     0.024 A 
HETATM   30  C   UNK N   1      33.190  15.002   7.958  0.00  0.00     0.012 A 
ENDBRANCH   4  24
TORSDOF 7
ENDMDL
MODEL 2
REMARK VINA RESULT:      -7.6      7.550     11.306
REMARK  7 active torsions:
REMARK  status: ('A' for Active; 'I' for Inactive)
REMARK    1  A    between atoms: N_1  and  C_8 
REMARK    2  A    between atoms: C_4  and  O_5 
REMARK    3  A    between atoms: C_4  and  C_19 
REMARK    4  A    between atoms: C_8  and  C_9 
REMARK    5  A    between atoms: C_9  and  C_10 
REMARK    6  A    between atoms: C_10  and  C_11 
REMARK    7  A    between atoms: C_11  and  C_12 
ROOT
HETATM    1  N   UNK N   1      27.860  18.536   7.486  0.00  0.00     0.088 N 
HETATM    2  C   UNK N   1      28.140  17.339   6.677  0.00  0.00     0.276 C 
HETATM    3  C   UNK N   1      27.225  17.287   5.455  0.00  0.00     0.073 C 
HETATM    4  C   UNK N   1      27.423  18.513   4.542  0.00  0.00     0.088 C 
HETATM    5  C   UNK N   1      28.189  19.634   5.257  0.00  0.00     0.073 C 
HETATM    6  C   UNK N   1      27.708  19.776   6.697  0.00  0.00     0.276 C 
ENDROOT
BRANCH   1   7
HETATM    7  C   UNK N   1      28.975  18.691   8.413  0.00  0.00     0.272 C 
BRANCH   7   8
HETATM    8  C   UNK N   1      29.903  17.482   8.395  0.00  0.00     0.033 C 
BRANCH   8   9
HETATM    9  C   UNK N   1      31.366  17.908   8.311  0.00  0.00     0.038 C 
BRANCH   9  10
HETATM   10  C   UNK N   1      32.237  16.864   7.599  0.00  0.00     0.083 C 
HETATM   11  S   UNK N   1      32.349  15.415   8.707  0.00  0.00    -0.142 SA
HETATM   12  C   UNK N   1      33.773  16.112   9.568  0.00  0.00     0.086 C 
HETATM   13  C   UNK N   1      34.762  16.476   8.500  0.00  0.00     0.086 C 
HETATM   14  S   UNK N   1      33.921  17.563   7.315  0.00  0.00    -0.142 SA
BRANCH  10  15
HETATM   15  C   UNK N   1      31.650  16.409   6.273  0.00  0.00    -0.029 A 
HETATM   16  C   UNK N   1      31.073  15.133   6.155  0.00  0.00     0.012 A 
HETATM   17  C   UNK N   1      30.543  14.706   4.935  0.00  0.00     0.043 A 
HETATM   18  C   UNK N   1      30.578  15.549   3.819  0.00  0.00     0.116 A 
HETATM   19  F   UNK N   1      30.068  15.134   2.636  0.00  0.00    -0.206 F 
HETATM   20  C   UNK N   1      31.139  16.822   3.927  0.00  0.00     0.043 A 
HETATM   21  C   UNK N   1      31.668  17.247   5.141  0.00  0.00     0.012 A 
ENDBRANCH  10  15
ENDBRANCH   9  10
ENDBRANCH   8   9
ENDBRANCH   7   8
ENDBRANCH   1   7
BRANCH   4  22
HETATM   22  O   UNK N   1      28.189  18.124   3.441  0.00  0.00    -0.385 OA
HETATM   23  H   UNK N   1      29.153  18.225   3.390  0.00  0.00     0.211 HD
ENDBRANCH   4  22
BRANCH   4  24
HETATM   24  C   UNK N   1      26.067  19.020   4.096  0.00  0.00    -0.024 A 
HETATM   25  C   UNK N   1      24.886  18.419   4.559  0.00  0.00     0.012 A 
HETATM   26  C   UNK N   1      23.641  18.883   4.126  0.00  0.00     0.024 A 
HETATM   27  C   UNK N   1      23.564  19.952   3.231  0.00  0.00     0.034 A 
HETATM   28 Cl   UNK N   1      22.004  20.526   2.685  0.00  0.00    -0.084 Cl
HETATM   29  C   UNK N   1      24.731  20.563   2.768  0.00  0.00     0.024 A 
HETATM   30  C   UNK N   1      25.976  20.099   3.197  0.00  0.00     0.012 A 
ENDBRANCH   4  24
TORSDOF 7
ENDMDL
MODEL 3
REMARK VINA RESULT:      -7.5      1.885      2.431
REMARK  7 active torsions:
REMARK  status: ('A' for Active; 'I' for Inactive)
REMARK    1  A    between atoms: N_1  and  C_8 
REMARK    2  A    between atoms: C_4  and  O_5 
REMARK    3  A    between atoms: C_4  and  C_19 
REMARK    4  A    between atoms: C_8  and  C_9 
REMARK    5  A    between atoms: C_9  and  C_10 
REMARK    6  A    between atoms: C_10  and  C_11 
REMARK    7  A    between atoms: C_11  and  C_12 
ROOT
HETATM    1  N   UNK N   1      35.085  12.992  10.251  0.00  0.00     0.088 N 
HETATM    2  C   UNK N   1      36.333  13.743  10.458  0.00  0.00     0.276 C 
HETATM    3  C   UNK N   1      36.399  14.948   9.523  0.00  0.00     0.073 C 
HETATM    4  C   UNK N   1      35.233  15.925   9.768  0.00  0.00     0.088 C 
HETATM    5  C   UNK N   1      34.118  15.278  10.602  0.00  0.00     0.073 C 
HETATM    6  C   UNK N   1      33.879  13.841  10.150  0.00  0.00     0.276 C 
ENDROOT
BRANCH   1   7
HETATM    7  C   UNK N   1      34.941  12.088  11.387  0.00  0.00     0.272 C 
BRANCH   7   8
HETATM    8  C   UNK N   1      35.571  12.659  12.652  0.00  0.00     0.033 C 
BRANCH   8   9
HETATM    9  C   UNK N   1      34.863  12.147  13.904  0.00  0.00     0.038 C 
BRANCH   9  10
HETATM   10  C   UNK N   1      35.835  11.905  15.066  0.00  0.00     0.083 C 
HETATM   11  S   UNK N   1      37.457  11.494  14.329  0.00  0.00    -0.142 SA
HETATM   12  C   UNK N   1      37.033   9.743  14.232  0.00  0.00     0.086 C 
HETATM   13  C   UNK N   1      36.572   9.355  15.606  0.00  0.00     0.086 C 
HETATM   14  S   UNK N   1      35.234  10.486  16.081  0.00  0.00    -0.142 SA
BRANCH  10  15
HETATM   15  C   UNK N   1      36.008  13.125  15.956  0.00  0.00    -0.029 A 
HETATM   16  C   UNK N   1      35.252  13.256  17.133  0.00  0.00     0.012 A 
HETATM   17  C   UNK N   1      35.399  14.382  17.948  0.00  0.00     0.043 A 
HETATM   18  C   UNK N   1      36.306  15.389  17.598  0.00  0.00     0.116 A 
HETATM   19  F   UNK N   1      36.445  16.481  18.384  0.00  0.00    -0.206 F 
HETATM   20  C   UNK N   1      37.069  15.265  16.437  0.00  0.00     0.043 A 
HETATM   21  C   UNK N   1      36.922  14.144  15.626  0.00  0.00     0.012 A 
ENDBRANCH  10  15
ENDBRANCH   9  10
ENDBRANCH   8   9
ENDBRANCH   7   8
ENDBRANCH   1   7
BRANCH   4  22
HETATM   22  O   UNK N   1      35.715  17.015  10.497  0.00  0.00    -0.385 OA
HETATM   23  H   UNK N   1      35.147  17.643  10.970  0.00  0.00     0.211 HD
ENDBRANCH   4  22
BRANCH   4  24
HETATM   24  C   UNK N   1      34.679  16.379   8.434  0.00  0.00    -0.024 A 
HETATM   25  C   UNK N   1      33.878  17.528   8.341  0.00  0.00     0.012 A 
HETATM   26  C   UNK N   1      33.356  17.928   7.107  0.00  0.00     0.024 A 
HETATM   27  C   UNK N   1      33.634  17.187   5.956  0.00  0.00     0.034 A 
HETATM   28 Cl   UNK N   1      32.975  17.685   4.414  0.00  0.00    -0.084 Cl
HETATM   29  C   UNK N   1      34.435  16.046   6.034  0.00  0.00     0.024 A 
HETATM   30  C   UNK N   1      34.954  15.643   7.266  0.00  0.00     0.012 A 
ENDBRANCH   4  24
TORSDOF 7
ENDMDL
MODEL 4
REMARK VINA RESULT:      -7.5      6.729      9.715
REMARK  7 active torsions:
REMARK  status: ('A' for Active; 'I' for Inactive)
REMARK    1  A    between atoms: N_1  and  C_8 
REMARK    2  A    between atoms: C_4  and  O_5 
REMARK    3  A    between atoms: C_4  and  C_19 
REMARK    4  A    between atoms: C_8  and  C_9 
REMARK    5  A    between atoms: C_9  and  C_10 
REMARK    6  A    between atoms: C_10  and  C_11 
REMARK    7  A    between atoms: C_11  and  C_12 
ROOT
HETATM    1  N   UNK N   1      27.984  18.077   7.434  0.00  0.00     0.088 N 
HETATM    2  C   UNK N   1      28.226  16.917   6.561  0.00  0.00     0.276 C 
HETATM    3  C   UNK N   1      27.306  16.957   5.343  0.00  0.00     0.073 C 
HETATM    4  C   UNK N   1      27.538  18.223   4.495  0.00  0.00     0.088 C 
HETATM    5  C   UNK N   1      28.339  19.282   5.264  0.00  0.00     0.073 C 
HETATM    6  C   UNK N   1      27.867  19.362   6.711  0.00  0.00     0.276 C 
ENDROOT
BRANCH   1   7
HETATM    7  C   UNK N   1      29.106  18.151   8.363  0.00  0.00     0.272 C 
BRANCH   7   8
HETATM    8  C   UNK N   1      30.175  17.112   8.046  0.00  0.00     0.033 C 
BRANCH   8   9
HETATM    9  C   UNK N   1      31.577  17.672   8.275  0.00  0.00     0.038 C 
BRANCH   9  10
HETATM   10  C   UNK N   1      32.675  16.672   7.889  0.00  0.00     0.083 C 
HETATM   11  S   UNK N   1      33.725  17.489   6.636  0.00  0.00    -0.142 SA
HETATM   12  C   UNK N   1      32.655  16.933   5.294  0.00  0.00     0.086 C 
HETATM   13  C   UNK N   1      32.502  15.451   5.477  0.00  0.00     0.086 C 
HETATM   14  S   UNK N   1      31.901  15.162   7.165  0.00  0.00    -0.142 SA
BRANCH  10  15
HETATM   15  C   UNK N   1      33.553  16.275   9.065  0.00  0.00    -0.029 A 
HETATM   16  C   UNK N   1      34.606  17.111   9.476  0.00  0.00     0.012 A 
HETATM   17  C   UNK N   1      35.423  16.744  10.549  0.00  0.00     0.043 A 
HETATM   18  C   UNK N   1      35.197  15.540  11.226  0.00  0.00     0.116 A 
HETATM   19  F   UNK N   1      35.991  15.183  12.261  0.00  0.00    -0.206 F 
HETATM   20  C   UNK N   1      34.149  14.708  10.832  0.00  0.00     0.043 A 
HETATM   21  C   UNK N   1      33.336  15.072   9.764  0.00  0.00     0.012 A 
ENDBRANCH  10  15
ENDBRANCH   9  10
ENDBRANCH   8   9
ENDBRANCH   7   8
ENDBRANCH   1   7
BRANCH   4  22
HETATM   22  O   UNK N   1      28.289  17.870   3.371  0.00  0.00    -0.385 OA
HETATM   23  H   UNK N   1      28.165  18.263   2.493  0.00  0.00     0.211 HD
ENDBRANCH   4  22
BRANCH   4  24
HETATM   24  C   UNK N   1      26.197  18.793   4.082  0.00  0.00    -0.024 A 
HETATM   25  C   UNK N   1      25.001  18.140   4.424  0.00  0.00     0.012 A 
HETATM   26  C   UNK N   1      23.770  18.664   4.021  0.00  0.00     0.024 A 
HETATM   27  C   UNK N   1      23.721  19.847   3.278  0.00  0.00     0.034 A 
HETATM   28 Cl   UNK N   1      22.179  20.497   2.770  0.00  0.00    -0.084 Cl
HETATM   29  C   UNK N   1      24.902  20.509   2.938  0.00  0.00     0.024 A 
HETATM   30  C   UNK N   1      26.133  19.985   3.336  0.00  0.00     0.012 A 
ENDBRANCH   4  24
TORSDOF 7
ENDMDL
MODEL 5
REMARK VINA RESULT:      -7.4      1.859      2.617
REMARK  7 active torsions:
REMARK  status: ('A' for Active; 'I' for Inactive)
REMARK    1  A    between atoms: N_1  and  C_8 
REMARK    2  A    between atoms: C_4  and  O_5 
REMARK    3  A    between atoms: C_4  and  C_19 
REMARK    4  A    between atoms: C_8  and  C_9 
REMARK    5  A    between atoms: C_9  and  C_10 
REMARK    6  A    between atoms: C_10  and  C_11 
REMARK    7  A    between atoms: C_11  and  C_12 
ROOT
HETATM    1  N   UNK N   1      34.848  14.174   9.623  0.00  0.00     0.088 N 
HETATM    2  C   UNK N   1      34.553  15.431  10.329  0.00  0.00     0.276 C 
HETATM    3  C   UNK N   1      33.900  16.440   9.386  0.00  0.00     0.073 C 
HETATM    4  C   UNK N   1      32.569  15.911   8.819  0.00  0.00     0.088 C 
HETATM    5  C   UNK N   1      32.422  14.398   9.034  0.00  0.00     0.073 C 
HETATM    6  C   UNK N   1      33.745  13.690   8.766  0.00  0.00     0.276 C 
ENDROOT
BRANCH   1   7
HETATM    7  C   UNK N   1      35.138  13.172  10.643  0.00  0.00     0.272 C 
BRANCH   7   8
HETATM    8  C   UNK N   1      35.192  13.782  12.039  0.00  0.00     0.033 C 
BRANCH   8   9
HETATM    9  C   UNK N   1      36.496  13.427  12.749  0.00  0.00     0.038 C 
BRANCH   9  10
HETATM   10  C   UNK N   1      36.258  12.683  14.070  0.00  0.00     0.083 C 
HETATM   11  S   UNK N   1      37.599  11.453  14.240  0.00  0.00    -0.142 SA
HETATM   12  C   UNK N   1      36.669  10.224  13.303  0.00  0.00     0.086 C 
HETATM   13  C   UNK N   1      35.319  10.144  13.956  0.00  0.00     0.086 C 
HETATM   14  S   UNK N   1      34.628  11.821  14.002  0.00  0.00    -0.142 SA
BRANCH  10  15
HETATM   15  C   UNK N   1      36.293  13.601  15.280  0.00  0.00    -0.029 A 
HETATM   16  C   UNK N   1      37.132  14.730  15.289  0.00  0.00     0.012 A 
HETATM   17  C   UNK N   1      37.177  15.570  16.405  0.00  0.00     0.043 A 
HETATM   18  C   UNK N   1      36.383  15.295  17.524  0.00  0.00     0.116 A 
HETATM   19  F   UNK N   1      36.429  16.106  18.606  0.00  0.00    -0.206 F 
HETATM   20  C   UNK N   1      35.540  14.184  17.523  0.00  0.00     0.043 A 
HETATM   21  C   UNK N   1      35.495  13.347  16.413  0.00  0.00     0.012 A 
ENDBRANCH  10  15
ENDBRANCH   9  10
ENDBRANCH   8   9
ENDBRANCH   7   8
ENDBRANCH   1   7
BRANCH   4  22
HETATM   22  O   UNK N   1      31.520  16.531   9.503  0.00  0.00    -0.385 OA
HETATM   23  H   UNK N   1      30.872  17.116   9.081  0.00  0.00     0.211 HD
ENDBRANCH   4  22
BRANCH   4  24
HETATM   24  C   UNK N   1      32.502  16.229   7.339  0.00  0.00    -0.024 A 
HETATM   25  C   UNK N   1      31.492  15.682   6.531  0.00  0.00     0.012 A 
HETATM   26  C   UNK N   1      31.451  15.967   5.163  0.00  0.00     0.024 A 
HETATM   27  C   UNK N   1      32.414  16.802   4.592  0.00  0.00     0.034 A 
HETATM   28 Cl   UNK N   1      32.364  17.151   2.879  0.00  0.00    -0.084 Cl
HETATM   29  C   UNK N   1      33.418  17.357   5.386  0.00  0.00     0.024 A 
HETATM   30  C   UNK N   1      33.464  17.071   6.752  0.00  0.00     0.012 A 
ENDBRANCH   4  24
TORSDOF 7
ENDMDL
MODEL 6
REMARK VINA RESULT:      -7.4      1.691      1.966
REMARK  7 active torsions:
REMARK  status: ('A' for Active; 'I' for Inactive)
REMARK    1  A    between atoms: N_1  and  C_8 
REMARK    2  A    between atoms: C_4  and  O_5 
REMARK    3  A    between atoms: C_4  and  C_19 
REMARK    4  A    between atoms: C_8  and  C_9 
REMARK    5  A    between atoms: C_9  and  C_10 
REMARK    6  A    between atoms: C_10  and  C_11 
REMARK    7  A    between atoms: C_11  and  C_12 
ROOT
HETATM    1  N   UNK N   1      35.277  14.323  12.181  0.00  0.00     0.088 N 
HETATM    2  C   UNK N   1      35.411  13.342  11.093  0.00  0.00     0.276 C 
HETATM    3  C   UNK N   1      34.548  13.740   9.898  0.00  0.00     0.073 C 
HETATM    4  C   UNK N   1      34.960  15.112   9.329  0.00  0.00     0.088 C 
HETATM    5  C   UNK N   1      35.854  15.886  10.308  0.00  0.00     0.073 C 
HETATM    6  C   UNK N   1      35.341  15.731  11.735  0.00  0.00     0.276 C 
ENDROOT
BRANCH   1   7
HETATM    7  C   UNK N   1      36.364  14.068  13.120  0.00  0.00     0.272 C 
BRANCH   7   8
HETATM    8  C   UNK N   1      36.741  12.591  13.164  0.00  0.00     0.033 C 
BRANCH   8   9
HETATM    9  C   UNK N   1      37.245  12.190  14.548  0.00  0.00     0.038 C 
BRANCH   9  10
HETATM   10  C   UNK N   1      36.269  11.255  15.276  0.00  0.00     0.083 C 
HETATM   11  S   UNK N   1      37.147   9.676  15.552  0.00  0.00    -0.142 SA
HETATM   12  C   UNK N   1      36.646   9.049  13.936  0.00  0.00     0.086 C 
HETATM   13  C   UNK N   1      35.157   9.224  13.871  0.00  0.00     0.086 C 
HETATM   14  S   UNK N   1      34.789  10.968  14.213  0.00  0.00    -0.142 SA
BRANCH  10  15
HETATM   15  C   UNK N   1      35.825  11.798  16.624  0.00  0.00    -0.029 A 
HETATM   16  C   UNK N   1      35.433  13.142  16.752  0.00  0.00     0.012 A 
HETATM   17  C   UNK N   1      35.035  13.648  17.993  0.00  0.00     0.043 A 
HETATM   18  C   UNK N   1      35.021  12.819  19.119  0.00  0.00     0.116 A 
HETATM   19  F   UNK N   1      34.641  13.309  20.321  0.00  0.00    -0.206 F 
HETATM   20  C   UNK N   1      35.399  11.481  19.002  0.00  0.00     0.043 A 
HETATM   21  C   UNK N   1      35.795  10.976  17.768  0.00  0.00     0.012 A 
ENDBRANCH  10  15
ENDBRANCH   9  10
ENDBRANCH   8   9
ENDBRANCH   7   8
ENDBRANCH   1   7
BRANCH   4  22
HETATM   22  O   UNK N   1      35.705  14.901   8.166  0.00  0.00    -0.385 OA
HETATM   23  H   UNK N   1      35.347  14.493   7.362  0.00  0.00     0.211 HD
ENDBRANCH   4  22
BRANCH   4  24
HETATM   24  C   UNK N   1      33.713  15.916   9.026  0.00  0.00    -0.024 A 
HETATM   25  C   UNK N   1      33.803  17.258   8.623  0.00  0.00     0.012 A 
HETATM   26  C   UNK N   1      32.645  17.997   8.364  0.00  0.00     0.024 A 
HETATM   27  C   UNK N   1      31.389  17.401   8.499  0.00  0.00     0.034 A 
HETATM   28 Cl   UNK N   1      29.941  18.329   8.181  0.00  0.00    -0.084 Cl
HETATM   29  C   UNK N   1      31.287  16.065   8.891  0.00  0.00     0.024 A 
HETATM   30  C   UNK N   1      32.442  15.327   9.155  0.00  0.00     0.012 A 
ENDBRANCH   4  24
TORSDOF 7
ENDMDL
MODEL 7
REMARK VINA RESULT:      -7.3      2.643      3.525
REMARK  7 active torsions:
REMARK  status: ('A' for Active; 'I' for Inactive)
REMARK    1  A    between atoms: N_1  and  C_8 
REMARK    2  A    between atoms: C_4  and  O_5 
REMARK    3  A    between atoms: C_4  and  C_19 
REMARK    4  A    between atoms: C_8  and  C_9 
REMARK    5  A    between atoms: C_9  and  C_10 
REMARK    6  A    between atoms: C_10  and  C_11 
REMARK    7  A    between atoms: C_11  and  C_12 
ROOT
HETATM    1  N   UNK N   1      34.901  15.143   9.258  0.00  0.00     0.088 N 
HETATM    2  C   UNK N   1      35.069  15.047   7.800  0.00  0.00     0.276 C 
HETATM    3  C   UNK N   1      33.873  15.662   7.076  0.00  0.00     0.073 C 
HETATM    4  C   UNK N   1      33.706  17.155   7.420  0.00  0.00     0.088 C 
HETATM    5  C   UNK N   1      34.524  17.548   8.657  0.00  0.00     0.073 C 
HETATM    6  C   UNK N   1      34.429  16.464   9.725  0.00  0.00     0.276 C 
ENDROOT
BRANCH   1   7
HETATM    7  C   UNK N   1      36.201  14.860   9.855  0.00  0.00     0.272 C 
BRANCH   7   8
HETATM    8  C   UNK N   1      36.109  14.702  11.369  0.00  0.00     0.033 C 
BRANCH   8   9
HETATM    9  C   UNK N   1      35.059  13.663  11.755  0.00  0.00     0.038 C 
BRANCH   9  10
HETATM   10  C   UNK N   1      35.623  12.582  12.687  0.00  0.00     0.083 C 
HETATM   11  S   UNK N   1      37.344  12.265  12.157  0.00  0.00    -0.142 SA
HETATM   12  C   UNK N   1      36.806  11.037  10.950  0.00  0.00     0.086 C 
HETATM   13  C   UNK N   1      35.930  10.078  11.701  0.00  0.00     0.086 C 
HETATM   14  S   UNK N   1      34.624  11.041  12.513  0.00  0.00    -0.142 SA
BRANCH  10  15
HETATM   15  C   UNK N   1      35.642  13.010  14.145  0.00  0.00    -0.029 A 
HETATM   16  C   UNK N   1      34.598  12.634  15.007  0.00  0.00     0.012 A 
HETATM   17  C   UNK N   1      34.605  13.036  16.346  0.00  0.00     0.043 A 
HETATM   18  C   UNK N   1      35.658  13.814  16.840  0.00  0.00     0.116 A 
HETATM   19  F   UNK N   1      35.663  14.207  18.135  0.00  0.00    -0.206 F 
HETATM   20  C   UNK N   1      36.705  14.185  15.996  0.00  0.00     0.043 A 
HETATM   21  C   UNK N   1      36.697  13.786  14.664  0.00  0.00     0.012 A 
ENDBRANCH  10  15
ENDBRANCH   9  10
ENDBRANCH   8   9
ENDBRANCH   7   8
ENDBRANCH   1   7
BRANCH   4  22
HETATM   22  O   UNK N   1      34.188  17.911   6.348  0.00  0.00    -0.385 OA
HETATM   23  H   UNK N   1      34.334  17.554   5.458  0.00  0.00     0.211 HD
ENDBRANCH   4  22
BRANCH   4  24
HETATM   24  C   UNK N   1      32.239  17.445   7.660  0.00  0.00    -0.024 A 
HETATM   25  C   UNK N   1      31.836  18.313   8.687  0.00  0.00     0.012 A 
HETATM   26  C   UNK N   1      30.479  18.559   8.913  0.00  0.00     0.024 A 
HETATM   27  C   UNK N   1      29.513  17.945   8.112  0.00  0.00     0.034 A 
HETATM   28 Cl   UNK N   1      27.815  18.249   8.401  0.00  0.00    -0.084 Cl
HETATM   29  C   UNK N   1      29.901  17.086   7.083  0.00  0.00     0.024 A 
HETATM   30  C   UNK N   1      31.256  16.836   6.858  0.00  0.00     0.012 A 
ENDBRANCH   4  24
TORSDOF 7
ENDMDL
MODEL 8
REMARK VINA RESULT:      -7.1     20.278     22.603
REMARK  7 active torsions:
REMARK  status: ('A' for Active; 'I' for Inactive)
REMARK    1  A    between atoms: N_1  and  C_8 
REMARK    2  A    between atoms: C_4  and  O_5 
REMARK    3  A    between atoms: C_4  and  C_19 
REMARK    4  A    between atoms: C_8  and  C_9 
REMARK    5  A    between atoms: C_9  and  C_10 
REMARK    6  A    between atoms: C_10  and  C_11 
REMARK    7  A    between atoms: C_11  and  C_12 
ROOT
HETATM    1  N   UNK N   1      30.544  24.961  -4.216  0.00  0.00     0.088 N 
HETATM    2  C   UNK N   1      29.840  24.162  -3.200  0.00  0.00     0.276 C 
HETATM    3  C   UNK N   1      29.493  22.779  -3.746  0.00  0.00     0.073 C 
HETATM    4  C   UNK N   1      30.755  21.993  -4.151  0.00  0.00     0.088 C 
HETATM    5  C   UNK N   1      31.982  22.908  -4.260  0.00  0.00     0.073 C 
HETATM    6  C   UNK N   1      31.608  24.225  -4.931  0.00  0.00     0.276 C 
ENDROOT
BRANCH   1   7
HETATM    7  C   UNK N   1      31.132  26.103  -3.525  0.00  0.00     0.272 C 
BRANCH   7   8
HETATM    8  C   UNK N   1      30.212  27.318  -3.549  0.00  0.00     0.033 C 
BRANCH   8   9
HETATM    9  C   UNK N   1      29.646  27.556  -4.947  0.00  0.00     0.038 C 
BRANCH   9  10
HETATM   10  C   UNK N   1      28.113  27.635  -4.950  0.00  0.00     0.083 C 
HETATM   11  S   UNK N   1      27.640  28.768  -6.304  0.00  0.00    -0.142 SA
HETATM   12  C   UNK N   1      27.777  30.207  -5.225  0.00  0.00     0.086 C 
HETATM   13  C   UNK N   1      26.947  29.893  -4.014  0.00  0.00     0.086 C 
HETATM   14  S   UNK N   1      27.531  28.314  -3.337  0.00  0.00    -0.142 SA
BRANCH  10  15
HETATM   15  C   UNK N   1      27.453  26.289  -5.199  0.00  0.00    -0.029 A 
HETATM   16  C   UNK N   1      27.639  25.624  -6.423  0.00  0.00     0.012 A 
HETATM   17  C   UNK N   1      27.024  24.392  -6.660  0.00  0.00     0.043 A 
HETATM   18  C   UNK N   1      26.218  23.807  -5.677  0.00  0.00     0.116 A 
HETATM   19  F   UNK N   1      25.619  22.616  -5.908  0.00  0.00    -0.206 F 
HETATM   20  C   UNK N   1      26.035  24.453  -4.454  0.00  0.00     0.043 A 
HETATM   21  C   UNK N   1      26.646  25.680  -4.218  0.00  0.00     0.012 A 
ENDBRANCH  10  15
ENDBRANCH   9  10
ENDBRANCH   8   9
ENDBRANCH   7   8
ENDBRANCH   1   7
BRANCH   4  22
HETATM   22  O   UNK N   1      31.027  21.051  -3.156  0.00  0.00    -0.385 OA
HETATM   23  H   UNK N   1      30.527  20.981  -2.327  0.00  0.00     0.211 HD
ENDBRANCH   4  22
BRANCH   4  24
HETATM   24  C   UNK N   1      30.505  21.308  -5.479  0.00  0.00    -0.024 A 
HETATM   25  C   UNK N   1      29.352  21.590  -6.229  0.00  0.00     0.012 A 
HETATM   26  C   UNK N   1      29.122  20.938  -7.443  0.00  0.00     0.024 A 
HETATM   27  C   UNK N   1      30.042  20.003  -7.922  0.00  0.00     0.034 A 
HETATM   28 Cl   UNK N   1      29.749  19.183  -9.439  0.00  0.00    -0.084 Cl
HETATM   29  C   UNK N   1      31.196  19.719  -7.190  0.00  0.00     0.024 A 
HETATM   30  C   UNK N   1      31.426  20.366  -5.974  0.00  0.00     0.012 A 
ENDBRANCH   4  24
TORSDOF 7
ENDMDL
MODEL 9
REMARK VINA RESULT:      -7.0     19.688     22.352
REMARK  7 active torsions:
REMARK  status: ('A' for Active; 'I' for Inactive)
REMARK    1  A    between atoms: N_1  and  C_8 
REMARK    2  A    between atoms: C_4  and  O_5 
REMARK    3  A    between atoms: C_4  and  C_19 
REMARK    4  A    between atoms: C_8  and  C_9 
REMARK    5  A    between atoms: C_9  and  C_10 
REMARK    6  A    between atoms: C_10  and  C_11 
REMARK    7  A    between atoms: C_11  and  C_12 
ROOT
HETATM    1  N   UNK N   1      28.030  24.188  -7.106  0.00  0.00     0.088 N 
HETATM    2  C   UNK N   1      28.902  24.197  -8.291  0.00  0.00     0.276 C 
HETATM    3  C   UNK N   1      30.231  23.509  -7.988  0.00  0.00     0.073 C 
HETATM    4  C   UNK N   1      30.031  22.037  -7.579  0.00  0.00     0.088 C 
HETATM    5  C   UNK N   1      28.569  21.742  -7.218  0.00  0.00     0.073 C 
HETATM    6  C   UNK N   1      27.979  22.888  -6.403  0.00  0.00     0.276 C 
ENDROOT
BRANCH   1   7
HETATM    7  C   UNK N   1      26.689  24.538  -7.562  0.00  0.00     0.272 C 
BRANCH   7   8
HETATM    8  C   UNK N   1      26.208  25.852  -6.956  0.00  0.00     0.033 C 
BRANCH   8   9
HETATM    9  C   UNK N   1      25.919  25.701  -5.465  0.00  0.00     0.038 C 
BRANCH   9  10
HETATM   10  C   UNK N   1      26.980  26.385  -4.593  0.00  0.00     0.083 C 
HETATM   11  S   UNK N   1      26.089  27.281  -3.272  0.00  0.00    -0.142 SA
HETATM   12  C   UNK N   1      25.904  28.745  -4.310  0.00  0.00     0.086 C 
HETATM   13  C   UNK N   1      27.281  29.068  -4.814  0.00  0.00     0.086 C 
HETATM   14  S   UNK N   1      27.939  27.581  -5.620  0.00  0.00    -0.142 SA
BRANCH  10  15
HETATM   15  C   UNK N   1      27.936  25.399  -3.942  0.00  0.00    -0.029 A 
HETATM   16  C   UNK N   1      29.325  25.567  -4.074  0.00  0.00     0.012 A 
HETATM   17  C   UNK N   1      30.207  24.655  -3.487  0.00  0.00     0.043 A 
HETATM   18  C   UNK N   1      29.713  23.567  -2.759  0.00  0.00     0.116 A 
HETATM   19  F   UNK N   1      30.566  22.682  -2.194  0.00  0.00    -0.206 F 
HETATM   20  C   UNK N   1      28.336  23.397  -2.612  0.00  0.00     0.043 A 
HETATM   21  C   UNK N   1      27.457  24.303  -3.197  0.00  0.00     0.012 A 
ENDBRANCH  10  15
ENDBRANCH   9  10
ENDBRANCH   8   9
ENDBRANCH   7   8
ENDBRANCH   1   7
BRANCH   4  22
HETATM   22  O   UNK N   1      30.361  21.227  -8.669  0.00  0.00    -0.385 OA
HETATM   23  H   UNK N   1      30.839  21.543  -9.451  0.00  0.00     0.211 HD
ENDBRANCH   4  22
BRANCH   4  24
HETATM   24  C   UNK N   1      30.925  21.727  -6.396  0.00  0.00    -0.024 A 
HETATM   25  C   UNK N   1      30.730  20.566  -5.631  0.00  0.00     0.012 A 
HETATM   26  C   UNK N   1      31.548  20.300  -4.529  0.00  0.00     0.024 A 
HETATM   27  C   UNK N   1      32.570  21.187  -4.185  0.00  0.00     0.034 A 
HETATM   28 Cl   UNK N   1      33.589  20.855  -2.803  0.00  0.00    -0.084 Cl
HETATM   29  C   UNK N   1      32.779  22.341  -4.942  0.00  0.00     0.024 A 
HETATM   30  C   UNK N   1      31.961  22.612  -6.040  0.00  0.00     0.012 A 
ENDBRANCH   4  24
TORSDOF 7
ENDMDL
