MODEL 1
REMARK VINA RESULT:      -7.2      0.000      0.000
REMARK  8 active torsions:
REMARK  status: ('A' for Active; 'I' for Inactive)
REMARK    1  A    between atoms: C_5  and  C_6 
REMARK    2  A    between atoms: C_6  and  O_7 
REMARK    3  A    between atoms: C_11  and  C_12 
REMARK    4  A    between atoms: C_12  and  C_13 
REMARK    5  A    between atoms: C_12  and  N_16 
REMARK    6  A    between atoms: C_13  and  O_15 
REMARK       I    between atoms: N_16  and  C_17 
REMARK    7  A    between atoms: C_17  and  C_19 
REMARK    8  A    between atoms: C_19  and  C_20 
ROOT
HETATM    1  C   UNK N   1      33.501  17.457   8.734  0.00  0.00     0.239 C 
ENDROOT
BRANCH   1   2
HETATM    2  C   UNK N   1      32.124  17.427   8.096  0.00  0.00     0.077 C 
HETATM    3  S   UNK N   1      31.956  17.179   6.314  0.00  0.00    -0.110 SA
HETATM    4  C   UNK N   1      30.617  15.979   6.606  0.00  0.00     0.116 C 
HETATM    5  C   UNK N   1      29.466  16.748   7.166  0.00  0.00    -0.047 C 
HETATM    6  C   UNK N   1      28.304  16.749   6.510  0.00  0.00     0.017 C 
HETATM    7  C   UNK N   1      29.717  17.727   8.303  0.00  0.00     0.210 C 
HETATM    8  N   UNK N   1      31.070  17.611   8.830  0.00  0.00    -0.368 N 
ATOM      9  HN  UNK N   1      31.197  17.678   9.839  1.00  0.00     0.161 HD
BRANCH   7  10
HETATM   10  C   UNK N   1      28.748  17.606   9.454  0.00  0.00     0.168 C 
HETATM   11  O   UNK N   1      29.003  16.907  10.422  0.00  0.00    -0.648 OA
BRANCH  10  12
HETATM   12  O   UNK N   1      27.580  18.276   9.408  0.00  0.00    -0.775 OA
HETATM   13  H   UNK N   1      26.848  18.025   9.936  0.00  0.00     0.167 HD
ENDBRANCH  10  12
ENDBRANCH   7  10
ENDBRANCH   1   2
BRANCH   1  14
HETATM   14  C   UNK N   1      34.512  18.278   7.970  0.00  0.00     0.170 C 
HETATM   15  O   UNK N   1      34.673  18.072   6.777  0.00  0.00    -0.648 OA
BRANCH  14  16
HETATM   16  O   UNK N   1      35.242  19.232   8.580  0.00  0.00    -0.775 OA
HETATM   17  H   UNK N   1      35.208  19.489   9.481  0.00  0.00     0.167 HD
ENDBRANCH  14  16
ENDBRANCH   1  14
BRANCH   1  18
HETATM   18  N   UNK N   1      34.015  16.102   8.847  0.00  0.00    -0.341 N 
HETATM   19  C   UNK N   1      35.118  15.747   9.550  0.00  0.00     0.223 C 
HETATM   20  O   UNK N   1      35.751  16.576  10.189  0.00  0.00    -0.273 OA
HETATM   21  H   UNK N   1      33.525  15.389   8.379  0.00  0.00     0.163 HD
BRANCH  19  22
HETATM   22  C   UNK N   1      35.515  14.305   9.582  0.00  0.00     0.148 C 
BRANCH  22  23
HETATM   23  C   UNK N   1      35.794  13.808  10.961  0.00  0.00    -0.009 A 
HETATM   24  C   UNK N   1      34.892  13.826  12.022  0.00  0.00     0.015 A 
HETATM   25  C   UNK N   1      35.431  13.264  13.213  0.00  0.00     0.008 A 
HETATM   26  C   UNK N   1      36.752  12.807  13.084  0.00  0.00     0.050 A 
HETATM   27  S   UNK N   1      37.188  13.111  11.512  0.00  0.00    -0.106 SA
ENDBRANCH  22  23
ENDBRANCH  19  22
ENDBRANCH   1  18
TORSDOF 8
ENDMDL
MODEL 2
REMARK VINA RESULT:      -7.2      2.567      3.081
REMARK  8 active torsions:
REMARK  status: ('A' for Active; 'I' for Inactive)
REMARK    1  A    between atoms: C_5  and  C_6 
REMARK    2  A    between atoms: C_6  and  O_7 
REMARK    3  A    between atoms: C_11  and  C_12 
REMARK    4  A    between atoms: C_12  and  C_13 
REMARK    5  A    between atoms: C_12  and  N_16 
REMARK    6  A    between atoms: C_13  and  O_15 
REMARK       I    between atoms: N_16  and  C_17 
REMARK    7  A    between atoms: C_17  and  C_19 
REMARK    8  A    between atoms: C_19  and  C_20 
ROOT
HETATM    1  C   UNK N   1      33.725  17.175   8.746  0.00  0.00     0.239 C 
ENDROOT
BRANCH   1   2
HETATM    2  C   UNK N   1      32.540  16.554   8.028  0.00  0.00     0.077 C 
HETATM    3  S   UNK N   1      30.889  17.259   8.231  0.00  0.00    -0.110 SA
HETATM    4  C   UNK N   1      30.613  17.133   6.435  0.00  0.00     0.116 C 
HETATM    5  C   UNK N   1      30.554  15.677   6.111  0.00  0.00    -0.047 C 
HETATM    6  C   UNK N   1      29.448  15.178   5.557  0.00  0.00     0.017 C 
HETATM    7  C   UNK N   1      31.629  14.753   6.667  0.00  0.00     0.210 C 
HETATM    8  N   UNK N   1      32.711  15.499   7.294  0.00  0.00    -0.368 N 
ATOM      9  HN  UNK N   1      33.666  15.171   7.145  1.00  0.00     0.161 HD
BRANCH   7  10
HETATM   10  C   UNK N   1      32.227  13.812   5.651  0.00  0.00     0.168 C 
HETATM   11  O   UNK N   1      32.880  14.232   4.708  0.00  0.00    -0.648 OA
BRANCH  10  12
HETATM   12  O   UNK N   1      32.032  12.485   5.784  0.00  0.00    -0.775 OA
HETATM   13  H   UNK N   1      31.560  12.128   6.510  0.00  0.00     0.167 HD
ENDBRANCH  10  12
ENDBRANCH   7  10
ENDBRANCH   1   2
BRANCH   1  14
HETATM   14  C   UNK N   1      34.474  18.196   7.923  0.00  0.00     0.170 C 
HETATM   15  O   UNK N   1      34.412  18.146   6.705  0.00  0.00    -0.648 OA
BRANCH  14  16
HETATM   16  O   UNK N   1      35.212  19.159   8.508  0.00  0.00    -0.775 OA
HETATM   17  H   UNK N   1      36.121  19.126   8.734  0.00  0.00     0.167 HD
ENDBRANCH  14  16
ENDBRANCH   1  14
BRANCH   1  18
HETATM   18  N   UNK N   1      34.662  16.132   9.131  0.00  0.00    -0.341 N 
HETATM   19  C   UNK N   1      35.559  16.230  10.143  0.00  0.00     0.223 C 
HETATM   20  O   UNK N   1      35.609  17.231  10.845  0.00  0.00    -0.273 OA
HETATM   21  H   UNK N   1      34.643  15.292   8.620  0.00  0.00     0.163 HD
BRANCH  19  22
HETATM   22  C   UNK N   1      36.450  15.063  10.427  0.00  0.00     0.148 C 
BRANCH  22  23
HETATM   23  C   UNK N   1      35.975  14.234  11.573  0.00  0.00    -0.009 A 
HETATM   24  C   UNK N   1      36.132  14.554  12.919  0.00  0.00     0.015 A 
HETATM   25  C   UNK N   1      35.556  13.585  13.787  0.00  0.00     0.008 A 
HETATM   26  C   UNK N   1      34.949  12.509  13.122  0.00  0.00     0.050 A 
HETATM   27  S   UNK N   1      35.145  12.806  11.501  0.00  0.00    -0.106 SA
ENDBRANCH  22  23
ENDBRANCH  19  22
ENDBRANCH   1  18
TORSDOF 8
ENDMDL
MODEL 3
REMARK VINA RESULT:      -6.8      1.363      2.021
REMARK  8 active torsions:
REMARK  status: ('A' for Active; 'I' for Inactive)
REMARK    1  A    between atoms: C_5  and  C_6 
REMARK    2  A    between atoms: C_6  and  O_7 
REMARK    3  A    between atoms: C_11  and  C_12 
REMARK    4  A    between atoms: C_12  and  C_13 
REMARK    5  A    between atoms: C_12  and  N_16 
REMARK    6  A    between atoms: C_13  and  O_15 
REMARK       I    between atoms: N_16  and  C_17 
REMARK    7  A    between atoms: C_17  and  C_19 
REMARK    8  A    between atoms: C_19  and  C_20 
ROOT
HETATM    1  C   UNK N   1      33.345  17.704   8.869  0.00  0.00     0.239 C 
ENDROOT
BRANCH   1   2
HETATM    2  C   UNK N   1      32.025  17.591   8.128  0.00  0.00     0.077 C 
HETATM    3  S   UNK N   1      32.006  17.162   6.373  0.00  0.00    -0.110 SA
HETATM    4  C   UNK N   1      30.654  15.980   6.674  0.00  0.00     0.116 C 
HETATM    5  C   UNK N   1      29.457  16.785   7.057  0.00  0.00    -0.047 C 
HETATM    6  C   UNK N   1      28.353  16.704   6.313  0.00  0.00     0.017 C 
HETATM    7  C   UNK N   1      29.607  17.878   8.106  0.00  0.00     0.210 C 
HETATM    8  N   UNK N   1      30.913  17.833   8.750  0.00  0.00    -0.368 N 
ATOM      9  HN  UNK N   1      30.956  18.003   9.755  1.00  0.00     0.161 HD
BRANCH   7  10
HETATM   10  C   UNK N   1      28.548  17.859   9.181  0.00  0.00     0.168 C 
HETATM   11  O   UNK N   1      28.608  17.074  10.114  0.00  0.00    -0.648 OA
BRANCH  10  12
HETATM   12  O   UNK N   1      27.514  18.721   9.104  0.00  0.00    -0.775 OA
HETATM   13  H   UNK N   1      26.697  18.475   8.719  0.00  0.00     0.167 HD
ENDBRANCH  10  12
ENDBRANCH   7  10
ENDBRANCH   1   2
BRANCH   1  14
HETATM   14  C   UNK N   1      34.467  18.277   8.038  0.00  0.00     0.170 C 
HETATM   15  O   UNK N   1      34.646  17.862   6.904  0.00  0.00    -0.648 OA
BRANCH  14  16
HETATM   16  O   UNK N   1      35.278  19.237   8.525  0.00  0.00    -0.775 OA
HETATM   17  H   UNK N   1      35.242  19.642   9.370  0.00  0.00     0.167 HD
ENDBRANCH  14  16
ENDBRANCH   1  14
BRANCH   1  18
HETATM   18  N   UNK N   1      33.755  16.390   9.336  0.00  0.00    -0.341 N 
HETATM   19  C   UNK N   1      34.698  16.163  10.284  0.00  0.00     0.223 C 
HETATM   20  O   UNK N   1      35.254  17.091  10.854  0.00  0.00    -0.273 OA
HETATM   21  H   UNK N   1      33.316  15.607   8.934  0.00  0.00     0.163 HD
BRANCH  19  22
HETATM   22  C   UNK N   1      35.002  14.750  10.667  0.00  0.00     0.148 C 
BRANCH  22  23
HETATM   23  C   UNK N   1      35.577  13.953   9.544  0.00  0.00    -0.009 A 
HETATM   24  C   UNK N   1      36.852  14.115   9.011  0.00  0.00     0.015 A 
HETATM   25  C   UNK N   1      37.132  13.195   7.961  0.00  0.00     0.008 A 
HETATM   26  C   UNK N   1      36.078  12.315   7.675  0.00  0.00     0.050 A 
HETATM   27  S   UNK N   1      34.858  12.707   8.730  0.00  0.00    -0.106 SA
ENDBRANCH  22  23
ENDBRANCH  19  22
ENDBRANCH   1  18
TORSDOF 8
ENDMDL
MODEL 4
REMARK VINA RESULT:      -6.8      2.657      4.359
REMARK  8 active torsions:
REMARK  status: ('A' for Active; 'I' for Inactive)
REMARK    1  A    between atoms: C_5  and  C_6 
REMARK    2  A    between atoms: C_6  and  O_7 
REMARK    3  A    between atoms: C_11  and  C_12 
REMARK    4  A    between atoms: C_12  and  C_13 
REMARK    5  A    between atoms: C_12  and  N_16 
REMARK    6  A    between atoms: C_13  and  O_15 
REMARK       I    between atoms: N_16  and  C_17 
REMARK    7  A    between atoms: C_17  and  C_19 
REMARK    8  A    between atoms: C_19  and  C_20 
ROOT
HETATM    1  C   UNK N   1      29.710  17.432   8.185  0.00  0.00     0.239 C 
ENDROOT
BRANCH   1   2
HETATM    2  C   UNK N   1      28.995  18.117   7.035  0.00  0.00     0.077 C 
HETATM    3  S   UNK N   1      29.121  17.444   5.362  0.00  0.00    -0.110 SA
HETATM    4  C   UNK N   1      27.327  17.667   5.136  0.00  0.00     0.116 C 
HETATM    5  C   UNK N   1      27.076  19.139   5.121  0.00  0.00    -0.047 C 
HETATM    6  C   UNK N   1      26.520  19.692   4.042  0.00  0.00     0.017 C 
HETATM    7  C   UNK N   1      27.704  20.006   6.202  0.00  0.00     0.210 C 
HETATM    8  N   UNK N   1      28.319  19.203   7.250  0.00  0.00    -0.368 N 
ATOM      9  HN  UNK N   1      28.212  19.514   8.215  1.00  0.00     0.161 HD
BRANCH   7  10
HETATM   10  C   UNK N   1      26.752  20.981   6.849  0.00  0.00     0.168 C 
HETATM   11  O   UNK N   1      26.513  22.064   6.337  0.00  0.00    -0.648 OA
BRANCH  10  12
HETATM   12  O   UNK N   1      26.161  20.654   8.015  0.00  0.00    -0.775 OA
HETATM   13  H   UNK N   1      25.351  21.041   8.281  0.00  0.00     0.167 HD
ENDBRANCH  10  12
ENDBRANCH   7  10
ENDBRANCH   1   2
BRANCH   1  14
HETATM   14  C   UNK N   1      29.150  17.773   9.545  0.00  0.00     0.170 C 
HETATM   15  O   UNK N   1      28.143  17.205   9.939  0.00  0.00    -0.648 OA
BRANCH  14  16
HETATM   16  O   UNK N   1      29.738  18.694  10.333  0.00  0.00    -0.775 OA
HETATM   17  H   UNK N   1      29.665  19.627  10.274  0.00  0.00     0.167 HD
ENDBRANCH  14  16
ENDBRANCH   1  14
BRANCH   1  18
HETATM   18  N   UNK N   1      31.116  17.799   8.173  0.00  0.00    -0.341 N 
HETATM   19  C   UNK N   1      32.135  16.982   8.536  0.00  0.00     0.223 C 
HETATM   20  O   UNK N   1      31.924  15.825   8.874  0.00  0.00    -0.273 OA
HETATM   21  H   UNK N   1      31.346  18.709   7.878  0.00  0.00     0.163 HD
BRANCH  19  22
HETATM   22  C   UNK N   1      33.535  17.502   8.457  0.00  0.00     0.148 C 
BRANCH  22  23
HETATM   23  C   UNK N   1      34.536  16.573   9.057  0.00  0.00    -0.009 A 
HETATM   24  C   UNK N   1      35.076  16.687  10.335  0.00  0.00     0.015 A 
HETATM   25  C   UNK N   1      35.990  15.640  10.643  0.00  0.00     0.008 A 
HETATM   26  C   UNK N   1      36.164  14.709   9.608  0.00  0.00     0.050 A 
HETATM   27  S   UNK N   1      35.181  15.215   8.370  0.00  0.00    -0.106 SA
ENDBRANCH  22  23
ENDBRANCH  19  22
ENDBRANCH   1  18
TORSDOF 8
ENDMDL
MODEL 5
REMARK VINA RESULT:      -6.8     13.982     16.252
REMARK  8 active torsions:
REMARK  status: ('A' for Active; 'I' for Inactive)
REMARK    1  A    between atoms: C_5  and  C_6 
REMARK    2  A    between atoms: C_6  and  O_7 
REMARK    3  A    between atoms: C_11  and  C_12 
REMARK    4  A    between atoms: C_12  and  C_13 
REMARK    5  A    between atoms: C_12  and  N_16 
REMARK    6  A    between atoms: C_13  and  O_15 
REMARK       I    between atoms: N_16  and  C_17 
REMARK    7  A    between atoms: C_17  and  C_19 
REMARK    8  A    between atoms: C_19  and  C_20 
ROOT
HETATM    1  C   UNK N   1      29.776  25.175  -3.372  0.00  0.00     0.239 C 
ENDROOT
BRANCH   1   2
HETATM    2  C   UNK N   1      28.611  25.660  -4.216  0.00  0.00     0.077 C 
HETATM    3  S   UNK N   1      28.240  24.858  -5.792  0.00  0.00    -0.110 SA
HETATM    4  C   UNK N   1      26.469  24.840  -5.367  0.00  0.00     0.116 C 
HETATM    5  C   UNK N   1      26.015  26.262  -5.353  0.00  0.00    -0.047 C 
HETATM    6  C   UNK N   1      25.043  26.643  -6.182  0.00  0.00     0.017 C 
HETATM    7  C   UNK N   1      26.849  27.294  -4.607  0.00  0.00     0.210 C 
HETATM    8  N   UNK N   1      27.903  26.671  -3.818  0.00  0.00    -0.368 N 
ATOM      9  HN  UNK N   1      28.096  27.053  -2.892  1.00  0.00     0.161 HD
BRANCH   7  10
HETATM   10  C   UNK N   1      26.052  28.201  -3.702  0.00  0.00     0.168 C 
HETATM   11  O   UNK N   1      25.474  27.764  -2.720  0.00  0.00    -0.648 OA
BRANCH  10  12
HETATM   12  O   UNK N   1      25.974  29.516  -3.988  0.00  0.00    -0.775 OA
HETATM   13  H   UNK N   1      26.645  30.116  -3.730  0.00  0.00     0.167 HD
ENDBRANCH  10  12
ENDBRANCH   7  10
ENDBRANCH   1   2
BRANCH   1  14
HETATM   14  C   UNK N   1      31.030  26.002  -3.524  0.00  0.00     0.170 C 
HETATM   15  O   UNK N   1      31.151  27.032  -2.879  0.00  0.00    -0.648 OA
BRANCH  14  16
HETATM   16  O   UNK N   1      32.017  25.627  -4.360  0.00  0.00    -0.775 OA
HETATM   17  H   UNK N   1      32.499  26.169  -4.955  0.00  0.00     0.167 HD
ENDBRANCH  14  16
ENDBRANCH   1  14
BRANCH   1  18
HETATM   18  N   UNK N   1      30.096  23.802  -3.726  0.00  0.00    -0.341 N 
HETATM   19  C   UNK N   1      30.462  22.839  -2.846  0.00  0.00     0.223 C 
HETATM   20  O   UNK N   1      30.509  23.068  -1.645  0.00  0.00    -0.273 OA
HETATM   21  H   UNK N   1      30.043  23.554  -4.677  0.00  0.00     0.163 HD
BRANCH  19  22
HETATM   22  C   UNK N   1      30.748  21.465  -3.365  0.00  0.00     0.148 C 
BRANCH  22  23
HETATM   23  C   UNK N   1      32.156  21.301  -3.830  0.00  0.00    -0.009 A 
HETATM   24  C   UNK N   1      33.243  20.997  -3.015  0.00  0.00     0.015 A 
HETATM   25  C   UNK N   1      34.461  20.879  -3.743  0.00  0.00     0.008 A 
HETATM   26  C   UNK N   1      34.326  21.089  -5.124  0.00  0.00     0.050 A 
HETATM   27  S   UNK N   1      32.717  21.403  -5.382  0.00  0.00    -0.106 SA
ENDBRANCH  22  23
ENDBRANCH  19  22
ENDBRANCH   1  18
TORSDOF 8
ENDMDL
MODEL 6
REMARK VINA RESULT:      -6.8      3.501      7.954
REMARK  8 active torsions:
REMARK  status: ('A' for Active; 'I' for Inactive)
REMARK    1  A    between atoms: C_5  and  C_6 
REMARK    2  A    between atoms: C_6  and  O_7 
REMARK    3  A    between atoms: C_11  and  C_12 
REMARK    4  A    between atoms: C_12  and  C_13 
REMARK    5  A    between atoms: C_12  and  N_16 
REMARK    6  A    between atoms: C_13  and  O_15 
REMARK       I    between atoms: N_16  and  C_17 
REMARK    7  A    between atoms: C_17  and  C_19 
REMARK    8  A    between atoms: C_19  and  C_20 
ROOT
HETATM    1  C   UNK N   1      29.340  18.538   7.943  0.00  0.00     0.239 C 
ENDROOT
BRANCH   1   2
HETATM    2  C   UNK N   1      30.551  17.677   7.632  0.00  0.00     0.077 C 
HETATM    3  S   UNK N   1      30.431  16.356   6.404  0.00  0.00    -0.110 SA
HETATM    4  C   UNK N   1      32.018  16.882   5.681  0.00  0.00     0.116 C 
HETATM    5  C   UNK N   1      33.071  16.593   6.700  0.00  0.00    -0.047 C 
HETATM    6  C   UNK N   1      34.064  15.759   6.390  0.00  0.00     0.017 C 
HETATM    7  C   UNK N   1      32.841  17.026   8.141  0.00  0.00     0.210 C 
HETATM    8  N   UNK N   1      31.662  17.872   8.271  0.00  0.00    -0.368 N 
ATOM      9  HN  UNK N   1      31.714  18.670   8.904  1.00  0.00     0.161 HD
BRANCH   7  10
HETATM   10  C   UNK N   1      34.010  17.742   8.770  0.00  0.00     0.168 C 
HETATM   11  O   UNK N   1      34.514  18.717   8.237  0.00  0.00    -0.648 OA
BRANCH  10  12
HETATM   12  O   UNK N   1      34.510  17.292   9.938  0.00  0.00    -0.775 OA
HETATM   13  H   UNK N   1      34.370  16.411  10.226  0.00  0.00     0.167 HD
ENDBRANCH  10  12
ENDBRANCH   7  10
ENDBRANCH   1   2
BRANCH   1  14
HETATM   14  C   UNK N   1      28.768  18.315   9.323  0.00  0.00     0.170 C 
HETATM   15  O   UNK N   1      29.471  18.512  10.301  0.00  0.00    -0.648 OA
BRANCH  14  16
HETATM   16  O   UNK N   1      27.498  17.902   9.494  0.00  0.00    -0.775 OA
HETATM   17  H   UNK N   1      26.980  17.386   8.907  0.00  0.00     0.167 HD
ENDBRANCH  14  16
ENDBRANCH   1  14
BRANCH   1  18
HETATM   18  N   UNK N   1      28.291  18.272   6.973  0.00  0.00    -0.341 N 
HETATM   19  C   UNK N   1      27.606  19.222   6.291  0.00  0.00     0.223 C 
HETATM   20  O   UNK N   1      27.868  20.409   6.430  0.00  0.00    -0.273 OA
HETATM   21  H   UNK N   1      28.061  17.332   6.797  0.00  0.00     0.163 HD
BRANCH  19  22
HETATM   22  C   UNK N   1      26.560  18.789   5.313  0.00  0.00     0.148 C 
BRANCH  22  23
HETATM   23  C   UNK N   1      26.908  17.518   4.614  0.00  0.00    -0.009 A 
HETATM   24  C   UNK N   1      27.880  17.381   3.627  0.00  0.00     0.015 A 
HETATM   25  C   UNK N   1      28.007  16.042   3.160  0.00  0.00     0.008 A 
HETATM   26  C   UNK N   1      27.134  15.134   3.780  0.00  0.00     0.050 A 
HETATM   27  S   UNK N   1      26.257  16.020   4.875  0.00  0.00    -0.106 SA
ENDBRANCH  22  23
ENDBRANCH  19  22
ENDBRANCH   1  18
TORSDOF 8
ENDMDL
MODEL 7
REMARK VINA RESULT:      -6.7      2.951      7.499
REMARK  8 active torsions:
REMARK  status: ('A' for Active; 'I' for Inactive)
REMARK    1  A    between atoms: C_5  and  C_6 
REMARK    2  A    between atoms: C_6  and  O_7 
REMARK    3  A    between atoms: C_11  and  C_12 
REMARK    4  A    between atoms: C_12  and  C_13 
REMARK    5  A    between atoms: C_12  and  N_16 
REMARK    6  A    between atoms: C_13  and  O_15 
REMARK       I    between atoms: N_16  and  C_17 
REMARK    7  A    between atoms: C_17  and  C_19 
REMARK    8  A    between atoms: C_19  and  C_20 
ROOT
HETATM    1  C   UNK N   1      35.510  15.595   8.991  0.00  0.00     0.239 C 
ENDROOT
BRANCH   1   2
HETATM    2  C   UNK N   1      35.930  14.438   9.880  0.00  0.00     0.077 C 
HETATM    3  S   UNK N   1      36.703  12.975   9.156  0.00  0.00    -0.110 SA
HETATM    4  C   UNK N   1      37.956  12.980  10.478  0.00  0.00     0.116 C 
HETATM    5  C   UNK N   1      37.241  12.655  11.748  0.00  0.00    -0.047 C 
HETATM    6  C   UNK N   1      37.604  11.574  12.440  0.00  0.00     0.017 C 
HETATM    7  C   UNK N   1      35.949  13.389  12.077  0.00  0.00     0.210 C 
HETATM    8  N   UNK N   1      35.704  14.491  11.156  0.00  0.00    -0.368 N 
ATOM      9  HN  UNK N   1      35.330  15.359  11.539  1.00  0.00     0.161 HD
BRANCH   7  10
HETATM   10  C   UNK N   1      35.879  13.924  13.486  0.00  0.00     0.168 C 
HETATM   11  O   UNK N   1      35.009  13.554  14.259  0.00  0.00    -0.648 OA
BRANCH  10  12
HETATM   12  O   UNK N   1      36.788  14.830  13.895  0.00  0.00    -0.775 OA
HETATM   13  H   UNK N   1      37.038  15.554  13.355  0.00  0.00     0.167 HD
ENDBRANCH  10  12
ENDBRANCH   7  10
ENDBRANCH   1   2
BRANCH   1  14
HETATM   14  C   UNK N   1      34.963  16.783   9.747  0.00  0.00     0.170 C 
HETATM   15  O   UNK N   1      35.695  17.399  10.505  0.00  0.00    -0.648 OA
BRANCH  14  16
HETATM   16  O   UNK N   1      33.683  17.174   9.602  0.00  0.00    -0.775 OA
HETATM   17  H   UNK N   1      33.000  17.146  10.245  0.00  0.00     0.167 HD
ENDBRANCH  14  16
ENDBRANCH   1  14
BRANCH   1  18
HETATM   18  N   UNK N   1      34.490  15.147   8.058  0.00  0.00    -0.341 N 
HETATM   19  C   UNK N   1      34.600  15.192   6.708  0.00  0.00     0.223 C 
HETATM   20  O   UNK N   1      35.623  15.594   6.172  0.00  0.00    -0.273 OA
HETATM   21  H   UNK N   1      33.657  14.783   8.434  0.00  0.00     0.163 HD
BRANCH  19  22
HETATM   22  C   UNK N   1      33.465  14.680   5.878  0.00  0.00     0.148 C 
BRANCH  22  23
HETATM   23  C   UNK N   1      32.648  15.772   5.273  0.00  0.00    -0.009 A 
HETATM   24  C   UNK N   1      33.056  16.602   4.233  0.00  0.00     0.015 A 
HETATM   25  C   UNK N   1      32.054  17.537   3.848  0.00  0.00     0.008 A 
HETATM   26  C   UNK N   1      30.864  17.437   4.585  0.00  0.00     0.050 A 
HETATM   27  S   UNK N   1      31.101  16.202   5.668  0.00  0.00    -0.106 SA
ENDBRANCH  22  23
ENDBRANCH  19  22
ENDBRANCH   1  18
TORSDOF 8
ENDMDL
MODEL 8
REMARK VINA RESULT:      -6.7      2.485      6.854
REMARK  8 active torsions:
REMARK  status: ('A' for Active; 'I' for Inactive)
REMARK    1  A    between atoms: C_5  and  C_6 
REMARK    2  A    between atoms: C_6  and  O_7 
REMARK    3  A    between atoms: C_11  and  C_12 
REMARK    4  A    between atoms: C_12  and  C_13 
REMARK    5  A    between atoms: C_12  and  N_16 
REMARK    6  A    between atoms: C_13  and  O_15 
REMARK       I    between atoms: N_16  and  C_17 
REMARK    7  A    between atoms: C_17  and  C_19 
REMARK    8  A    between atoms: C_19  and  C_20 
ROOT
HETATM    1  C   UNK N   1      34.593  16.312   7.906  0.00  0.00     0.239 C 
ENDROOT
BRANCH   1   2
HETATM    2  C   UNK N   1      35.225  15.138   8.632  0.00  0.00     0.077 C 
HETATM    3  S   UNK N   1      36.135  13.883   7.703  0.00  0.00    -0.110 SA
HETATM    4  C   UNK N   1      37.465  13.924   8.946  0.00  0.00     0.116 C 
HETATM    5  C   UNK N   1      36.892  13.368  10.207  0.00  0.00    -0.047 C 
HETATM    6  C   UNK N   1      37.444  12.281  10.749  0.00  0.00     0.017 C 
HETATM    7  C   UNK N   1      35.540  13.874  10.689  0.00  0.00     0.210 C 
HETATM    8  N   UNK N   1      35.085  15.022   9.916  0.00  0.00    -0.368 N 
ATOM      9  HN  UNK N   1      34.627  15.784  10.416  1.00  0.00     0.161 HD
BRANCH   7  10
HETATM   10  C   UNK N   1      35.498  14.241  12.152  0.00  0.00     0.168 C 
HETATM   11  O   UNK N   1      34.693  13.723  12.910  0.00  0.00    -0.648 OA
BRANCH  10  12
HETATM   12  O   UNK N   1      36.360  15.161  12.627  0.00  0.00    -0.775 OA
HETATM   13  H   UNK N   1      36.986  14.951  13.292  0.00  0.00     0.167 HD
ENDBRANCH  10  12
ENDBRANCH   7  10
ENDBRANCH   1   2
BRANCH   1  14
HETATM   14  C   UNK N   1      34.807  17.642   8.588  0.00  0.00     0.170 C 
HETATM   15  O   UNK N   1      34.851  17.689   9.808  0.00  0.00    -0.648 OA
BRANCH  14  16
HETATM   16  O   UNK N   1      34.948  18.777   7.878  0.00  0.00    -0.775 OA
HETATM   17  H   UNK N   1      35.547  19.481   8.038  0.00  0.00     0.167 HD
ENDBRANCH  14  16
ENDBRANCH   1  14
BRANCH   1  18
HETATM   18  N   UNK N   1      33.162  16.094   7.782  0.00  0.00    -0.341 N 
HETATM   19  C   UNK N   1      32.364  16.685   6.858  0.00  0.00     0.223 C 
HETATM   20  O   UNK N   1      32.829  17.438   6.014  0.00  0.00    -0.273 OA
HETATM   21  H   UNK N   1      32.739  15.471   8.416  0.00  0.00     0.163 HD
BRANCH  19  22
HETATM   22  C   UNK N   1      30.907  16.348   6.849  0.00  0.00     0.148 C 
BRANCH  22  23
HETATM   23  C   UNK N   1      30.112  17.180   7.800  0.00  0.00    -0.009 A 
HETATM   24  C   UNK N   1      30.641  17.969   8.817  0.00  0.00     0.015 A 
HETATM   25  C   UNK N   1      29.641  18.669   9.549  0.00  0.00     0.008 A 
HETATM   26  C   UNK N   1      28.332  18.428   9.104  0.00  0.00     0.050 A 
HETATM   27  S   UNK N   1      28.470  17.373   7.831  0.00  0.00    -0.106 SA
ENDBRANCH  22  23
ENDBRANCH  19  22
ENDBRANCH   1  18
TORSDOF 8
ENDMDL
MODEL 9
REMARK VINA RESULT:      -6.6     15.086     16.984
REMARK  8 active torsions:
REMARK  status: ('A' for Active; 'I' for Inactive)
REMARK    1  A    between atoms: C_5  and  C_6 
REMARK    2  A    between atoms: C_6  and  O_7 
REMARK    3  A    between atoms: C_11  and  C_12 
REMARK    4  A    between atoms: C_12  and  C_13 
REMARK    5  A    between atoms: C_12  and  N_16 
REMARK    6  A    between atoms: C_13  and  O_15 
REMARK       I    between atoms: N_16  and  C_17 
REMARK    7  A    between atoms: C_17  and  C_19 
REMARK    8  A    between atoms: C_19  and  C_20 
ROOT
HETATM    1  C   UNK N   1      29.207  23.100  -3.762  0.00  0.00     0.239 C 
ENDROOT
BRANCH   1   2
HETATM    2  C   UNK N   1      28.233  24.077  -4.398  0.00  0.00     0.077 C 
HETATM    3  S   UNK N   1      27.429  23.663  -5.963  0.00  0.00    -0.110 SA
HETATM    4  C   UNK N   1      25.835  24.242  -5.298  0.00  0.00     0.116 C 
HETATM    5  C   UNK N   1      25.957  25.718  -5.114  0.00  0.00    -0.047 C 
HETATM    6  C   UNK N   1      25.122  26.526  -5.769  0.00  0.00     0.017 C 
HETATM    7  C   UNK N   1      27.189  26.276  -4.416  0.00  0.00     0.210 C 
HETATM    8  N   UNK N   1      28.003  25.220  -3.830  0.00  0.00    -0.368 N 
ATOM      9  HN  UNK N   1      28.419  25.389  -2.914  1.00  0.00     0.161 HD
BRANCH   7  10
HETATM   10  C   UNK N   1      26.890  27.294  -3.344  0.00  0.00     0.168 C 
HETATM   11  O   UNK N   1      27.463  28.373  -3.320  0.00  0.00    -0.648 OA
BRANCH  10  12
HETATM   12  O   UNK N   1      25.980  27.006  -2.394  0.00  0.00    -0.775 OA
HETATM   13  H   UNK N   1      25.617  26.147  -2.305  0.00  0.00     0.167 HD
ENDBRANCH  10  12
ENDBRANCH   7  10
ENDBRANCH   1   2
BRANCH   1  14
HETATM   14  C   UNK N   1      30.123  23.727  -2.739  0.00  0.00     0.170 C 
HETATM   15  O   UNK N   1      30.639  24.808  -2.978  0.00  0.00    -0.648 OA
BRANCH  14  16
HETATM   16  O   UNK N   1      30.385  23.116  -1.568  0.00  0.00    -0.775 OA
HETATM   17  H   UNK N   1      30.608  23.517  -0.750  0.00  0.00     0.167 HD
ENDBRANCH  14  16
ENDBRANCH   1  14
BRANCH   1  18
HETATM   18  N   UNK N   1      30.032  22.494  -4.794  0.00  0.00    -0.341 N 
HETATM   19  C   UNK N   1      30.722  21.336  -4.655  0.00  0.00     0.223 C 
HETATM   20  O   UNK N   1      30.657  20.684  -3.622  0.00  0.00    -0.273 OA
HETATM   21  H   UNK N   1      30.094  22.960  -5.659  0.00  0.00     0.163 HD
BRANCH  19  22
HETATM   22  C   UNK N   1      31.518  20.832  -5.817  0.00  0.00     0.148 C 
BRANCH  22  23
HETATM   23  C   UNK N   1      30.698  20.647  -7.049  0.00  0.00    -0.009 A 
HETATM   24  C   UNK N   1      29.652  19.739  -7.192  0.00  0.00     0.015 A 
HETATM   25  C   UNK N   1      29.037  19.805  -8.474  0.00  0.00     0.008 A 
HETATM   26  C   UNK N   1      29.601  20.761  -9.332  0.00  0.00     0.050 A 
HETATM   27  S   UNK N   1      30.821  21.483  -8.470  0.00  0.00    -0.106 SA
ENDBRANCH  22  23
ENDBRANCH  19  22
ENDBRANCH   1  18
TORSDOF 8
ENDMDL
