REMARK  7 active torsions:
REMARK  status: ('A' for Active; 'I' for Inactive)
REMARK    1  A    between atoms: C_1  and  C_5 
REMARK    2  A    between atoms: C_13  and  C_1 
REMARK    3  A    between atoms: C_5  and  N_2 
REMARK    4  A    between atoms: C_5  and  C_6 
REMARK    5  A    between atoms: C_6  and  C_9 
REMARK    6  A    between atoms: C_7  and  N_8 
REMARK    7  A    between atoms: C_9  and  C_7 
REMARK       I    between atoms: N_8  and  C_10 
REMARK       I    between atoms: C_10  and  N_22 
ROOT
HETATM    1  C   UNK N   1       0.254   0.310  -0.511  0.00  0.00     0.151 C 
ENDROOT
BRANCH   1   2
HETATM    2  C   UNK N   1      -0.844  -0.696  -0.256  0.00  0.00     0.204 C 
HETATM    3  O   UNK N   1      -0.565  -1.870  -0.063  0.00  0.00    -0.288 OA
BRANCH   2   4
HETATM    4  C   UNK N   1      -2.255  -0.267  -0.213  0.00  0.00     0.123 A 
HETATM    5  S   UNK N   1      -3.584  -1.256  -0.039  0.00  0.00    -0.067 SA
HETATM    6  C   UNK N   1      -4.713  -0.055   0.005  0.00  0.00     0.033 A 
HETATM    7  C   UNK N   1      -6.094  -0.111   0.145  0.00  0.00     0.021 A 
HETATM    8  C   UNK N   1      -4.021   1.150  -0.114  0.00  0.00     0.050 A 
HETATM    9  C   UNK N   1      -6.796   1.107   0.170  0.00  0.00     0.002 A 
HETATM   10  C   UNK N   1      -6.107   2.335   0.059  0.00  0.00     0.002 A 
HETATM   11  C   UNK N   1      -4.708   2.361  -0.086  0.00  0.00     0.031 A 
HETATM   12  N   UNK N   1      -2.656   1.036  -0.239  0.00  0.00    -0.346 N 
ATOM     13  HN  UNK N   1      -2.021   1.828  -0.339  1.00  0.00     0.167 HD
ENDBRANCH   2   4
ENDBRANCH   1   2
BRANCH   1  14
HETATM   14  N   UNK N   1       1.103  -0.141  -1.604  0.00  0.00    -0.420 N 
HETATM   15  H   UNK N   1       1.127  -0.814  -2.370  0.00  0.00     0.150 HD
HETATM   16  H   UNK N   1       1.968   0.401  -1.604  0.00  0.00     0.150 HD
ENDBRANCH   1  14
BRANCH   1  17
HETATM   17  C   UNK N   1       1.083   0.590   0.743  0.00  0.00     0.034 C 
BRANCH  17  18
HETATM   18  C   UNK N   1       1.855  -0.611   1.258  0.00  0.00     0.023 C 
BRANCH  18  19
HETATM   19  C   UNK N   1       3.332  -0.413   0.995  0.00  0.00     0.138 C 
BRANCH  19  20
HETATM   20  N   UNK N   1       3.785  -1.408   0.059  0.00  0.00    -0.227 N 
HETATM   21  C   UNK N   1       5.157  -1.567  -0.259  0.00  0.00     0.665 C 
HETATM   22  N   UNK N   1       6.048  -0.836   0.305  0.00  0.00    -0.235 N 
HETATM   23  N   UNK N   1       5.550  -2.575  -1.164  0.00  0.00    -0.235 N 
HETATM   24  H   UNK N   1       6.876  -1.148   0.737  0.00  0.00     0.174 HD
ATOM     25  HN  UNK N   1       5.883   0.171   0.305  1.00  0.00     0.174 HD
HETATM   26  H   UNK N   1       5.077  -3.165  -1.795  0.00  0.00     0.174 HD
HETATM   27  H   UNK N   1       6.523  -2.724  -1.164  0.00  0.00     0.174 HD
HETATM   28  H   UNK N   1       3.123  -1.996  -0.372  0.00  0.00     0.177 HD
ENDBRANCH  19  20
ENDBRANCH  18  19
ENDBRANCH  17  18
ENDBRANCH   1  17
TORSDOF 7
