MODEL 1
REMARK VINA RESULT:      -6.4      0.000      0.000
REMARK  7 active torsions:
REMARK  status: ('A' for Active; 'I' for Inactive)
REMARK    1  A    between atoms: C_1  and  C_5 
REMARK    2  A    between atoms: C_13  and  C_1 
REMARK    3  A    between atoms: C_5  and  N_2 
REMARK    4  A    between atoms: C_5  and  C_6 
REMARK    5  A    between atoms: C_6  and  C_9 
REMARK    6  A    between atoms: C_7  and  N_8 
REMARK    7  A    between atoms: C_9  and  C_7 
REMARK       I    between atoms: N_8  and  C_10 
REMARK       I    between atoms: C_10  and  N_22 
ROOT
HETATM    1  C   UNK N   1      34.789  16.277   8.680  0.00  0.00     0.151 C 
ENDROOT
BRANCH   1   2
HETATM    2  C   UNK N   1      34.080  17.359   7.899  0.00  0.00     0.204 C 
HETATM    3  O   UNK N   1      34.727  18.171   7.254  0.00  0.00    -0.288 OA
BRANCH   2   4
HETATM    4  C   UNK N   1      32.606  17.429   7.889  0.00  0.00     0.123 A 
HETATM    5  S   UNK N   1      31.603  16.963   6.644  0.00  0.00    -0.067 SA
HETATM    6  C   UNK N   1      30.180  17.260   7.422  0.00  0.00     0.033 A 
HETATM    7  C   UNK N   1      28.865  17.096   7.005  0.00  0.00     0.021 A 
HETATM    8  C   UNK N   1      30.509  17.731   8.693  0.00  0.00     0.050 A 
HETATM    9  C   UNK N   1      27.847  17.420   7.919  0.00  0.00     0.002 A 
HETATM   10  C   UNK N   1      28.166  17.890   9.212  0.00  0.00     0.002 A 
HETATM   11  C   UNK N   1      29.507  18.050   9.606  0.00  0.00     0.031 A 
HETATM   12  N   UNK N   1      31.856  17.830   8.954  0.00  0.00    -0.346 N 
ATOM     13  HN  UNK N   1      32.246  18.162   9.837  1.00  0.00     0.167 HD
ENDBRANCH   2   4
ENDBRANCH   1   2
BRANCH   1  14
HETATM   14  N   UNK N   1      34.057  15.023   8.575  0.00  0.00    -0.420 N 
HETATM   15  H   UNK N   1      34.071  14.061   8.914  0.00  0.00     0.150 HD
HETATM   16  H   UNK N   1      33.260  15.149   7.951  0.00  0.00     0.150 HD
ENDBRANCH   1  14
BRANCH   1  17
HETATM   17  C   UNK N   1      34.999  16.665  10.144  0.00  0.00     0.034 C 
BRANCH  17  18
HETATM   18  C   UNK N   1      36.130  15.919  10.828  0.00  0.00     0.023 C 
BRANCH  18  19
HETATM   19  C   UNK N   1      35.565  15.025  11.910  0.00  0.00     0.138 C 
BRANCH  19  20
HETATM   20  N   UNK N   1      36.465  15.013  13.033  0.00  0.00    -0.227 N 
HETATM   21  C   UNK N   1      36.305  14.107  14.111  0.00  0.00     0.665 C 
HETATM   22  N   UNK N   1      35.355  13.244  14.104  0.00  0.00    -0.235 N 
HETATM   23  N   UNK N   1      37.230  14.119  15.175  0.00  0.00    -0.235 N 
HETATM   24  H   UNK N   1      35.437  12.279  14.278  0.00  0.00     0.174 HD
ATOM     25  HN  UNK N   1      34.418  13.594  13.900  1.00  0.00     0.174 HD
HETATM   26  H   UNK N   1      37.946  14.730  15.466  0.00  0.00     0.174 HD
HETATM   27  H   UNK N   1      37.141  13.334  15.763  0.00  0.00     0.174 HD
HETATM   28  H   UNK N   1      37.215  15.651  13.052  0.00  0.00     0.177 HD
ENDBRANCH  19  20
ENDBRANCH  18  19
ENDBRANCH  17  18
ENDBRANCH   1  17
TORSDOF 7
ENDMDL
MODEL 2
REMARK VINA RESULT:      -6.4      1.693      2.334
REMARK  7 active torsions:
REMARK  status: ('A' for Active; 'I' for Inactive)
REMARK    1  A    between atoms: C_1  and  C_5 
REMARK    2  A    between atoms: C_13  and  C_1 
REMARK    3  A    between atoms: C_5  and  N_2 
REMARK    4  A    between atoms: C_5  and  C_6 
REMARK    5  A    between atoms: C_6  and  C_9 
REMARK    6  A    between atoms: C_7  and  N_8 
REMARK    7  A    between atoms: C_9  and  C_7 
REMARK       I    between atoms: N_8  and  C_10 
REMARK       I    between atoms: C_10  and  N_22 
ROOT
HETATM    1  C   UNK N   1      34.857  15.425  10.321  0.00  0.00     0.151 C 
ENDROOT
BRANCH   1   2
HETATM    2  C   UNK N   1      34.699  16.786   9.685  0.00  0.00     0.204 C 
HETATM    3  O   UNK N   1      35.393  17.720  10.060  0.00  0.00    -0.288 OA
BRANCH   2   4
HETATM    4  C   UNK N   1      33.729  16.993   8.593  0.00  0.00     0.123 A 
HETATM    5  S   UNK N   1      34.066  17.011   6.962  0.00  0.00    -0.067 SA
HETATM    6  C   UNK N   1      32.511  17.195   6.446  0.00  0.00     0.033 A 
HETATM    7  C   UNK N   1      31.983  17.285   5.164  0.00  0.00     0.021 A 
HETATM    8  C   UNK N   1      31.712  17.235   7.589  0.00  0.00     0.050 A 
HETATM    9  C   UNK N   1      30.589  17.416   5.042  0.00  0.00     0.002 A 
HETATM   10  C   UNK N   1      29.767  17.450   6.190  0.00  0.00     0.002 A 
HETATM   11  C   UNK N   1      30.330  17.361   7.476  0.00  0.00     0.031 A 
HETATM   12  N   UNK N   1      32.386  17.127   8.783  0.00  0.00    -0.346 N 
ATOM     13  HN  UNK N   1      31.936  17.145   9.699  1.00  0.00     0.167 HD
ENDBRANCH   2   4
ENDBRANCH   1   2
BRANCH   1  14
HETATM   14  N   UNK N   1      33.612  15.024  10.961  0.00  0.00    -0.420 N 
HETATM   15  H   UNK N   1      33.247  14.667  11.844  0.00  0.00     0.150 HD
HETATM   16  H   UNK N   1      32.842  15.139  10.300  0.00  0.00     0.150 HD
ENDBRANCH   1  14
BRANCH   1  17
HETATM   17  C   UNK N   1      36.018  15.383  11.316  0.00  0.00     0.034 C 
BRANCH  17  18
HETATM   18  C   UNK N   1      36.533  13.986  11.610  0.00  0.00     0.023 C 
BRANCH  18  19
HETATM   19  C   UNK N   1      36.266  13.644  13.060  0.00  0.00     0.138 C 
BRANCH  19  20
HETATM   20  N   UNK N   1      36.834  14.666  13.900  0.00  0.00    -0.227 N 
HETATM   21  C   UNK N   1      36.861  14.544  15.312  0.00  0.00     0.665 C 
HETATM   22  N   UNK N   1      36.397  13.495  15.887  0.00  0.00    -0.235 N 
HETATM   23  N   UNK N   1      37.452  15.562  16.088  0.00  0.00    -0.235 N 
HETATM   24  H   UNK N   1      36.849  12.953  16.574  0.00  0.00     0.174 HD
ATOM     25  HN  UNK N   1      35.465  13.191  15.605  1.00  0.00     0.174 HD
HETATM   26  H   UNK N   1      37.760  16.481  15.910  0.00  0.00     0.174 HD
HETATM   27  H   UNK N   1      37.590  15.292  17.024  0.00  0.00     0.174 HD
HETATM   28  H   UNK N   1      37.216  15.471  13.483  0.00  0.00     0.177 HD
ENDBRANCH  19  20
ENDBRANCH  18  19
ENDBRANCH  17  18
ENDBRANCH   1  17
TORSDOF 7
ENDMDL
MODEL 3
REMARK VINA RESULT:      -6.4      2.553      3.352
REMARK  7 active torsions:
REMARK  status: ('A' for Active; 'I' for Inactive)
REMARK    1  A    between atoms: C_1  and  C_5 
REMARK    2  A    between atoms: C_13  and  C_1 
REMARK    3  A    between atoms: C_5  and  N_2 
REMARK    4  A    between atoms: C_5  and  C_6 
REMARK    5  A    between atoms: C_6  and  C_9 
REMARK    6  A    between atoms: C_7  and  N_8 
REMARK    7  A    between atoms: C_9  and  C_7 
REMARK       I    between atoms: N_8  and  C_10 
REMARK       I    between atoms: C_10  and  N_22 
ROOT
HETATM    1  C   UNK N   1      34.501  16.918   9.521  0.00  0.00     0.151 C 
ENDROOT
BRANCH   1   2
HETATM    2  C   UNK N   1      34.340  17.876   8.363  0.00  0.00     0.204 C 
HETATM    3  O   UNK N   1      34.966  18.926   8.347  0.00  0.00    -0.288 OA
BRANCH   2   4
HETATM    4  C   UNK N   1      33.450  17.542   7.235  0.00  0.00     0.123 A 
HETATM    5  S   UNK N   1      31.815  17.238   7.323  0.00  0.00    -0.067 SA
HETATM    6  C   UNK N   1      31.567  17.053   5.703  0.00  0.00     0.033 A 
HETATM    7  C   UNK N   1      30.408  16.779   4.987  0.00  0.00     0.021 A 
HETATM    8  C   UNK N   1      32.802  17.242   5.084  0.00  0.00     0.050 A 
HETATM    9  C   UNK N   1      30.511  16.701   3.587  0.00  0.00     0.002 A 
HETATM   10  C   UNK N   1      31.754  16.899   2.947  0.00  0.00     0.002 A 
HETATM   11  C   UNK N   1      32.912  17.170   3.698  0.00  0.00     0.031 A 
HETATM   12  N   UNK N   1      33.851  17.510   5.932  0.00  0.00    -0.346 N 
ATOM     13  HN  UNK N   1      34.811  17.666   5.625  1.00  0.00     0.167 HD
ENDBRANCH   2   4
ENDBRANCH   1   2
BRANCH   1  14
HETATM   14  N   UNK N   1      35.450  17.453  10.486  0.00  0.00    -0.420 N 
HETATM   15  H   UNK N   1      35.568  18.220  11.148  0.00  0.00     0.150 HD
HETATM   16  H   UNK N   1      36.278  16.857  10.509  0.00  0.00     0.150 HD
ENDBRANCH   1  14
BRANCH   1  17
HETATM   17  C   UNK N   1      34.920  15.522   9.060  0.00  0.00     0.034 C 
BRANCH  17  18
HETATM   18  C   UNK N   1      34.004  14.409   9.537  0.00  0.00     0.023 C 
BRANCH  18  19
HETATM   19  C   UNK N   1      34.771  13.482  10.455  0.00  0.00     0.138 C 
BRANCH  19  20
HETATM   20  N   UNK N   1      34.996  14.139  11.715  0.00  0.00    -0.227 N 
HETATM   21  C   UNK N   1      36.287  14.234  12.290  0.00  0.00     0.665 C 
HETATM   22  N   UNK N   1      37.310  13.753  11.683  0.00  0.00    -0.235 N 
HETATM   23  N   UNK N   1      36.456  14.912  13.515  0.00  0.00    -0.235 N 
HETATM   24  H   UNK N   1      38.163  14.214  11.513  0.00  0.00     0.174 HD
ATOM     25  HN  UNK N   1      37.233  12.794  11.343  1.00  0.00     0.174 HD
HETATM   26  H   UNK N   1      35.848  15.253  14.210  0.00  0.00     0.174 HD
HETATM   27  H   UNK N   1      37.403  15.086  13.723  0.00  0.00     0.174 HD
HETATM   28  H   UNK N   1      34.230  14.536  12.191  0.00  0.00     0.177 HD
ENDBRANCH  19  20
ENDBRANCH  18  19
ENDBRANCH  17  18
ENDBRANCH   1  17
TORSDOF 7
ENDMDL
MODEL 4
REMARK VINA RESULT:      -6.3      2.972      4.474
REMARK  7 active torsions:
REMARK  status: ('A' for Active; 'I' for Inactive)
REMARK    1  A    between atoms: C_1  and  C_5 
REMARK    2  A    between atoms: C_13  and  C_1 
REMARK    3  A    between atoms: C_5  and  N_2 
REMARK    4  A    between atoms: C_5  and  C_6 
REMARK    5  A    between atoms: C_6  and  C_9 
REMARK    6  A    between atoms: C_7  and  N_8 
REMARK    7  A    between atoms: C_9  and  C_7 
REMARK       I    between atoms: N_8  and  C_10 
REMARK       I    between atoms: C_10  and  N_22 
ROOT
HETATM    1  C   UNK N   1      31.026  16.813   8.603  0.00  0.00     0.151 C 
ENDROOT
BRANCH   1   2
HETATM    2  C   UNK N   1      29.616  17.340   8.728  0.00  0.00     0.204 C 
HETATM    3  O   UNK N   1      28.995  17.185   9.769  0.00  0.00    -0.288 OA
BRANCH   2   4
HETATM    4  C   UNK N   1      28.987  18.065   7.608  0.00  0.00     0.123 A 
HETATM    5  S   UNK N   1      29.047  17.641   5.998  0.00  0.00    -0.067 SA
HETATM    6  C   UNK N   1      28.070  18.848   5.444  0.00  0.00     0.033 A 
HETATM    7  C   UNK N   1      27.635  19.149   4.159  0.00  0.00     0.021 A 
HETATM    8  C   UNK N   1      27.685  19.595   6.558  0.00  0.00     0.050 A 
HETATM    9  C   UNK N   1      26.773  20.248   4.004  0.00  0.00     0.002 A 
HETATM   10  C   UNK N   1      26.369  21.008   5.124  0.00  0.00     0.002 A 
HETATM   11  C   UNK N   1      26.828  20.683   6.413  0.00  0.00     0.031 A 
HETATM   12  N   UNK N   1      28.196  19.165   7.761  0.00  0.00    -0.346 N 
ATOM     13  HN  UNK N   1      28.007  19.614   8.657  1.00  0.00     0.167 HD
ENDBRANCH   2   4
ENDBRANCH   1   2
BRANCH   1  14
HETATM   14  N   UNK N   1      31.342  15.954   9.735  0.00  0.00    -0.420 N 
HETATM   15  H   UNK N   1      31.101  15.803  10.714  0.00  0.00     0.150 HD
HETATM   16  H   UNK N   1      32.044  15.268   9.452  0.00  0.00     0.150 HD
ENDBRANCH   1  14
BRANCH   1  17
HETATM   17  C   UNK N   1      32.053  17.937   8.469  0.00  0.00     0.034 C 
BRANCH  17  18
HETATM   18  C   UNK N   1      33.178  17.638   7.495  0.00  0.00     0.023 C 
BRANCH  18  19
HETATM   19  C   UNK N   1      34.509  17.917   8.159  0.00  0.00     0.138 C 
BRANCH  19  20
HETATM   20  N   UNK N   1      34.447  17.508   9.537  0.00  0.00    -0.227 N 
HETATM   21  C   UNK N   1      34.910  16.238   9.963  0.00  0.00     0.665 C 
HETATM   22  N   UNK N   1      35.428  15.416   9.125  0.00  0.00    -0.235 N 
HETATM   23  N   UNK N   1      34.849  15.896  11.330  0.00  0.00    -0.235 N 
HETATM   24  H   UNK N   1      36.281  14.935   9.225  0.00  0.00     0.174 HD
ATOM     25  HN  UNK N   1      34.902  15.241   8.268  1.00  0.00     0.174 HD
HETATM   26  H   UNK N   1      34.410  16.281  12.123  0.00  0.00     0.174 HD
HETATM   27  H   UNK N   1      35.366  15.086  11.540  0.00  0.00     0.174 HD
HETATM   28  H   UNK N   1      34.073  18.128  10.204  0.00  0.00     0.177 HD
ENDBRANCH  19  20
ENDBRANCH  18  19
ENDBRANCH  17  18
ENDBRANCH   1  17
TORSDOF 7
ENDMDL
MODEL 5
REMARK VINA RESULT:      -6.2      3.103      4.596
REMARK  7 active torsions:
REMARK  status: ('A' for Active; 'I' for Inactive)
REMARK    1  A    between atoms: C_1  and  C_5 
REMARK    2  A    between atoms: C_13  and  C_1 
REMARK    3  A    between atoms: C_5  and  N_2 
REMARK    4  A    between atoms: C_5  and  C_6 
REMARK    5  A    between atoms: C_6  and  C_9 
REMARK    6  A    between atoms: C_7  and  N_8 
REMARK    7  A    between atoms: C_9  and  C_7 
REMARK       I    between atoms: N_8  and  C_10 
REMARK       I    between atoms: C_10  and  N_22 
ROOT
HETATM    1  C   UNK N   1      35.392  12.440  11.470  0.00  0.00     0.151 C 
ENDROOT
BRANCH   1   2
HETATM    2  C   UNK N   1      34.930  13.790  11.966  0.00  0.00     0.204 C 
HETATM    3  O   UNK N   1      34.885  14.018  13.166  0.00  0.00    -0.288 OA
BRANCH   2   4
HETATM    4  C   UNK N   1      34.556  14.849  11.009  0.00  0.00     0.123 A 
HETATM    5  S   UNK N   1      35.523  16.105  10.496  0.00  0.00    -0.067 SA
HETATM    6  C   UNK N   1      34.449  16.748   9.423  0.00  0.00     0.033 A 
HETATM    7  C   UNK N   1      34.555  17.847   8.579  0.00  0.00     0.021 A 
HETATM    8  C   UNK N   1      33.308  15.948   9.469  0.00  0.00     0.050 A 
HETATM    9  C   UNK N   1      33.459  18.138   7.748  0.00  0.00     0.002 A 
HETATM   10  C   UNK N   1      32.300  17.331   7.779  0.00  0.00     0.002 A 
HETATM   11  C   UNK N   1      32.219  16.226   8.646  0.00  0.00     0.031 A 
HETATM   12  N   UNK N   1      33.362  14.894  10.352  0.00  0.00    -0.346 N 
ATOM     13  HN  UNK N   1      32.603  14.228  10.498  1.00  0.00     0.167 HD
ENDBRANCH   2   4
ENDBRANCH   1   2
BRANCH   1  14
HETATM   14  N   UNK N   1      34.398  11.424  11.784  0.00  0.00    -0.420 N 
HETATM   15  H   UNK N   1      33.487  11.079  11.483  0.00  0.00     0.150 HD
HETATM   16  H   UNK N   1      34.724  10.867  12.575  0.00  0.00     0.150 HD
ENDBRANCH   1  14
BRANCH   1  17
HETATM   17  C   UNK N   1      36.761  12.055  12.032  0.00  0.00     0.034 C 
BRANCH  17  18
HETATM   18  C   UNK N   1      36.748  10.810  12.900  0.00  0.00     0.023 C 
BRANCH  18  19
HETATM   19  C   UNK N   1      37.159  11.173  14.310  0.00  0.00     0.138 C 
BRANCH  19  20
HETATM   20  N   UNK N   1      37.500  12.570  14.361  0.00  0.00    -0.227 N 
HETATM   21  C   UNK N   1      36.856  13.466  15.251  0.00  0.00     0.665 C 
HETATM   22  N   UNK N   1      35.957  13.047  16.064  0.00  0.00    -0.235 N 
HETATM   23  N   UNK N   1      37.246  14.822  15.278  0.00  0.00    -0.235 N 
HETATM   24  H   UNK N   1      35.912  13.224  17.032  0.00  0.00     0.174 HD
ATOM     25  HN  UNK N   1      35.212  12.472  15.669  1.00  0.00     0.174 HD
HETATM   26  H   UNK N   1      37.800  15.396  14.702  0.00  0.00     0.174 HD
HETATM   27  H   UNK N   1      36.879  15.304  16.053  0.00  0.00     0.174 HD
HETATM   28  H   UNK N   1      38.201  12.914  13.761  0.00  0.00     0.177 HD
ENDBRANCH  19  20
ENDBRANCH  18  19
ENDBRANCH  17  18
ENDBRANCH   1  17
TORSDOF 7
ENDMDL
MODEL 6
REMARK VINA RESULT:      -6.1      2.787      7.930
REMARK  7 active torsions:
REMARK  status: ('A' for Active; 'I' for Inactive)
REMARK    1  A    between atoms: C_1  and  C_5 
REMARK    2  A    between atoms: C_13  and  C_1 
REMARK    3  A    between atoms: C_5  and  N_2 
REMARK    4  A    between atoms: C_5  and  C_6 
REMARK    5  A    between atoms: C_6  and  C_9 
REMARK    6  A    between atoms: C_7  and  N_8 
REMARK    7  A    between atoms: C_9  and  C_7 
REMARK       I    between atoms: N_8  and  C_10 
REMARK       I    between atoms: C_10  and  N_22 
ROOT
HETATM    1  C   UNK N   1      33.183  15.470   9.598  0.00  0.00     0.151 C 
ENDROOT
BRANCH   1   2
HETATM    2  C   UNK N   1      34.209  14.375   9.775  0.00  0.00     0.204 C 
HETATM    3  O   UNK N   1      34.574  13.719   8.811  0.00  0.00    -0.288 OA
BRANCH   2   4
HETATM    4  C   UNK N   1      34.794  14.107  11.102  0.00  0.00     0.123 A 
HETATM    5  S   UNK N   1      35.823  15.107  11.949  0.00  0.00    -0.067 SA
HETATM    6  C   UNK N   1      35.932  14.170  13.301  0.00  0.00     0.033 A 
HETATM    7  C   UNK N   1      36.631  14.363  14.486  0.00  0.00     0.021 A 
HETATM    8  C   UNK N   1      35.133  13.049  13.077  0.00  0.00     0.050 A 
HETATM    9  C   UNK N   1      36.507  13.379  15.483  0.00  0.00     0.002 A 
HETATM   10  C   UNK N   1      35.694  12.243  15.273  0.00  0.00     0.002 A 
HETATM   11  C   UNK N   1      35.002  12.072  14.061  0.00  0.00     0.031 A 
HETATM   12  N   UNK N   1      34.503  13.009  11.856  0.00  0.00    -0.346 N 
ATOM     13  HN  UNK N   1      33.892  12.251  11.550  1.00  0.00     0.167 HD
ENDBRANCH   2   4
ENDBRANCH   1   2
BRANCH   1  14
HETATM   14  N   UNK N   1      31.954  15.123  10.297  0.00  0.00    -0.420 N 
HETATM   15  H   UNK N   1      31.319  14.340  10.454  0.00  0.00     0.150 HD
HETATM   16  H   UNK N   1      31.612  15.941  10.803  0.00  0.00     0.150 HD
ENDBRANCH   1  14
BRANCH   1  17
HETATM   17  C   UNK N   1      32.905  15.769   8.124  0.00  0.00     0.034 C 
BRANCH  17  18
HETATM   18  C   UNK N   1      31.441  16.008   7.804  0.00  0.00     0.023 C 
BRANCH  18  19
HETATM   19  C   UNK N   1      31.160  17.495   7.803  0.00  0.00     0.138 C 
BRANCH  19  20
HETATM   20  N   UNK N   1      29.740  17.710   7.900  0.00  0.00    -0.227 N 
HETATM   21  C   UNK N   1      29.137  18.208   9.082  0.00  0.00     0.665 C 
HETATM   22  N   UNK N   1      29.853  18.510  10.104  0.00  0.00    -0.235 N 
HETATM   23  N   UNK N   1      27.744  18.425   9.116  0.00  0.00    -0.235 N 
HETATM   24  H   UNK N   1      29.817  19.349  10.619  0.00  0.00     0.174 HD
ATOM     25  HN  UNK N   1      30.527  17.810  10.416  1.00  0.00     0.174 HD
HETATM   26  H   UNK N   1      26.988  18.176   8.536  0.00  0.00     0.174 HD
HETATM   27  H   UNK N   1      27.462  18.947   9.901  0.00  0.00     0.174 HD
HETATM   28  H   UNK N   1      29.171  17.505   7.123  0.00  0.00     0.177 HD
ENDBRANCH  19  20
ENDBRANCH  18  19
ENDBRANCH  17  18
ENDBRANCH   1  17
TORSDOF 7
ENDMDL
MODEL 7
REMARK VINA RESULT:      -6.0      2.506      7.380
REMARK  7 active torsions:
REMARK  status: ('A' for Active; 'I' for Inactive)
REMARK    1  A    between atoms: C_1  and  C_5 
REMARK    2  A    between atoms: C_13  and  C_1 
REMARK    3  A    between atoms: C_5  and  N_2 
REMARK    4  A    between atoms: C_5  and  C_6 
REMARK    5  A    between atoms: C_6  and  C_9 
REMARK    6  A    between atoms: C_7  and  N_8 
REMARK    7  A    between atoms: C_9  and  C_7 
REMARK       I    between atoms: N_8  and  C_10 
REMARK       I    between atoms: C_10  and  N_22 
ROOT
HETATM    1  C   UNK N   1      32.439  18.016   7.984  0.00  0.00     0.151 C 
ENDROOT
BRANCH   1   2
HETATM    2  C   UNK N   1      33.910  17.788   8.247  0.00  0.00     0.204 C 
HETATM    3  O   UNK N   1      34.742  18.533   7.750  0.00  0.00    -0.288 OA
BRANCH   2   4
HETATM    4  C   UNK N   1      34.350  16.685   9.121  0.00  0.00     0.123 A 
HETATM    5  S   UNK N   1      34.433  15.072   8.712  0.00  0.00    -0.067 SA
HETATM    6  C   UNK N   1      35.075  14.545  10.137  0.00  0.00     0.033 A 
HETATM    7  C   UNK N   1      35.442  13.271  10.552  0.00  0.00     0.021 A 
HETATM    8  C   UNK N   1      35.233  15.670  10.946  0.00  0.00     0.050 A 
HETATM    9  C   UNK N   1      35.994  13.139  11.838  0.00  0.00     0.002 A 
HETATM   10  C   UNK N   1      36.167  14.271  12.665  0.00  0.00     0.002 A 
HETATM   11  C   UNK N   1      35.783  15.549  12.219  0.00  0.00     0.031 A 
HETATM   12  N   UNK N   1      34.828  16.860  10.386  0.00  0.00    -0.346 N 
ATOM     13  HN  UNK N   1      34.878  17.762  10.859  1.00  0.00     0.167 HD
ENDBRANCH   2   4
ENDBRANCH   1   2
BRANCH   1  14
HETATM   14  N   UNK N   1      31.655  17.607   9.140  0.00  0.00    -0.420 N 
HETATM   15  H   UNK N   1      30.949  16.928   9.426  0.00  0.00     0.150 HD
HETATM   16  H   UNK N   1      31.892  18.201   9.935  0.00  0.00     0.150 HD
ENDBRANCH   1  14
BRANCH   1  17
HETATM   17  C   UNK N   1      31.961  17.299   6.720  0.00  0.00     0.034 C 
BRANCH  17  18
HETATM   18  C   UNK N   1      31.001  16.153   6.982  0.00  0.00     0.023 C 
BRANCH  18  19
HETATM   19  C   UNK N   1      29.714  16.388   6.221  0.00  0.00     0.138 C 
BRANCH  19  20
HETATM   20  N   UNK N   1      29.232  17.714   6.503  0.00  0.00    -0.227 N 
HETATM   21  C   UNK N   1      28.096  17.941   7.319  0.00  0.00     0.665 C 
HETATM   22  N   UNK N   1      27.471  16.957   7.857  0.00  0.00    -0.235 N 
HETATM   23  N   UNK N   1      27.680  19.262   7.584  0.00  0.00    -0.235 N 
HETATM   24  H   UNK N   1      27.212  16.874   8.803  0.00  0.00     0.174 HD
ATOM     25  HN  UNK N   1      27.217  16.183   7.243  1.00  0.00     0.174 HD
HETATM   26  H   UNK N   1      27.904  20.148   7.215  0.00  0.00     0.174 HD
HETATM   27  H   UNK N   1      27.013  19.310   8.305  0.00  0.00     0.174 HD
HETATM   28  H   UNK N   1      29.706  18.487   6.118  0.00  0.00     0.177 HD
ENDBRANCH  19  20
ENDBRANCH  18  19
ENDBRANCH  17  18
ENDBRANCH   1  17
TORSDOF 7
ENDMDL
MODEL 8
REMARK VINA RESULT:      -5.9      3.383      5.360
REMARK  7 active torsions:
REMARK  status: ('A' for Active; 'I' for Inactive)
REMARK    1  A    between atoms: C_1  and  C_5 
REMARK    2  A    between atoms: C_13  and  C_1 
REMARK    3  A    between atoms: C_5  and  N_2 
REMARK    4  A    between atoms: C_5  and  C_6 
REMARK    5  A    between atoms: C_6  and  C_9 
REMARK    6  A    between atoms: C_7  and  N_8 
REMARK    7  A    between atoms: C_9  and  C_7 
REMARK       I    between atoms: N_8  and  C_10 
REMARK       I    between atoms: C_10  and  N_22 
ROOT
HETATM    1  C   UNK N   1      35.439  13.985  13.483  0.00  0.00     0.151 C 
ENDROOT
BRANCH   1   2
HETATM    2  C   UNK N   1      35.187  13.665  12.028  0.00  0.00     0.204 C 
HETATM    3  O   UNK N   1      35.334  12.523  11.619  0.00  0.00    -0.288 OA
BRANCH   2   4
HETATM    4  C   UNK N   1      34.738  14.718  11.098  0.00  0.00     0.123 A 
HETATM    5  S   UNK N   1      35.642  16.007  10.553  0.00  0.00    -0.067 SA
HETATM    6  C   UNK N   1      34.502  16.624   9.533  0.00  0.00     0.033 A 
HETATM    7  C   UNK N   1      34.537  17.731   8.695  0.00  0.00     0.021 A 
HETATM    8  C   UNK N   1      33.389  15.788   9.623  0.00  0.00     0.050 A 
HETATM    9  C   UNK N   1      33.397  17.994   7.916  0.00  0.00     0.002 A 
HETATM   10  C   UNK N   1      32.266  17.151   7.991  0.00  0.00     0.002 A 
HETATM   11  C   UNK N   1      32.258  16.039   8.852  0.00  0.00     0.031 A 
HETATM   12  N   UNK N   1      33.515  14.731  10.494  0.00  0.00    -0.346 N 
ATOM     13  HN  UNK N   1      32.784  14.041  10.668  1.00  0.00     0.167 HD
ENDBRANCH   2   4
ENDBRANCH   1   2
BRANCH   1  14
HETATM   14  N   UNK N   1      36.691  14.714  13.626  0.00  0.00    -0.420 N 
HETATM   15  H   UNK N   1      37.699  14.594  13.531  0.00  0.00     0.150 HD
HETATM   16  H   UNK N   1      36.491  15.671  13.921  0.00  0.00     0.150 HD
ENDBRANCH   1  14
BRANCH   1  17
HETATM   17  C   UNK N   1      35.434  12.732  14.359  0.00  0.00     0.034 C 
BRANCH  17  18
HETATM   18  C   UNK N   1      34.596  12.858  15.618  0.00  0.00     0.023 C 
BRANCH  18  19
HETATM   19  C   UNK N   1      35.344  12.249  16.785  0.00  0.00     0.138 C 
BRANCH  19  20
HETATM   20  N   UNK N   1      35.029  12.982  17.984  0.00  0.00    -0.227 N 
HETATM   21  C   UNK N   1      35.254  12.439  19.273  0.00  0.00     0.665 C 
HETATM   22  N   UNK N   1      35.775  11.274  19.411  0.00  0.00    -0.235 N 
HETATM   23  N   UNK N   1      34.952  13.209  20.416  0.00  0.00    -0.235 N 
HETATM   24  H   UNK N   1      36.534  11.035  19.991  0.00  0.00     0.174 HD
ATOM     25  HN  UNK N   1      35.360  10.518  18.866  1.00  0.00     0.174 HD
HETATM   26  H   UNK N   1      34.458  14.045  20.579  0.00  0.00     0.174 HD
HETATM   27  H   UNK N   1      35.322  12.821  21.241  0.00  0.00     0.174 HD
HETATM   28  H   UNK N   1      34.648  13.886  17.906  0.00  0.00     0.177 HD
ENDBRANCH  19  20
ENDBRANCH  18  19
ENDBRANCH  17  18
ENDBRANCH   1  17
TORSDOF 7
ENDMDL
MODEL 9
REMARK VINA RESULT:      -5.9      2.411      7.631
REMARK  7 active torsions:
REMARK  status: ('A' for Active; 'I' for Inactive)
REMARK    1  A    between atoms: C_1  and  C_5 
REMARK    2  A    between atoms: C_13  and  C_1 
REMARK    3  A    between atoms: C_5  and  N_2 
REMARK    4  A    between atoms: C_5  and  C_6 
REMARK    5  A    between atoms: C_6  and  C_9 
REMARK    6  A    between atoms: C_7  and  N_8 
REMARK    7  A    between atoms: C_9  and  C_7 
REMARK       I    between atoms: N_8  and  C_10 
REMARK       I    between atoms: C_10  and  N_22 
ROOT
HETATM    1  C   UNK N   1      33.859  16.219   8.351  0.00  0.00     0.151 C 
ENDROOT
BRANCH   1   2
HETATM    2  C   UNK N   1      34.711  16.532   9.558  0.00  0.00     0.204 C 
HETATM    3  O   UNK N   1      35.193  17.647   9.695  0.00  0.00    -0.288 OA
BRANCH   2   4
HETATM    4  C   UNK N   1      34.947  15.507  10.592  0.00  0.00     0.123 A 
HETATM    5  S   UNK N   1      34.551  13.892  10.491  0.00  0.00    -0.067 SA
HETATM    6  C   UNK N   1      35.198  13.444  11.940  0.00  0.00     0.033 A 
HETATM    7  C   UNK N   1      35.263  12.203  12.562  0.00  0.00     0.021 A 
HETATM    8  C   UNK N   1      35.743  14.595  12.509  0.00  0.00     0.050 A 
HETATM    9  C   UNK N   1      35.911  12.132  13.807  0.00  0.00     0.002 A 
HETATM   10  C   UNK N   1      36.474  13.288  14.391  0.00  0.00     0.002 A 
HETATM   11  C   UNK N   1      36.390  14.532  13.740  0.00  0.00     0.031 A 
HETATM   12  N   UNK N   1      35.602  15.743  11.765  0.00  0.00    -0.346 N 
ATOM     13  HN  UNK N   1      35.945  16.660  12.053  1.00  0.00     0.167 HD
ENDBRANCH   2   4
ENDBRANCH   1   2
BRANCH   1  14
HETATM   14  N   UNK N   1      34.336  16.964   7.194  0.00  0.00    -0.420 N 
HETATM   15  H   UNK N   1      34.085  17.747   6.591  0.00  0.00     0.150 HD
HETATM   16  H   UNK N   1      35.224  16.569   6.882  0.00  0.00     0.150 HD
ENDBRANCH   1  14
BRANCH   1  17
HETATM   17  C   UNK N   1      32.377  16.496   8.603  0.00  0.00     0.034 C 
BRANCH  17  18
HETATM   18  C   UNK N   1      31.947  17.917   8.288  0.00  0.00     0.023 C 
BRANCH  18  19
HETATM   19  C   UNK N   1      30.568  18.166   8.859  0.00  0.00     0.138 C 
BRANCH  19  20
HETATM   20  N   UNK N   1      29.601  17.408   8.110  0.00  0.00    -0.227 N 
HETATM   21  C   UNK N   1      28.207  17.564   8.315  0.00  0.00     0.665 C 
HETATM   22  N   UNK N   1      27.762  18.414   9.166  0.00  0.00    -0.235 N 
HETATM   23  N   UNK N   1      27.300  16.814   7.536  0.00  0.00    -0.235 N 
HETATM   24  H   UNK N   1      27.062  19.089   9.011  0.00  0.00     0.174 HD
ATOM     25  HN  UNK N   1      28.173  18.387  10.100  1.00  0.00     0.174 HD
HETATM   26  H   UNK N   1      27.379  16.045   6.926  0.00  0.00     0.174 HD
HETATM   27  H   UNK N   1      26.374  17.136   7.621  0.00  0.00     0.174 HD
HETATM   28  H   UNK N   1      29.916  16.764   7.435  0.00  0.00     0.177 HD
ENDBRANCH  19  20
ENDBRANCH  18  19
ENDBRANCH  17  18
ENDBRANCH   1  17
TORSDOF 7
ENDMDL
