MODEL 1
REMARK VINA RESULT:      -6.1      0.000      0.000
REMARK  8 active torsions:
REMARK  status: ('A' for Active; 'I' for Inactive)
REMARK    1  A    between atoms: S_1  and  C_2 
REMARK    2  A    between atoms: C_2  and  C_3 
REMARK    3  A    between atoms: C_3  and  C_4 
REMARK    4  A    between atoms: C_3  and  C_6 
REMARK       I    between atoms: C_4  and  N_13 
REMARK    5  A    between atoms: C_6  and  C_7 
REMARK    6  A    between atoms: N_13  and  C_14 
REMARK    7  A    between atoms: C_14  and  C_15 
REMARK    8  A    between atoms: C_15  and  O_17 
ROOT
HETATM    1  C   UNK N   1      36.270  12.870  14.787  0.00  0.00     0.091 C 
ENDROOT
BRANCH   1   2
HETATM    2  C   UNK N   1      36.086  12.082  13.480  0.00  0.00     0.085 C 
BRANCH   2   3
HETATM    3  S   UNK N   1      34.528  11.125  13.422  0.00  0.00    -0.181 SA
HETATM    4  H   UNK N   1      33.279  10.801  13.850  0.00  0.00     0.101 HD
ENDBRANCH   2   3
ENDBRANCH   1   2
BRANCH   1   5
HETATM    5  C   UNK N   1      36.777  14.315  14.676  0.00  0.00     0.223 C 
HETATM    6  O   UNK N   1      37.492  14.724  15.576  0.00  0.00    -0.273 OA
HETATM    7  N   UNK N   1      36.531  15.162  13.635  0.00  0.00    -0.351 N 
HETATM    8  H   UNK N   1      36.902  16.070  13.712  0.00  0.00     0.163 HD
BRANCH   7   9
HETATM    9  C   UNK N   1      35.787  14.872  12.436  0.00  0.00     0.232 C 
BRANCH   9  10
HETATM   10  C   UNK N   1      36.026  15.924  11.391  0.00  0.00     0.158 C 
HETATM   11  O   UNK N   1      35.180  16.772  11.150  0.00  0.00    -0.649 OA
BRANCH  10  12
HETATM   12  O   UNK N   1      37.193  15.942  10.723  0.00  0.00    -0.775 OA
HETATM   13  H   UNK N   1      37.265  15.528   9.885  0.00  0.00     0.167 HD
ENDBRANCH  10  12
ENDBRANCH   9  10
ENDBRANCH   7   9
ENDBRANCH   1   5
BRANCH   1  14
HETATM   14  C   UNK N   1      34.970  12.884  15.613  0.00  0.00     0.053 C 
BRANCH  14  15
HETATM   15  C   UNK N   1      35.087  12.474  17.053  0.00  0.00    -0.057 A 
HETATM   16  C   UNK N   1      35.069  13.424  18.082  0.00  0.00     0.007 A 
HETATM   17  C   UNK N   1      35.254  13.028  19.411  0.00  0.00     0.001 A 
HETATM   18  C   UNK N   1      35.471  11.681  19.715  0.00  0.00     0.000 A 
HETATM   19  C   UNK N   1      35.497  10.729  18.690  0.00  0.00     0.001 A 
HETATM   20  C   UNK N   1      35.308  11.127  17.362  0.00  0.00     0.007 A 
ENDBRANCH  14  15
ENDBRANCH   1  14
TORSDOF 8
ENDMDL
MODEL 2
REMARK VINA RESULT:      -5.9      6.406      9.379
REMARK  8 active torsions:
REMARK  status: ('A' for Active; 'I' for Inactive)
REMARK    1  A    between atoms: S_1  and  C_2 
REMARK    2  A    between atoms: C_2  and  C_3 
REMARK    3  A    between atoms: C_3  and  C_4 
REMARK    4  A    between atoms: C_3  and  C_6 
REMARK       I    between atoms: C_4  and  N_13 
REMARK    5  A    between atoms: C_6  and  C_7 
REMARK    6  A    between atoms: N_13  and  C_14 
REMARK    7  A    between atoms: C_14  and  C_15 
REMARK    8  A    between atoms: C_15  and  O_17 
ROOT
HETATM    1  C   UNK N   1      33.352  16.647   8.053  0.00  0.00     0.091 C 
ENDROOT
BRANCH   1   2
HETATM    2  C   UNK N   1      33.869  15.425   7.276  0.00  0.00     0.085 C 
BRANCH   2   3
HETATM    3  S   UNK N   1      33.801  15.636   5.461  0.00  0.00    -0.181 SA
HETATM    4  H   UNK N   1      33.686  16.369   4.321  0.00  0.00     0.101 HD
ENDBRANCH   2   3
ENDBRANCH   1   2
BRANCH   1   5
HETATM    5  C   UNK N   1      34.394  17.646   8.575  0.00  0.00     0.223 C 
HETATM    6  O   UNK N   1      34.581  18.652   7.911  0.00  0.00    -0.273 OA
HETATM    7  N   UNK N   1      35.094  17.522   9.739  0.00  0.00    -0.351 N 
HETATM    8  H   UNK N   1      35.748  18.231   9.934  0.00  0.00     0.163 HD
BRANCH   7   9
HETATM    9  C   UNK N   1      34.981  16.467  10.714  0.00  0.00     0.232 C 
BRANCH   9  10
HETATM   10  C   UNK N   1      36.033  15.420  10.493  0.00  0.00     0.158 C 
HETATM   11  O   UNK N   1      35.727  14.284  10.163  0.00  0.00    -0.649 OA
BRANCH  10  12
HETATM   12  O   UNK N   1      37.331  15.740  10.646  0.00  0.00    -0.775 OA
HETATM   13  H   UNK N   1      37.999  15.123  10.419  0.00  0.00     0.167 HD
ENDBRANCH  10  12
ENDBRANCH   9  10
ENDBRANCH   7   9
ENDBRANCH   1   5
BRANCH   1  14
HETATM   14  C   UNK N   1      32.314  17.430   7.225  0.00  0.00     0.053 C 
BRANCH  14  15
HETATM   15  C   UNK N   1      30.946  17.572   7.828  0.00  0.00    -0.057 A 
HETATM   16  C   UNK N   1      29.815  17.041   7.195  0.00  0.00     0.007 A 
HETATM   17  C   UNK N   1      28.542  17.248   7.736  0.00  0.00     0.001 A 
HETATM   18  C   UNK N   1      28.393  17.999   8.906  0.00  0.00     0.000 A 
HETATM   19  C   UNK N   1      29.518  18.536   9.538  0.00  0.00     0.001 A 
HETATM   20  C   UNK N   1      30.792  18.325   8.998  0.00  0.00     0.007 A 
ENDBRANCH  14  15
ENDBRANCH   1  14
TORSDOF 8
ENDMDL
MODEL 3
REMARK VINA RESULT:      -5.9      8.800     12.033
REMARK  8 active torsions:
REMARK  status: ('A' for Active; 'I' for Inactive)
REMARK    1  A    between atoms: S_1  and  C_2 
REMARK    2  A    between atoms: C_2  and  C_3 
REMARK    3  A    between atoms: C_3  and  C_4 
REMARK    4  A    between atoms: C_3  and  C_6 
REMARK       I    between atoms: C_4  and  N_13 
REMARK    5  A    between atoms: C_6  and  C_7 
REMARK    6  A    between atoms: N_13  and  C_14 
REMARK    7  A    between atoms: C_14  and  C_15 
REMARK    8  A    between atoms: C_15  and  O_17 
ROOT
HETATM    1  C   UNK N   1      30.358  17.851   7.705  0.00  0.00     0.091 C 
ENDROOT
BRANCH   1   2
HETATM    2  C   UNK N   1      30.135  18.274   9.166  0.00  0.00     0.085 C 
BRANCH   2   3
HETATM    3  S   UNK N   1      28.979  17.183  10.070  0.00  0.00    -0.181 SA
HETATM    4  H   UNK N   1      28.291  16.026  10.262  0.00  0.00     0.101 HD
ENDBRANCH   2   3
ENDBRANCH   1   2
BRANCH   1   5
HETATM    5  C   UNK N   1      31.285  16.654   7.448  0.00  0.00     0.223 C 
HETATM    6  O   UNK N   1      30.854  15.758   6.741  0.00  0.00    -0.273 OA
HETATM    7  N   UNK N   1      32.563  16.531   7.909  0.00  0.00    -0.351 N 
HETATM    8  H   UNK N   1      33.030  15.695   7.685  0.00  0.00     0.163 HD
BRANCH   7   9
HETATM    9  C   UNK N   1      33.302  17.490   8.689  0.00  0.00     0.232 C 
BRANCH   9  10
HETATM   10  C   UNK N   1      34.320  18.197   7.841  0.00  0.00     0.158 C 
HETATM   11  O   UNK N   1      34.453  17.919   6.659  0.00  0.00    -0.649 OA
BRANCH  10  12
HETATM   12  O   UNK N   1      35.085  19.160   8.387  0.00  0.00    -0.775 OA
HETATM   13  H   UNK N   1      35.053  20.035   8.051  0.00  0.00     0.167 HD
ENDBRANCH  10  12
ENDBRANCH   9  10
ENDBRANCH   7   9
ENDBRANCH   1   5
BRANCH   1  14
HETATM   14  C   UNK N   1      29.016  17.574   6.998  0.00  0.00     0.053 C 
BRANCH  14  15
HETATM   15  C   UNK N   1      28.362  18.744   6.322  0.00  0.00    -0.057 A 
HETATM   16  C   UNK N   1      27.711  19.740   7.063  0.00  0.00     0.007 A 
HETATM   17  C   UNK N   1      27.045  20.781   6.411  0.00  0.00     0.001 A 
HETATM   18  C   UNK N   1      27.014  20.826   5.014  0.00  0.00     0.000 A 
HETATM   19  C   UNK N   1      27.656  19.832   4.270  0.00  0.00     0.001 A 
HETATM   20  C   UNK N   1      28.326  18.792   4.924  0.00  0.00     0.007 A 
ENDBRANCH  14  15
ENDBRANCH   1  14
TORSDOF 8
ENDMDL
MODEL 4
REMARK VINA RESULT:      -5.8      2.380      3.071
REMARK  8 active torsions:
REMARK  status: ('A' for Active; 'I' for Inactive)
REMARK    1  A    between atoms: S_1  and  C_2 
REMARK    2  A    between atoms: C_2  and  C_3 
REMARK    3  A    between atoms: C_3  and  C_4 
REMARK    4  A    between atoms: C_3  and  C_6 
REMARK       I    between atoms: C_4  and  N_13 
REMARK    5  A    between atoms: C_6  and  C_7 
REMARK    6  A    between atoms: N_13  and  C_14 
REMARK    7  A    between atoms: C_14  and  C_15 
REMARK    8  A    between atoms: C_15  and  O_17 
ROOT
HETATM    1  C   UNK N   1      36.329  12.776  13.248  0.00  0.00     0.091 C 
ENDROOT
BRANCH   1   2
HETATM    2  C   UNK N   1      37.520  11.932  12.767  0.00  0.00     0.085 C 
BRANCH   2   3
HETATM    3  S   UNK N   1      37.994  12.267  11.032  0.00  0.00    -0.181 SA
HETATM    4  H   UNK N   1      38.327  11.901   9.765  0.00  0.00     0.101 HD
ENDBRANCH   2   3
ENDBRANCH   1   2
BRANCH   1   5
HETATM    5  C   UNK N   1      35.062  12.771  12.380  0.00  0.00     0.223 C 
HETATM    6  O   UNK N   1      34.456  11.716  12.287  0.00  0.00    -0.273 OA
HETATM    7  N   UNK N   1      34.537  13.856  11.742  0.00  0.00    -0.351 N 
HETATM    8  H   UNK N   1      33.732  13.698  11.200  0.00  0.00     0.163 HD
BRANCH   7   9
HETATM    9  C   UNK N   1      35.033  15.209  11.775  0.00  0.00     0.232 C 
BRANCH   9  10
HETATM   10  C   UNK N   1      35.942  15.473  10.609  0.00  0.00     0.158 C 
HETATM   11  O   UNK N   1      35.593  15.206   9.469  0.00  0.00    -0.649 OA
BRANCH  10  12
HETATM   12  O   UNK N   1      37.149  16.027  10.821  0.00  0.00    -0.775 OA
HETATM   13  H   UNK N   1      37.220  16.854  11.258  0.00  0.00     0.167 HD
ENDBRANCH  10  12
ENDBRANCH   9  10
ENDBRANCH   7   9
ENDBRANCH   1   5
BRANCH   1  14
HETATM   14  C   UNK N   1      35.923  12.392  14.685  0.00  0.00     0.053 C 
BRANCH  14  15
HETATM   15  C   UNK N   1      36.152  13.431  15.744  0.00  0.00    -0.057 A 
HETATM   16  C   UNK N   1      35.407  13.433  16.931  0.00  0.00     0.007 A 
HETATM   17  C   UNK N   1      35.584  14.452  17.872  0.00  0.00     0.001 A 
HETATM   18  C   UNK N   1      36.497  15.482  17.625  0.00  0.00     0.000 A 
HETATM   19  C   UNK N   1      37.238  15.487  16.439  0.00  0.00     0.001 A 
HETATM   20  C   UNK N   1      37.062  14.465  15.500  0.00  0.00     0.007 A 
ENDBRANCH  14  15
ENDBRANCH   1  14
TORSDOF 8
ENDMDL
MODEL 5
REMARK VINA RESULT:      -5.8     20.553     23.574
REMARK  8 active torsions:
REMARK  status: ('A' for Active; 'I' for Inactive)
REMARK    1  A    between atoms: S_1  and  C_2 
REMARK    2  A    between atoms: C_2  and  C_3 
REMARK    3  A    between atoms: C_3  and  C_4 
REMARK    4  A    between atoms: C_3  and  C_6 
REMARK       I    between atoms: C_4  and  N_13 
REMARK    5  A    between atoms: C_6  and  C_7 
REMARK    6  A    between atoms: N_13  and  C_14 
REMARK    7  A    between atoms: C_14  and  C_15 
REMARK    8  A    between atoms: C_15  and  O_17 
ROOT
HETATM    1  C   UNK N   1      28.415  23.957  -3.576  0.00  0.00     0.091 C 
ENDROOT
BRANCH   1   2
HETATM    2  C   UNK N   1      29.121  25.257  -3.992  0.00  0.00     0.085 C 
BRANCH   2   3
HETATM    3  S   UNK N   1      29.811  25.199  -5.685  0.00  0.00    -0.181 SA
HETATM    4  H   UNK N   1      30.483  25.719  -6.747  0.00  0.00     0.101 HD
ENDBRANCH   2   3
ENDBRANCH   1   2
BRANCH   1   5
HETATM    5  C   UNK N   1      28.910  23.260  -2.300  0.00  0.00     0.223 C 
HETATM    6  O   UNK N   1      28.106  23.124  -1.393  0.00  0.00    -0.273 OA
HETATM    7  N   UNK N   1      30.160  22.744  -2.115  0.00  0.00    -0.351 N 
HETATM    8  H   UNK N   1      30.343  22.347  -1.234  0.00  0.00     0.163 HD
BRANCH   7   9
HETATM    9  C   UNK N   1      31.240  22.719  -3.069  0.00  0.00     0.232 C 
BRANCH   9  10
HETATM   10  C   UNK N   1      32.047  21.461  -2.928  0.00  0.00     0.158 C 
HETATM   11  O   UNK N   1      32.903  21.358  -2.062  0.00  0.00    -0.649 OA
BRANCH  10  12
HETATM   12  O   UNK N   1      31.813  20.426  -3.756  0.00  0.00    -0.775 OA
HETATM   13  H   UNK N   1      31.347  20.559  -4.558  0.00  0.00     0.167 HD
ENDBRANCH  10  12
ENDBRANCH   9  10
ENDBRANCH   7   9
ENDBRANCH   1   5
BRANCH   1  14
HETATM   14  C   UNK N   1      26.894  24.170  -3.442  0.00  0.00     0.053 C 
BRANCH  14  15
HETATM   15  C   UNK N   1      26.338  25.425  -4.049  0.00  0.00    -0.057 A 
HETATM   16  C   UNK N   1      26.277  26.620  -3.319  0.00  0.00     0.007 A 
HETATM   17  C   UNK N   1      25.688  27.758  -3.877  0.00  0.00     0.001 A 
HETATM   18  C   UNK N   1      25.146  27.704  -5.165  0.00  0.00     0.000 A 
HETATM   19  C   UNK N   1      25.198  26.513  -5.895  0.00  0.00     0.001 A 
HETATM   20  C   UNK N   1      25.791  25.376  -5.336  0.00  0.00     0.007 A 
ENDBRANCH  14  15
ENDBRANCH   1  14
TORSDOF 8
ENDMDL
MODEL 6
REMARK VINA RESULT:      -5.7      2.533      3.496
REMARK  8 active torsions:
REMARK  status: ('A' for Active; 'I' for Inactive)
REMARK    1  A    between atoms: S_1  and  C_2 
REMARK    2  A    between atoms: C_2  and  C_3 
REMARK    3  A    between atoms: C_3  and  C_4 
REMARK    4  A    between atoms: C_3  and  C_6 
REMARK       I    between atoms: C_4  and  N_13 
REMARK    5  A    between atoms: C_6  and  C_7 
REMARK    6  A    between atoms: N_13  and  C_14 
REMARK    7  A    between atoms: C_14  and  C_15 
REMARK    8  A    between atoms: C_15  and  O_17 
ROOT
HETATM    1  C   UNK N   1      35.560  11.391  14.928  0.00  0.00     0.091 C 
ENDROOT
BRANCH   1   2
HETATM    2  C   UNK N   1      36.269  10.065  15.247  0.00  0.00     0.085 C 
BRANCH   2   3
HETATM    3  S   UNK N   1      36.551   9.019  13.773  0.00  0.00    -0.181 SA
HETATM    4  H   UNK N   1      36.148   8.220  12.748  0.00  0.00     0.101 HD
ENDBRANCH   2   3
ENDBRANCH   1   2
BRANCH   1   5
HETATM    5  C   UNK N   1      34.341  11.335  13.996  0.00  0.00     0.223 C 
HETATM    6  O   UNK N   1      33.315  10.856  14.452  0.00  0.00    -0.273 OA
HETATM    7  N   UNK N   1      34.297  11.814  12.720  0.00  0.00    -0.351 N 
HETATM    8  H   UNK N   1      33.452  11.687  12.233  0.00  0.00     0.163 HD
BRANCH   7   9
HETATM    9  C   UNK N   1      35.354  12.486  12.007  0.00  0.00     0.232 C 
BRANCH   9  10
HETATM   10  C   UNK N   1      35.120  13.969  11.978  0.00  0.00     0.158 C 
HETATM   11  O   UNK N   1      36.006  14.750  12.293  0.00  0.00    -0.649 OA
BRANCH  10  12
HETATM   12  O   UNK N   1      33.925  14.445  11.584  0.00  0.00    -0.775 OA
HETATM   13  H   UNK N   1      33.613  15.266  11.910  0.00  0.00     0.167 HD
ENDBRANCH  10  12
ENDBRANCH   9  10
ENDBRANCH   7   9
ENDBRANCH   1   5
BRANCH   1  14
HETATM   14  C   UNK N   1      35.140  12.120  16.219  0.00  0.00     0.053 C 
BRANCH  14  15
HETATM   15  C   UNK N   1      35.773  13.458  16.469  0.00  0.00    -0.057 A 
HETATM   16  C   UNK N   1      36.696  14.004  15.567  0.00  0.00     0.007 A 
HETATM   17  C   UNK N   1      37.330  15.217  15.855  0.00  0.00     0.001 A 
HETATM   18  C   UNK N   1      37.053  15.883  17.053  0.00  0.00     0.000 A 
HETATM   19  C   UNK N   1      36.138  15.339  17.959  0.00  0.00     0.001 A 
HETATM   20  C   UNK N   1      35.502  14.127  17.668  0.00  0.00     0.007 A 
ENDBRANCH  14  15
ENDBRANCH   1  14
TORSDOF 8
ENDMDL
MODEL 7
REMARK VINA RESULT:      -5.7     21.526     24.647
REMARK  8 active torsions:
REMARK  status: ('A' for Active; 'I' for Inactive)
REMARK    1  A    between atoms: S_1  and  C_2 
REMARK    2  A    between atoms: C_2  and  C_3 
REMARK    3  A    between atoms: C_3  and  C_4 
REMARK    4  A    between atoms: C_3  and  C_6 
REMARK       I    between atoms: C_4  and  N_13 
REMARK    5  A    between atoms: C_6  and  C_7 
REMARK    6  A    between atoms: N_13  and  C_14 
REMARK    7  A    between atoms: C_14  and  C_15 
REMARK    8  A    between atoms: C_15  and  O_17 
ROOT
HETATM    1  C   UNK N   1      27.184  24.621  -5.106  0.00  0.00     0.091 C 
ENDROOT
BRANCH   1   2
HETATM    2  C   UNK N   1      27.076  26.123  -5.414  0.00  0.00     0.085 C 
BRANCH   2   3
HETATM    3  S   UNK N   1      25.350  26.716  -5.539  0.00  0.00    -0.181 SA
HETATM    4  H   UNK N   1      24.397  27.648  -5.810  0.00  0.00     0.101 HD
ENDBRANCH   2   3
ENDBRANCH   1   2
BRANCH   1   5
HETATM    5  C   UNK N   1      27.398  24.212  -3.642  0.00  0.00     0.223 C 
HETATM    6  O   UNK N   1      26.425  24.246  -2.907  0.00  0.00    -0.273 OA
HETATM    7  N   UNK N   1      28.574  23.774  -3.106  0.00  0.00    -0.351 N 
HETATM    8  H   UNK N   1      28.568  23.569  -2.144  0.00  0.00     0.163 HD
BRANCH   7   9
HETATM    9  C   UNK N   1      29.824  23.577  -3.796  0.00  0.00     0.232 C 
BRANCH   9  10
HETATM   10  C   UNK N   1      30.863  23.016  -2.870  0.00  0.00     0.158 C 
HETATM   11  O   UNK N   1      31.932  22.608  -3.300  0.00  0.00    -0.649 OA
BRANCH  10  12
HETATM   12  O   UNK N   1      30.622  22.976  -1.547  0.00  0.00    -0.775 OA
HETATM   13  H   UNK N   1      30.898  23.681  -0.995  0.00  0.00     0.167 HD
ENDBRANCH  10  12
ENDBRANCH   9  10
ENDBRANCH   7   9
ENDBRANCH   1   5
BRANCH   1  14
HETATM   14  C   UNK N   1      25.957  23.856  -5.639  0.00  0.00     0.053 C 
BRANCH  14  15
HETATM   15  C   UNK N   1      26.225  22.790  -6.662  0.00  0.00    -0.057 A 
HETATM   16  C   UNK N   1      25.185  22.015  -7.192  0.00  0.00     0.007 A 
HETATM   17  C   UNK N   1      25.464  20.978  -8.087  0.00  0.00     0.001 A 
HETATM   18  C   UNK N   1      26.787  20.702  -8.447  0.00  0.00     0.000 A 
HETATM   19  C   UNK N   1      27.829  21.469  -7.916  0.00  0.00     0.001 A 
HETATM   20  C   UNK N   1      27.547  22.509  -7.023  0.00  0.00     0.007 A 
ENDBRANCH  14  15
ENDBRANCH   1  14
TORSDOF 8
ENDMDL
MODEL 8
REMARK VINA RESULT:      -5.4     10.308     12.312
REMARK  8 active torsions:
REMARK  status: ('A' for Active; 'I' for Inactive)
REMARK    1  A    between atoms: S_1  and  C_2 
REMARK    2  A    between atoms: C_2  and  C_3 
REMARK    3  A    between atoms: C_3  and  C_4 
REMARK    4  A    between atoms: C_3  and  C_6 
REMARK       I    between atoms: C_4  and  N_13 
REMARK    5  A    between atoms: C_6  and  C_7 
REMARK    6  A    between atoms: N_13  and  C_14 
REMARK    7  A    between atoms: C_14  and  C_15 
REMARK    8  A    between atoms: C_15  and  O_17 
ROOT
HETATM    1  C   UNK N   1      28.909  17.196   4.890  0.00  0.00     0.091 C 
ENDROOT
BRANCH   1   2
HETATM    2  C   UNK N   1      28.832  16.898   3.384  0.00  0.00     0.085 C 
BRANCH   2   3
HETATM    3  S   UNK N   1      29.399  15.215   2.946  0.00  0.00    -0.181 SA
HETATM    4  H   UNK N   1      30.347  14.261   2.746  0.00  0.00     0.101 HD
ENDBRANCH   2   3
ENDBRANCH   1   2
BRANCH   1   5
HETATM    5  C   UNK N   1      27.591  17.207   5.677  0.00  0.00     0.223 C 
HETATM    6  O   UNK N   1      26.717  16.438   5.309  0.00  0.00    -0.273 OA
HETATM    7  N   UNK N   1      27.333  17.971   6.777  0.00  0.00    -0.351 N 
HETATM    8  H   UNK N   1      26.432  17.890   7.165  0.00  0.00     0.163 HD
BRANCH   7   9
HETATM    9  C   UNK N   1      28.235  18.883   7.433  0.00  0.00     0.232 C 
BRANCH   9  10
HETATM   10  C   UNK N   1      28.403  18.520   8.880  0.00  0.00     0.158 C 
HETATM   11  O   UNK N   1      29.414  18.834   9.492  0.00  0.00    -0.649 OA
BRANCH  10  12
HETATM   12  O   UNK N   1      27.422  17.855   9.517  0.00  0.00    -0.775 OA
HETATM   13  H   UNK N   1      27.465  17.725  10.444  0.00  0.00     0.167 HD
ENDBRANCH  10  12
ENDBRANCH   9  10
ENDBRANCH   7   9
ENDBRANCH   1   5
BRANCH   1  14
HETATM   14  C   UNK N   1      29.878  16.229   5.597  0.00  0.00     0.053 C 
BRANCH  14  15
HETATM   15  C   UNK N   1      31.209  16.793   6.004  0.00  0.00    -0.057 A 
HETATM   16  C   UNK N   1      32.226  17.004   5.064  0.00  0.00     0.007 A 
HETATM   17  C   UNK N   1      33.482  17.460   5.476  0.00  0.00     0.001 A 
HETATM   18  C   UNK N   1      33.731  17.696   6.831  0.00  0.00     0.000 A 
HETATM   19  C   UNK N   1      32.721  17.482   7.774  0.00  0.00     0.001 A 
HETATM   20  C   UNK N   1      31.464  17.028   7.360  0.00  0.00     0.007 A 
ENDBRANCH  14  15
ENDBRANCH   1  14
TORSDOF 8
ENDMDL
MODEL 9
REMARK VINA RESULT:      -5.4      8.979     11.354
REMARK  8 active torsions:
REMARK  status: ('A' for Active; 'I' for Inactive)
REMARK    1  A    between atoms: S_1  and  C_2 
REMARK    2  A    between atoms: C_2  and  C_3 
REMARK    3  A    between atoms: C_3  and  C_4 
REMARK    4  A    between atoms: C_3  and  C_6 
REMARK       I    between atoms: C_4  and  N_13 
REMARK    5  A    between atoms: C_6  and  C_7 
REMARK    6  A    between atoms: N_13  and  C_14 
REMARK    7  A    between atoms: C_14  and  C_15 
REMARK    8  A    between atoms: C_15  and  O_17 
ROOT
HETATM    1  C   UNK N   1      30.036  17.679   7.350  0.00  0.00     0.091 C 
ENDROOT
BRANCH   1   2
HETATM    2  C   UNK N   1      28.621  18.269   7.465  0.00  0.00     0.085 C 
BRANCH   2   3
HETATM    3  S   UNK N   1      27.888  18.719   5.851  0.00  0.00    -0.181 SA
HETATM    4  H   UNK N   1      27.927  19.243   4.597  0.00  0.00     0.101 HD
ENDBRANCH   2   3
ENDBRANCH   1   2
BRANCH   1   5
HETATM    5  C   UNK N   1      30.748  17.289   8.653  0.00  0.00     0.223 C 
HETATM    6  O   UNK N   1      30.072  16.756   9.518  0.00  0.00    -0.273 OA
HETATM    7  N   UNK N   1      32.079  17.450   8.906  0.00  0.00    -0.351 N 
HETATM    8  H   UNK N   1      32.391  17.175   9.797  0.00  0.00     0.163 HD
BRANCH   7   9
HETATM    9  C   UNK N   1      33.077  17.979   8.011  0.00  0.00     0.232 C 
BRANCH   9  10
HETATM   10  C   UNK N   1      34.386  18.167   8.720  0.00  0.00     0.158 C 
HETATM   11  O   UNK N   1      35.178  19.025   8.359  0.00  0.00    -0.649 OA
BRANCH  10  12
HETATM   12  O   UNK N   1      34.685  17.391   9.778  0.00  0.00    -0.775 OA
HETATM   13  H   UNK N   1      34.806  16.468   9.668  0.00  0.00     0.167 HD
ENDBRANCH  10  12
ENDBRANCH   9  10
ENDBRANCH   7   9
ENDBRANCH   1   5
BRANCH   1  14
HETATM   14  C   UNK N   1      30.052  16.455   6.414  0.00  0.00     0.053 C 
BRANCH  14  15
HETATM   15  C   UNK N   1      31.147  16.411   5.388  0.00  0.00    -0.057 A 
HETATM   16  C   UNK N   1      31.380  17.493   4.528  0.00  0.00     0.007 A 
HETATM   17  C   UNK N   1      32.355  17.403   3.530  0.00  0.00     0.001 A 
HETATM   18  C   UNK N   1      33.095  16.226   3.379  0.00  0.00     0.000 A 
HETATM   19  C   UNK N   1      32.862  15.142   4.231  0.00  0.00     0.001 A 
HETATM   20  C   UNK N   1      31.887  15.234   5.230  0.00  0.00     0.007 A 
ENDBRANCH  14  15
ENDBRANCH   1  14
TORSDOF 8
ENDMDL
