MODEL 1
REMARK VINA RESULT:      -5.3      0.000      0.000
REMARK  3 active torsions:
REMARK  status: ('A' for Active; 'I' for Inactive)
REMARK    1  A    between atoms: C_6  and  C_10 
REMARK    2  A    between atoms: C_7  and  O_8 
REMARK    3  A    between atoms: C_11  and  C_13 
ROOT
HETATM    1  O   UNK N   1      25.126  12.205  10.871  0.00  0.00    -0.280 OA
HETATM    2  C   UNK N   1      24.017  12.581  10.522  0.00  0.00     0.218 A 
HETATM    3  C   UNK N   1      22.815  12.282  11.264  0.00  0.00     0.026 A 
HETATM    4  C   UNK N   1      22.803  11.574  12.580  0.00  0.00     0.056 C 
HETATM    5  S   UNK N   1      23.736  13.523   9.029  0.00  0.00    -0.067 SA
HETATM    6  C   UNK N   1      21.915  13.318   9.288  0.00  0.00     0.079 A 
HETATM    7  C   UNK N   1      21.718  12.667  10.633  0.00  0.00     0.076 A 
HETATM    8  C   UNK N   1      21.358  12.371   8.237  0.00  0.00     0.039 C 
ENDROOT
BRANCH   6   9
HETATM    9  C   UNK N   1      21.144  14.618   9.281  0.00  0.00     0.007 C 
HETATM   10  C   UNK N   1      21.099  15.512   8.280  0.00  0.00    -0.064 C 
HETATM   11  C   UNK N   1      21.868  15.312   7.007  0.00  0.00     0.048 C 
BRANCH  10  12
HETATM   12  C   UNK N   1      20.111  16.601   8.395  0.00  0.00     0.002 C 
HETATM   13  C   UNK N   1      18.969  16.455   9.064  0.00  0.00    -0.030 C 
HETATM   14  C   UNK N   1      18.046  17.614   9.218  0.00  0.00     0.036 C 
ENDBRANCH  10  12
ENDBRANCH   6   9
BRANCH   7  15
HETATM   15  O   UNK N   1      20.488  12.453  11.147  0.00  0.00    -0.362 OA
HETATM   16  H   UNK N   1      19.670  12.813  10.864  0.00  0.00     0.217 HD
ENDBRANCH   7  15
TORSDOF 3
ENDMDL
MODEL 2
REMARK VINA RESULT:      -5.2     17.339     19.181
REMARK  3 active torsions:
REMARK  status: ('A' for Active; 'I' for Inactive)
REMARK    1  A    between atoms: C_6  and  C_10 
REMARK    2  A    between atoms: C_7  and  O_8 
REMARK    3  A    between atoms: C_11  and  C_13 
ROOT
HETATM    1  O   UNK N   1      30.351  22.995  -5.208  0.00  0.00    -0.280 OA
HETATM    2  C   UNK N   1      29.378  23.636  -4.843  0.00  0.00     0.218 A 
HETATM    3  C   UNK N   1      28.833  23.547  -3.508  0.00  0.00     0.026 A 
HETATM    4  C   UNK N   1      29.450  22.747  -2.408  0.00  0.00     0.056 C 
HETATM    5  S   UNK N   1      28.482  24.743  -5.923  0.00  0.00    -0.067 SA
HETATM    6  C   UNK N   1      27.195  24.925  -4.606  0.00  0.00     0.079 A 
HETATM    7  C   UNK N   1      27.701  24.219  -3.375  0.00  0.00     0.076 A 
HETATM    8  C   UNK N   1      25.920  24.221  -5.044  0.00  0.00     0.039 C 
ENDROOT
BRANCH   6   9
HETATM    9  C   UNK N   1      26.897  26.359  -4.234  0.00  0.00     0.007 C 
HETATM   10  C   UNK N   1      26.162  27.231  -4.943  0.00  0.00    -0.064 C 
HETATM   11  C   UNK N   1      25.545  26.857  -6.259  0.00  0.00     0.048 C 
BRANCH  10  12
HETATM   12  C   UNK N   1      25.814  28.506  -4.288  0.00  0.00     0.002 C 
HETATM   13  C   UNK N   1      26.656  29.537  -4.249  0.00  0.00    -0.030 C 
HETATM   14  C   UNK N   1      26.221  30.829  -3.649  0.00  0.00     0.036 C 
ENDBRANCH  10  12
ENDBRANCH   6   9
BRANCH   7  15
HETATM   15  O   UNK N   1      27.017  24.239  -2.211  0.00  0.00    -0.362 OA
HETATM   16  H   UNK N   1      26.598  24.967  -1.797  0.00  0.00     0.217 HD
ENDBRANCH   7  15
TORSDOF 3
ENDMDL
MODEL 3
REMARK VINA RESULT:      -5.2     13.259     15.523
REMARK  3 active torsions:
REMARK  status: ('A' for Active; 'I' for Inactive)
REMARK    1  A    between atoms: C_6  and  C_10 
REMARK    2  A    between atoms: C_7  and  O_8 
REMARK    3  A    between atoms: C_11  and  C_13 
ROOT
HETATM    1  O   UNK N   1      33.866  13.208   8.743  0.00  0.00    -0.280 OA
HETATM    2  C   UNK N   1      34.648  13.540   9.621  0.00  0.00     0.218 A 
HETATM    3  C   UNK N   1      35.278  14.839   9.663  0.00  0.00     0.026 A 
HETATM    4  C   UNK N   1      34.974  15.945   8.706  0.00  0.00     0.056 C 
HETATM    5  S   UNK N   1      35.136  12.450  10.951  0.00  0.00    -0.067 SA
HETATM    6  C   UNK N   1      36.404  13.699  11.458  0.00  0.00     0.079 A 
HETATM    7  C   UNK N   1      36.189  14.932  10.619  0.00  0.00     0.076 A 
HETATM    8  C   UNK N   1      37.793  13.168  11.139  0.00  0.00     0.039 C 
ENDROOT
BRANCH   6   9
HETATM    9  C   UNK N   1      36.321  14.102  12.912  0.00  0.00     0.007 C 
HETATM   10  C   UNK N   1      36.602  13.327  13.971  0.00  0.00    -0.064 C 
HETATM   11  C   UNK N   1      37.030  11.897  13.813  0.00  0.00     0.048 C 
BRANCH  10  12
HETATM   12  C   UNK N   1      36.668  13.987  15.289  0.00  0.00     0.002 C 
HETATM   13  C   UNK N   1      37.277  15.158  15.467  0.00  0.00    -0.030 C 
HETATM   14  C   UNK N   1      37.242  15.818  16.802  0.00  0.00     0.036 C 
ENDBRANCH  10  12
ENDBRANCH   6   9
BRANCH   7  15
HETATM   15  O   UNK N   1      36.913  16.056  10.807  0.00  0.00    -0.362 OA
HETATM   16  H   UNK N   1      37.841  16.140  10.903  0.00  0.00     0.217 HD
ENDBRANCH   7  15
TORSDOF 3
ENDMDL
MODEL 4
REMARK VINA RESULT:      -5.0     14.796     17.119
REMARK  3 active torsions:
REMARK  status: ('A' for Active; 'I' for Inactive)
REMARK    1  A    between atoms: C_6  and  C_10 
REMARK    2  A    between atoms: C_7  and  O_8 
REMARK    3  A    between atoms: C_11  and  C_13 
ROOT
HETATM    1  O   UNK N   1      35.854  15.622  18.463  0.00  0.00    -0.280 OA
HETATM    2  C   UNK N   1      35.968  14.697  17.673  0.00  0.00     0.218 A 
HETATM    3  C   UNK N   1      36.711  14.803  16.439  0.00  0.00     0.026 A 
HETATM    4  C   UNK N   1      37.498  16.008  16.041  0.00  0.00     0.056 C 
HETATM    5  S   UNK N   1      35.202  13.101  17.928  0.00  0.00    -0.067 SA
HETATM    6  C   UNK N   1      35.708  12.628  16.212  0.00  0.00     0.079 A 
HETATM    7  C   UNK N   1      36.586  13.729  15.676  0.00  0.00     0.076 A 
HETATM    8  C   UNK N   1      34.476  12.554  15.323  0.00  0.00     0.039 C 
ENDROOT
BRANCH   6   9
HETATM    9  C   UNK N   1      36.483  11.333  16.137  0.00  0.00     0.007 C 
HETATM   10  C   UNK N   1      36.061  10.125  16.544  0.00  0.00    -0.064 C 
HETATM   11  C   UNK N   1      34.710   9.931  17.168  0.00  0.00     0.048 C 
BRANCH  10  12
HETATM   12  C   UNK N   1      36.889   8.962  16.174  0.00  0.00     0.002 C 
HETATM   13  C   UNK N   1      37.974   9.077  15.410  0.00  0.00    -0.030 C 
HETATM   14  C   UNK N   1      38.820   7.882  15.138  0.00  0.00     0.036 C 
ENDBRANCH  10  12
ENDBRANCH   6   9
BRANCH   7  15
HETATM   15  O   UNK N   1      37.181  13.640  14.467  0.00  0.00    -0.362 OA
HETATM   16  H   UNK N   1      37.039  13.002  13.796  0.00  0.00     0.217 HD
ENDBRANCH   7  15
TORSDOF 3
ENDMDL
MODEL 5
REMARK VINA RESULT:      -5.0     12.153     14.445
REMARK  3 active torsions:
REMARK  status: ('A' for Active; 'I' for Inactive)
REMARK    1  A    between atoms: C_6  and  C_10 
REMARK    2  A    between atoms: C_7  and  O_8 
REMARK    3  A    between atoms: C_11  and  C_13 
ROOT
HETATM    1  O   UNK N   1      36.016  13.067   8.021  0.00  0.00    -0.280 OA
HETATM    2  C   UNK N   1      35.726  13.637   9.061  0.00  0.00     0.218 A 
HETATM    3  C   UNK N   1      34.363  13.840   9.493  0.00  0.00     0.026 A 
HETATM    4  C   UNK N   1      33.171  13.294   8.776  0.00  0.00     0.056 C 
HETATM    5  S   UNK N   1      36.951  14.323  10.168  0.00  0.00    -0.067 SA
HETATM    6  C   UNK N   1      35.582  15.108  11.135  0.00  0.00     0.079 A 
HETATM    7  C   UNK N   1      34.279  14.599  10.574  0.00  0.00     0.076 A 
HETATM    8  C   UNK N   1      35.612  16.614  10.923  0.00  0.00     0.039 C 
ENDROOT
BRANCH   6   9
HETATM    9  C   UNK N   1      35.612  14.789  12.611  0.00  0.00     0.007 C 
HETATM   10  C   UNK N   1      35.642  13.564  13.162  0.00  0.00    -0.064 C 
HETATM   11  C   UNK N   1      35.627  12.320  12.322  0.00  0.00     0.048 C 
BRANCH  10  12
HETATM   12  C   UNK N   1      35.893  13.484  14.613  0.00  0.00     0.002 C 
HETATM   13  C   UNK N   1      34.987  13.008  15.465  0.00  0.00    -0.030 C 
HETATM   14  C   UNK N   1      35.325  12.873  16.909  0.00  0.00     0.036 C 
ENDBRANCH  10  12
ENDBRANCH   6   9
BRANCH   7  15
HETATM   15  O   UNK N   1      33.091  14.931  11.122  0.00  0.00    -0.362 OA
HETATM   16  H   UNK N   1      32.605  15.725  11.017  0.00  0.00     0.217 HD
ENDBRANCH   7  15
TORSDOF 3
ENDMDL
MODEL 6
REMARK VINA RESULT:      -5.0     17.936     19.896
REMARK  3 active torsions:
REMARK  status: ('A' for Active; 'I' for Inactive)
REMARK    1  A    between atoms: C_6  and  C_10 
REMARK    2  A    between atoms: C_7  and  O_8 
REMARK    3  A    between atoms: C_11  and  C_13 
ROOT
HETATM    1  O   UNK N   1      27.419  28.398  -4.590  0.00  0.00    -0.280 OA
HETATM    2  C   UNK N   1      27.326  27.187  -4.723  0.00  0.00     0.218 A 
HETATM    3  C   UNK N   1      26.104  26.531  -5.126  0.00  0.00     0.026 A 
HETATM    4  C   UNK N   1      24.859  27.257  -5.520  0.00  0.00     0.056 C 
HETATM    5  S   UNK N   1      28.683  26.068  -4.403  0.00  0.00    -0.067 SA
HETATM    6  C   UNK N   1      27.509  24.650  -4.600  0.00  0.00     0.079 A 
HETATM    7  C   UNK N   1      26.193  25.212  -5.071  0.00  0.00     0.076 A 
HETATM    8  C   UNK N   1      27.269  24.000  -3.246  0.00  0.00     0.039 C 
ENDROOT
BRANCH   6   9
HETATM    9  C   UNK N   1      27.961  23.614  -5.603  0.00  0.00     0.007 C 
HETATM   10  C   UNK N   1      29.050  22.834  -5.508  0.00  0.00    -0.064 C 
HETATM   11  C   UNK N   1      29.992  22.932  -4.344  0.00  0.00     0.048 C 
BRANCH  10  12
HETATM   12  C   UNK N   1      29.181  21.739  -6.488  0.00  0.00     0.002 C 
HETATM   13  C   UNK N   1      30.016  20.718  -6.303  0.00  0.00    -0.030 C 
HETATM   14  C   UNK N   1      30.046  19.598  -7.285  0.00  0.00     0.036 C 
ENDBRANCH  10  12
ENDBRANCH   6   9
BRANCH   7  15
HETATM   15  O   UNK N   1      25.149  24.414  -5.382  0.00  0.00    -0.362 OA
HETATM   16  H   UNK N   1      24.904  24.079  -6.222  0.00  0.00     0.217 HD
ENDBRANCH   7  15
TORSDOF 3
ENDMDL
MODEL 7
REMARK VINA RESULT:      -4.8      7.958      9.876
REMARK  3 active torsions:
REMARK  status: ('A' for Active; 'I' for Inactive)
REMARK    1  A    between atoms: C_6  and  C_10 
REMARK    2  A    between atoms: C_7  and  O_8 
REMARK    3  A    between atoms: C_11  and  C_13 
ROOT
HETATM    1  O   UNK N   1      26.914  15.833   4.426  0.00  0.00    -0.280 OA
HETATM    2  C   UNK N   1      27.419  16.431   5.364  0.00  0.00     0.218 A 
HETATM    3  C   UNK N   1      27.052  16.192   6.740  0.00  0.00     0.026 A 
HETATM    4  C   UNK N   1      26.096  15.129   7.174  0.00  0.00     0.056 C 
HETATM    5  S   UNK N   1      28.657  17.703   5.151  0.00  0.00    -0.067 SA
HETATM    6  C   UNK N   1      28.516  18.089   6.955  0.00  0.00     0.079 A 
HETATM    7  C   UNK N   1      27.622  17.045   7.574  0.00  0.00     0.076 A 
HETATM    8  C   UNK N   1      27.835  19.437   7.134  0.00  0.00     0.039 C 
ENDROOT
BRANCH   6   9
HETATM    9  C   UNK N   1      29.836  18.070   7.691  0.00  0.00     0.007 C 
HETATM   10  C   UNK N   1      30.824  17.174   7.534  0.00  0.00    -0.064 C 
HETATM   11  C   UNK N   1      30.703  16.026   6.575  0.00  0.00     0.048 C 
BRANCH  10  12
HETATM   12  C   UNK N   1      32.112  17.470   8.189  0.00  0.00     0.002 C 
HETATM   13  C   UNK N   1      33.175  17.892   7.507  0.00  0.00    -0.030 C 
HETATM   14  C   UNK N   1      34.425  18.255   8.231  0.00  0.00     0.036 C 
ENDBRANCH  10  12
ENDBRANCH   6   9
BRANCH   7  15
HETATM   15  O   UNK N   1      27.386  17.009   8.903  0.00  0.00    -0.362 OA
HETATM   16  H   UNK N   1      27.298  17.728   9.497  0.00  0.00     0.217 HD
ENDBRANCH   7  15
TORSDOF 3
ENDMDL
MODEL 8
REMARK VINA RESULT:      -4.8     11.679     14.335
REMARK  3 active torsions:
REMARK  status: ('A' for Active; 'I' for Inactive)
REMARK    1  A    between atoms: C_6  and  C_10 
REMARK    2  A    between atoms: C_7  and  O_8 
REMARK    3  A    between atoms: C_11  and  C_13 
ROOT
HETATM    1  O   UNK N   1      31.930  15.283   7.714  0.00  0.00    -0.280 OA
HETATM    2  C   UNK N   1      32.875  15.429   8.475  0.00  0.00     0.218 A 
HETATM    3  C   UNK N   1      33.487  16.712   8.731  0.00  0.00     0.026 A 
HETATM    4  C   UNK N   1      32.978  18.004   8.180  0.00  0.00     0.056 C 
HETATM    5  S   UNK N   1      33.641  14.069   9.344  0.00  0.00    -0.067 SA
HETATM    6  C   UNK N   1      34.975  15.226   9.899  0.00  0.00     0.079 A 
HETATM    7  C   UNK N   1      34.576  16.616   9.476  0.00  0.00     0.076 A 
HETATM    8  C   UNK N   1      36.272  14.885   9.182  0.00  0.00     0.039 C 
ENDROOT
BRANCH   6   9
HETATM    9  C   UNK N   1      35.194  15.237  11.395  0.00  0.00     0.007 C 
HETATM   10  C   UNK N   1      35.638  14.215  12.143  0.00  0.00    -0.064 C 
HETATM   11  C   UNK N   1      35.960  12.878  11.543  0.00  0.00     0.048 C 
BRANCH  10  12
HETATM   12  C   UNK N   1      35.990  14.511  13.545  0.00  0.00     0.002 C 
HETATM   13  C   UNK N   1      36.393  13.564  14.391  0.00  0.00    -0.030 C 
HETATM   14  C   UNK N   1      36.815  13.932  15.771  0.00  0.00     0.036 C 
ENDBRANCH  10  12
ENDBRANCH   6   9
BRANCH   7  15
HETATM   15  O   UNK N   1      35.312  17.699   9.805  0.00  0.00    -0.362 OA
HETATM   16  H   UNK N   1      35.970  17.774  10.469  0.00  0.00     0.217 HD
ENDBRANCH   7  15
TORSDOF 3
ENDMDL
MODEL 9
REMARK VINA RESULT:      -4.8      8.701     11.031
REMARK  3 active torsions:
REMARK  status: ('A' for Active; 'I' for Inactive)
REMARK    1  A    between atoms: C_6  and  C_10 
REMARK    2  A    between atoms: C_7  and  O_8 
REMARK    3  A    between atoms: C_11  and  C_13 
ROOT
HETATM    1  O   UNK N   1      26.607  20.939   6.553  0.00  0.00    -0.280 OA
HETATM    2  C   UNK N   1      27.340  19.994   6.300  0.00  0.00     0.218 A 
HETATM    3  C   UNK N   1      27.577  19.522   4.956  0.00  0.00     0.026 A 
HETATM    4  C   UNK N   1      27.041  20.188   3.731  0.00  0.00     0.056 C 
HETATM    5  S   UNK N   1      28.187  19.055   7.563  0.00  0.00    -0.067 SA
HETATM    6  C   UNK N   1      28.702  17.843   6.262  0.00  0.00     0.079 A 
HETATM    7  C   UNK N   1      28.290  18.407   4.927  0.00  0.00     0.076 A 
HETATM    8  C   UNK N   1      27.946  16.538   6.459  0.00  0.00     0.039 C 
ENDROOT
BRANCH   6   9
HETATM    9  C   UNK N   1      30.190  17.583   6.221  0.00  0.00     0.007 C 
HETATM   10  C   UNK N   1      30.974  17.270   7.265  0.00  0.00    -0.064 C 
HETATM   11  C   UNK N   1      30.427  17.160   8.658  0.00  0.00     0.048 C 
BRANCH  10  12
HETATM   12  C   UNK N   1      32.353  16.841   6.966  0.00  0.00     0.002 C 
HETATM   13  C   UNK N   1      32.733  16.473   5.743  0.00  0.00    -0.030 C 
HETATM   14  C   UNK N   1      34.158  16.129   5.482  0.00  0.00     0.036 C 
ENDBRANCH  10  12
ENDBRANCH   6   9
BRANCH   7  15
HETATM   15  O   UNK N   1      28.597  17.787   3.767  0.00  0.00    -0.362 OA
HETATM   16  H   UNK N   1      28.384  16.915   3.501  0.00  0.00     0.217 HD
ENDBRANCH   7  15
TORSDOF 3
ENDMDL
