MODEL 1
REMARK VINA RESULT:      -5.1      0.000      0.000
REMARK  3 active torsions:
REMARK  status: ('A' for Active; 'I' for Inactive)
REMARK    1  A    between atoms: C_4  and  C_10 
REMARK    2  A    between atoms: C_6  and  O_7 
REMARK    3  A    between atoms: C_11  and  C_12 
ROOT
HETATM    1  O   UNK N   1      20.745  18.684   7.182  0.00  0.00    -0.280 OA
HETATM    2  C   UNK N   1      20.740  17.504   7.493  0.00  0.00     0.218 A 
HETATM    3  S   UNK N   1      21.828  16.328   6.800  0.00  0.00    -0.067 SA
HETATM    4  C   UNK N   1      21.140  14.910   7.802  0.00  0.00     0.079 A 
HETATM    5  C   UNK N   1      22.265  14.487   6.880  0.00  0.00     0.039 A 
HETATM    6  C   UNK N   1      20.032  15.638   8.628  0.00  0.00     0.076 A 
HETATM    7  C   UNK N   1      19.858  16.943   8.448  0.00  0.00     0.026 A 
HETATM    8  C   UNK N   1      18.832  17.752   9.179  0.00  0.00     0.056 C 
ENDROOT
BRANCH   4   9
HETATM    9  C   UNK N   1      21.255  13.410   8.084  0.00  0.00     0.001 C 
HETATM   10  C   UNK N   1      21.575  12.530   9.053  0.00  0.00    -0.003 C 
BRANCH  10  11
HETATM   11  C   UNK N   1      22.000  12.804  10.423  0.00  0.00    -0.011 C 
HETATM   12  C   UNK N   1      22.830  11.974  11.041  0.00  0.00     0.011 C 
ENDBRANCH  10  11
ENDBRANCH   4   9
BRANCH   6  13
HETATM   13  O   UNK N   1      19.244  15.012   9.514  0.00  0.00    -0.362 OA
HETATM   14  H   UNK N   1      18.580  14.422   9.215  0.00  0.00     0.217 HD
ENDBRANCH   6  13
TORSDOF 3
ENDMDL
MODEL 2
REMARK VINA RESULT:      -4.9      8.118      9.572
REMARK  3 active torsions:
REMARK  status: ('A' for Active; 'I' for Inactive)
REMARK    1  A    between atoms: C_4  and  C_10 
REMARK    2  A    between atoms: C_6  and  O_7 
REMARK    3  A    between atoms: C_11  and  C_12 
ROOT
HETATM    1  O   UNK N   1      31.572  17.072   8.343  0.00  0.00    -0.280 OA
HETATM    2  C   UNK N   1      30.516  17.455   7.867  0.00  0.00     0.218 A 
HETATM    3  S   UNK N   1      30.064  17.185   6.202  0.00  0.00    -0.067 SA
HETATM    4  C   UNK N   1      28.419  18.052   6.373  0.00  0.00     0.079 A 
HETATM    5  C   UNK N   1      28.659  17.516   4.976  0.00  0.00     0.039 A 
HETATM    6  C   UNK N   1      28.461  18.480   7.874  0.00  0.00     0.076 A 
HETATM    7  C   UNK N   1      29.530  18.164   8.596  0.00  0.00     0.026 A 
HETATM    8  C   UNK N   1      29.689  18.516  10.043  0.00  0.00     0.056 C 
ENDROOT
BRANCH   4   9
HETATM    9  C   UNK N   1      27.145  18.468   5.633  0.00  0.00     0.001 C 
HETATM   10  C   UNK N   1      26.510  19.544   5.126  0.00  0.00    -0.003 C 
BRANCH  10  11
HETATM   11  C   UNK N   1      26.943  20.938   5.134  0.00  0.00    -0.011 C 
HETATM   12  C   UNK N   1      26.860  21.655   6.247  0.00  0.00     0.011 C 
ENDBRANCH  10  11
ENDBRANCH   4   9
BRANCH   6  13
HETATM   13  O   UNK N   1      27.469  19.153   8.475  0.00  0.00    -0.362 OA
HETATM   14  H   UNK N   1      27.089  18.821   9.264  0.00  0.00     0.217 HD
ENDBRANCH   6  13
TORSDOF 3
ENDMDL
MODEL 3
REMARK VINA RESULT:      -4.9      9.896     11.276
REMARK  3 active torsions:
REMARK  status: ('A' for Active; 'I' for Inactive)
REMARK    1  A    between atoms: C_4  and  C_10 
REMARK    2  A    between atoms: C_6  and  O_7 
REMARK    3  A    between atoms: C_11  and  C_12 
ROOT
HETATM    1  O   UNK N   1      34.473  17.489   6.005  0.00  0.00    -0.280 OA
HETATM    2  C   UNK N   1      33.322  17.395   6.401  0.00  0.00     0.218 A 
HETATM    3  S   UNK N   1      31.953  17.227   5.330  0.00  0.00    -0.067 SA
HETATM    4  C   UNK N   1      30.709  17.158   6.721  0.00  0.00     0.079 A 
HETATM    5  C   UNK N   1      30.068  17.048   5.352  0.00  0.00     0.039 A 
HETATM    6  C   UNK N   1      31.644  17.293   7.965  0.00  0.00     0.076 A 
HETATM    7  C   UNK N   1      32.953  17.410   7.768  0.00  0.00     0.026 A 
HETATM    8  C   UNK N   1      33.950  17.544   8.876  0.00  0.00     0.056 C 
ENDROOT
BRANCH   4   9
HETATM    9  C   UNK N   1      29.221  17.031   7.059  0.00  0.00     0.001 C 
HETATM   10  C   UNK N   1      28.149  17.757   7.436  0.00  0.00    -0.003 C 
BRANCH  10  11
HETATM   11  C   UNK N   1      28.070  19.192   7.688  0.00  0.00    -0.011 C 
HETATM   12  C   UNK N   1      27.640  20.013   6.738  0.00  0.00     0.011 C 
ENDBRANCH  10  11
ENDBRANCH   4   9
BRANCH   6  13
HETATM   13  O   UNK N   1      31.192  17.296   9.227  0.00  0.00    -0.362 OA
HETATM   14  H   UNK N   1      31.361  16.564   9.787  0.00  0.00     0.217 HD
ENDBRANCH   6  13
TORSDOF 3
ENDMDL
MODEL 4
REMARK VINA RESULT:      -4.9      6.088      7.853
REMARK  3 active torsions:
REMARK  status: ('A' for Active; 'I' for Inactive)
REMARK    1  A    between atoms: C_4  and  C_10 
REMARK    2  A    between atoms: C_6  and  O_7 
REMARK    3  A    between atoms: C_11  and  C_12 
ROOT
HETATM    1  O   UNK N   1      21.544  19.594   3.352  0.00  0.00    -0.280 OA
HETATM    2  C   UNK N   1      22.733  19.455   3.591  0.00  0.00     0.218 A 
HETATM    3  S   UNK N   1      23.977  20.431   2.850  0.00  0.00    -0.067 SA
HETATM    4  C   UNK N   1      25.369  19.570   3.750  0.00  0.00     0.079 A 
HETATM    5  C   UNK N   1      25.855  20.668   2.828  0.00  0.00     0.039 A 
HETATM    6  C   UNK N   1      24.575  18.522   4.595  0.00  0.00     0.076 A 
HETATM    7  C   UNK N   1      23.251  18.493   4.491  0.00  0.00     0.026 A 
HETATM    8  C   UNK N   1      22.380  17.538   5.248  0.00  0.00     0.056 C 
ENDROOT
BRANCH   4   9
HETATM    9  C   UNK N   1      26.886  19.517   3.943  0.00  0.00     0.001 C 
HETATM   10  C   UNK N   1      27.859  19.826   4.823  0.00  0.00    -0.003 C 
BRANCH  10  11
HETATM   11  C   UNK N   1      27.727  20.434   6.144  0.00  0.00    -0.011 C 
HETATM   12  C   UNK N   1      27.137  21.614   6.278  0.00  0.00     0.011 C 
ENDBRANCH  10  11
ENDBRANCH   4   9
BRANCH   6  13
HETATM   13  O   UNK N   1      25.163  17.649   5.424  0.00  0.00    -0.362 OA
HETATM   14  H   UNK N   1      25.908  17.158   5.137  0.00  0.00     0.217 HD
ENDBRANCH   6  13
TORSDOF 3
ENDMDL
MODEL 5
REMARK VINA RESULT:      -4.8      6.102      7.749
REMARK  3 active torsions:
REMARK  status: ('A' for Active; 'I' for Inactive)
REMARK    1  A    between atoms: C_4  and  C_10 
REMARK    2  A    between atoms: C_6  and  O_7 
REMARK    3  A    between atoms: C_11  and  C_12 
ROOT
HETATM    1  O   UNK N   1      20.947  17.524   4.069  0.00  0.00    -0.280 OA
HETATM    2  C   UNK N   1      21.974  18.155   3.880  0.00  0.00     0.218 A 
HETATM    3  S   UNK N   1      23.567  17.491   4.145  0.00  0.00    -0.067 SA
HETATM    4  C   UNK N   1      24.446  19.058   3.634  0.00  0.00     0.079 A 
HETATM    5  C   UNK N   1      25.400  17.950   4.032  0.00  0.00     0.039 A 
HETATM    6  C   UNK N   1      23.235  19.983   3.293  0.00  0.00     0.076 A 
HETATM    7  C   UNK N   1      22.005  19.497   3.427  0.00  0.00     0.026 A 
HETATM    8  C   UNK N   1      20.766  20.282   3.131  0.00  0.00     0.056 C 
ENDROOT
BRANCH   4   9
HETATM    9  C   UNK N   1      25.816  19.715   3.447  0.00  0.00     0.001 C 
HETATM   10  C   UNK N   1      26.733  20.467   4.089  0.00  0.00    -0.003 C 
BRANCH  10  11
HETATM   11  C   UNK N   1      26.683  20.992   5.450  0.00  0.00    -0.011 C 
HETATM   12  C   UNK N   1      27.514  20.528   6.374  0.00  0.00     0.011 C 
ENDBRANCH  10  11
ENDBRANCH   4   9
BRANCH   6  13
HETATM   13  O   UNK N   1      23.371  21.247   2.868  0.00  0.00    -0.362 OA
HETATM   14  H   UNK N   1      22.770  21.905   3.155  0.00  0.00     0.217 HD
ENDBRANCH   6  13
TORSDOF 3
ENDMDL
MODEL 6
REMARK VINA RESULT:      -4.8     15.963     17.962
REMARK  3 active torsions:
REMARK  status: ('A' for Active; 'I' for Inactive)
REMARK    1  A    between atoms: C_4  and  C_10 
REMARK    2  A    between atoms: C_6  and  O_7 
REMARK    3  A    between atoms: C_11  and  C_12 
ROOT
HETATM    1  O   UNK N   1      30.346  22.718  -4.701  0.00  0.00    -0.280 OA
HETATM    2  C   UNK N   1      29.259  23.271  -4.733  0.00  0.00     0.218 A 
HETATM    3  S   UNK N   1      28.499  23.803  -6.212  0.00  0.00    -0.067 SA
HETATM    4  C   UNK N   1      26.989  24.479  -5.345  0.00  0.00     0.079 A 
HETATM    5  C   UNK N   1      26.933  24.656  -6.848  0.00  0.00     0.039 A 
HETATM    6  C   UNK N   1      27.332  24.159  -3.855  0.00  0.00     0.076 A 
HETATM    7  C   UNK N   1      28.481  23.550  -3.583  0.00  0.00     0.026 A 
HETATM    8  C   UNK N   1      28.922  23.190  -2.198  0.00  0.00     0.056 C 
ENDROOT
BRANCH   4   9
HETATM    9  C   UNK N   1      25.644  25.181  -5.547  0.00  0.00     0.001 C 
HETATM   10  C   UNK N   1      25.041  26.381  -5.431  0.00  0.00    -0.003 C 
BRANCH  10  11
HETATM   11  C   UNK N   1      25.617  27.645  -4.980  0.00  0.00    -0.011 C 
HETATM   12  C   UNK N   1      25.684  27.921  -3.684  0.00  0.00     0.011 C 
ENDBRANCH  10  11
ENDBRANCH   4   9
BRANCH   6  13
HETATM   13  O   UNK N   1      26.522  24.467  -2.832  0.00  0.00    -0.362 OA
HETATM   14  H   UNK N   1      26.295  25.360  -2.667  0.00  0.00     0.217 HD
ENDBRANCH   6  13
TORSDOF 3
ENDMDL
MODEL 7
REMARK VINA RESULT:      -4.8      8.509      9.658
REMARK  3 active torsions:
REMARK  status: ('A' for Active; 'I' for Inactive)
REMARK    1  A    between atoms: C_4  and  C_10 
REMARK    2  A    between atoms: C_6  and  O_7 
REMARK    3  A    between atoms: C_11  and  C_12 
ROOT
HETATM    1  O   UNK N   1      26.675  20.955   6.590  0.00  0.00    -0.280 OA
HETATM    2  C   UNK N   1      27.396  20.003   6.337  0.00  0.00     0.218 A 
HETATM    3  S   UNK N   1      28.211  19.067   7.565  0.00  0.00    -0.067 SA
HETATM    4  C   UNK N   1      29.017  17.915   6.335  0.00  0.00     0.079 A 
HETATM    5  C   UNK N   1      29.373  17.587   7.771  0.00  0.00     0.039 A 
HETATM    6  C   UNK N   1      28.476  18.491   4.988  0.00  0.00     0.076 A 
HETATM    7  C   UNK N   1      27.663  19.541   5.025  0.00  0.00     0.026 A 
HETATM    8  C   UNK N   1      27.079  20.182   3.804  0.00  0.00     0.056 C 
ENDROOT
BRANCH   4   9
HETATM    9  C   UNK N   1      29.946  16.708   6.180  0.00  0.00     0.001 C 
HETATM   10  C   UNK N   1      31.198  16.369   5.816  0.00  0.00    -0.003 C 
BRANCH  10  11
HETATM   11  C   UNK N   1      32.279  17.240   5.363  0.00  0.00    -0.011 C 
HETATM   12  C   UNK N   1      32.337  17.624   4.094  0.00  0.00     0.011 C 
ENDBRANCH  10  11
ENDBRANCH   4   9
BRANCH   6  13
HETATM   13  O   UNK N   1      28.791  17.978   3.790  0.00  0.00    -0.362 OA
HETATM   14  H   UNK N   1      29.424  17.291   3.726  0.00  0.00     0.217 HD
ENDBRANCH   6  13
TORSDOF 3
ENDMDL
MODEL 8
REMARK VINA RESULT:      -4.6      2.328      4.990
REMARK  3 active torsions:
REMARK  status: ('A' for Active; 'I' for Inactive)
REMARK    1  A    between atoms: C_4  and  C_10 
REMARK    2  A    between atoms: C_6  and  O_7 
REMARK    3  A    between atoms: C_11  and  C_12 
ROOT
HETATM    1  O   UNK N   1      19.215  15.015   9.402  0.00  0.00    -0.280 OA
HETATM    2  C   UNK N   1      19.910  15.641   8.618  0.00  0.00     0.218 A 
HETATM    3  S   UNK N   1      21.065  14.886   7.549  0.00  0.00    -0.067 SA
HETATM    4  C   UNK N   1      21.609  16.501   6.785  0.00  0.00     0.079 A 
HETATM    5  C   UNK N   1      22.334  15.303   6.207  0.00  0.00     0.039 A 
HETATM    6  C   UNK N   1      20.712  17.516   7.563  0.00  0.00     0.076 A 
HETATM    7  C   UNK N   1      19.868  17.050   8.477  0.00  0.00     0.026 A 
HETATM    8  C   UNK N   1      18.957  17.920   9.286  0.00  0.00     0.056 C 
ENDROOT
BRANCH   4   9
HETATM    9  C   UNK N   1      22.545  17.142   5.758  0.00  0.00     0.001 C 
HETATM   10  C   UNK N   1      22.543  17.858   4.616  0.00  0.00    -0.003 C 
BRANCH  10  11
HETATM   11  C   UNK N   1      21.396  18.340   3.851  0.00  0.00    -0.011 C 
HETATM   12  C   UNK N   1      21.370  19.591   3.408  0.00  0.00     0.011 C 
ENDBRANCH  10  11
ENDBRANCH   4   9
BRANCH   6  13
HETATM   13  O   UNK N   1      20.749  18.840   7.354  0.00  0.00    -0.362 OA
HETATM   14  H   UNK N   1      21.564  19.263   7.172  0.00  0.00     0.217 HD
ENDBRANCH   6  13
TORSDOF 3
ENDMDL
MODEL 9
REMARK VINA RESULT:      -4.6     17.736     19.927
REMARK  3 active torsions:
REMARK  status: ('A' for Active; 'I' for Inactive)
REMARK    1  A    between atoms: C_4  and  C_10 
REMARK    2  A    between atoms: C_6  and  O_7 
REMARK    3  A    between atoms: C_11  and  C_12 
ROOT
HETATM    1  O   UNK N   1      28.564  30.781  -5.425  0.00  0.00    -0.280 OA
HETATM    2  C   UNK N   1      27.911  29.764  -5.595  0.00  0.00     0.218 A 
HETATM    3  S   UNK N   1      26.693  29.212  -4.472  0.00  0.00    -0.067 SA
HETATM    4  C   UNK N   1      26.263  27.701  -5.483  0.00  0.00     0.079 A 
HETATM    5  C   UNK N   1      25.443  27.813  -4.214  0.00  0.00     0.039 A 
HETATM    6  C   UNK N   1      27.243  27.859  -6.688  0.00  0.00     0.076 A 
HETATM    7  C   UNK N   1      28.058  28.908  -6.713  0.00  0.00     0.026 A 
HETATM    8  C   UNK N   1      29.041  29.170  -7.812  0.00  0.00     0.056 C 
ENDROOT
BRANCH   4   9
HETATM    9  C   UNK N   1      25.371  26.459  -5.552  0.00  0.00     0.001 C 
HETATM   10  C   UNK N   1      25.379  25.129  -5.334  0.00  0.00    -0.003 C 
BRANCH  10  11
HETATM   11  C   UNK N   1      26.481  24.294  -4.865  0.00  0.00    -0.011 C 
HETATM   12  C   UNK N   1      26.896  24.384  -3.608  0.00  0.00     0.011 C 
ENDBRANCH  10  11
ENDBRANCH   4   9
BRANCH   6  13
HETATM   13  O   UNK N   1      27.305  26.987  -7.705  0.00  0.00    -0.362 OA
HETATM   14  H   UNK N   1      26.545  26.498  -7.949  0.00  0.00     0.217 HD
ENDBRANCH   6  13
TORSDOF 3
ENDMDL
