REMARK  5 active torsions:
REMARK  status: ('A' for Active; 'I' for Inactive)
REMARK    1  A    between atoms: N_1  and  C_10 
REMARK    2  A    between atoms: C_10  and  C_11 
REMARK    3  A    between atoms: C_11  and  C_12 
REMARK    4  A    between atoms: C_11  and  N_16 
REMARK    5  A    between atoms: C_12  and  C_13 
ROOT
HETATM    1  N   UNK N   1      -0.945  -0.450  -0.070  0.00  0.00     0.124 N 
HETATM    2  C   UNK N   1      -1.533  -1.479  -0.922  0.00  0.00     0.277 C 
HETATM    3  C   UNK N   1      -2.774  -2.035  -0.255  0.00  0.00     0.060 C 
HETATM    4  C   UNK N   1      -3.755  -0.890  -0.088  0.00  0.00     0.277 C 
HETATM    5  N   UNK N   1      -3.175   0.196   0.714  0.00  0.00     0.122 N 
HETATM    6  C   UNK N   1      -4.059   1.344   0.522  0.00  0.00     0.275 C 
HETATM    7  C   UNK N   1      -3.505   2.188  -0.629  0.00  0.00     0.034 C 
HETATM    8  C   UNK N   1      -2.230   1.493  -1.053  0.00  0.00     0.070 C 
HETATM    9  C   UNK N   1      -1.889   0.664   0.176  0.00  0.00     0.456 C 
ENDROOT
BRANCH   1  10
HETATM   10  C   UNK N   1       0.264   0.029  -0.737  0.00  0.00     0.299 C 
BRANCH  10  11
HETATM   11  C   UNK N   1       1.452   0.062   0.212  0.00  0.00     0.102 C 
BRANCH  11  12
HETATM   12  C   UNK N   1       2.669   0.519  -0.591  0.00  0.00     0.030 C 
BRANCH  12  13
HETATM   13  C   UNK N   1       3.961   0.529   0.214  0.00  0.00    -0.021 C 
HETATM   14  C   UNK N   1       4.923   1.518  -0.407  0.00  0.00     0.009 C 
HETATM   15  C   UNK N   1       4.599  -0.848   0.183  0.00  0.00     0.009 C 
ENDBRANCH  12  13
ENDBRANCH  11  12
BRANCH  11  16
HETATM   16  N   UNK N   1       1.670  -1.266   0.765  0.00  0.00    -0.424 N 
HETATM   17  H   UNK N   1       0.941  -1.864   1.152  0.00  0.00     0.150 HD
HETATM   18  H   UNK N   1       2.625  -1.626   0.765  0.00  0.00     0.150 HD
ENDBRANCH  11  16
ENDBRANCH  10  11
ENDBRANCH   1  10
TORSDOF 5
