MODEL 1
REMARK VINA RESULT:      -5.0      0.000      0.000
REMARK  5 active torsions:
REMARK  status: ('A' for Active; 'I' for Inactive)
REMARK    1  A    between atoms: N_1  and  C_10 
REMARK    2  A    between atoms: C_10  and  C_11 
REMARK    3  A    between atoms: C_11  and  C_12 
REMARK    4  A    between atoms: C_11  and  N_16 
REMARK    5  A    between atoms: C_12  and  C_13 
ROOT
HETATM    1  N   UNK N   1      30.861  17.669   7.158  0.00  0.00     0.124 N 
HETATM    2  C   UNK N   1      31.034  16.868   5.950  0.00  0.00     0.277 C 
HETATM    3  C   UNK N   1      32.233  17.376   5.177  0.00  0.00     0.060 C 
HETATM    4  C   UNK N   1      33.450  17.222   6.068  0.00  0.00     0.277 C 
HETATM    5  N   UNK N   1      33.288  17.966   7.325  0.00  0.00     0.122 N 
HETATM    6  C   UNK N   1      34.343  17.478   8.212  0.00  0.00     0.275 C 
HETATM    7  C   UNK N   1      33.767  16.342   9.061  0.00  0.00     0.034 C 
HETATM    8  C   UNK N   1      32.314  16.237   8.652  0.00  0.00     0.070 C 
HETATM    9  C   UNK N   1      32.053  17.603   8.035  0.00  0.00     0.456 C 
ENDROOT
BRANCH   1  10
HETATM   10  C   UNK N   1      29.676  17.165   7.849  0.00  0.00     0.299 C 
BRANCH  10  11
HETATM   11  C   UNK N   1      28.398  17.542   7.117  0.00  0.00     0.102 C 
BRANCH  11  12
HETATM   12  C   UNK N   1      28.200  19.048   7.282  0.00  0.00     0.030 C 
BRANCH  12  13
HETATM   13  C   UNK N   1      27.484  19.701   6.109  0.00  0.00    -0.021 C 
HETATM   14  C   UNK N   1      28.175  19.301   4.823  0.00  0.00     0.009 C 
HETATM   15  C   UNK N   1      27.548  21.212   6.240  0.00  0.00     0.009 C 
ENDBRANCH  12  13
ENDBRANCH  11  12
BRANCH  11  16
HETATM   16  N   UNK N   1      27.277  16.811   7.688  0.00  0.00    -0.424 N 
HETATM   17  H   UNK N   1      27.137  16.641   8.683  0.00  0.00     0.150 HD
HETATM   18  H   UNK N   1      26.578  16.440   7.043  0.00  0.00     0.150 HD
ENDBRANCH  11  16
ENDBRANCH  10  11
ENDBRANCH   1  10
TORSDOF 5
ENDMDL
MODEL 2
REMARK VINA RESULT:      -4.9      1.686      5.379
REMARK  5 active torsions:
REMARK  status: ('A' for Active; 'I' for Inactive)
REMARK    1  A    between atoms: N_1  and  C_10 
REMARK    2  A    between atoms: C_10  and  C_11 
REMARK    3  A    between atoms: C_11  and  C_12 
REMARK    4  A    between atoms: C_11  and  N_16 
REMARK    5  A    between atoms: C_12  and  C_13 
ROOT
HETATM    1  N   UNK N   1      30.723  17.697   8.206  0.00  0.00     0.124 N 
HETATM    2  C   UNK N   1      29.900  17.180   9.295  0.00  0.00     0.277 C 
HETATM    3  C   UNK N   1      28.615  17.977   9.377  0.00  0.00     0.060 C 
HETATM    4  C   UNK N   1      27.884  17.802   8.059  0.00  0.00     0.277 C 
HETATM    5  N   UNK N   1      28.707  18.255   6.929  0.00  0.00     0.122 N 
HETATM    6  C   UNK N   1      28.052  17.736   5.730  0.00  0.00     0.275 C 
HETATM    7  C   UNK N   1      28.693  16.391   5.379  0.00  0.00     0.034 C 
HETATM    8  C   UNK N   1      29.784  16.190   6.407  0.00  0.00     0.070 C 
HETATM    9  C   UNK N   1      30.027  17.607   6.902  0.00  0.00     0.456 C 
ENDROOT
BRANCH   1  10
HETATM   10  C   UNK N   1      31.962  16.923   8.191  0.00  0.00     0.299 C 
BRANCH  10  11
HETATM   11  C   UNK N   1      33.181  17.810   8.392  0.00  0.00     0.102 C 
BRANCH  11  12
HETATM   12  C   UNK N   1      33.963  17.821   7.079  0.00  0.00     0.030 C 
BRANCH  12  13
HETATM   13  C   UNK N   1      33.483  16.783   6.075  0.00  0.00    -0.021 C 
HETATM   14  C   UNK N   1      34.596  15.790   5.820  0.00  0.00     0.009 C 
HETATM   15  C   UNK N   1      33.129  17.458   4.763  0.00  0.00     0.009 C 
ENDBRANCH  12  13
ENDBRANCH  11  12
BRANCH  11  16
HETATM   16  N   UNK N   1      33.997  17.278   9.472  0.00  0.00    -0.424 N 
HETATM   17  H   UNK N   1      33.781  16.439  10.008  0.00  0.00     0.150 HD
HETATM   18  H   UNK N   1      34.851  17.783   9.711  0.00  0.00     0.150 HD
ENDBRANCH  11  16
ENDBRANCH  10  11
ENDBRANCH   1  10
TORSDOF 5
ENDMDL
MODEL 3
REMARK VINA RESULT:      -4.8      1.967      3.392
REMARK  5 active torsions:
REMARK  status: ('A' for Active; 'I' for Inactive)
REMARK    1  A    between atoms: N_1  and  C_10 
REMARK    2  A    between atoms: C_10  and  C_11 
REMARK    3  A    between atoms: C_11  and  C_12 
REMARK    4  A    between atoms: C_11  and  N_16 
REMARK    5  A    between atoms: C_12  and  C_13 
ROOT
HETATM    1  N   UNK N   1      30.092  17.056   6.288  0.00  0.00     0.124 N 
HETATM    2  C   UNK N   1      30.679  15.803   6.751  0.00  0.00     0.277 C 
HETATM    3  C   UNK N   1      31.799  16.103   7.726  0.00  0.00     0.060 C 
HETATM    4  C   UNK N   1      31.195  16.848   8.901  0.00  0.00     0.277 C 
HETATM    5  N   UNK N   1      30.538  18.088   8.465  0.00  0.00     0.122 N 
HETATM    6  C   UNK N   1      29.728  18.525   9.601  0.00  0.00     0.275 C 
HETATM    7  C   UNK N   1      28.313  17.967   9.424  0.00  0.00     0.034 C 
HETATM    8  C   UNK N   1      28.340  17.230   8.103  0.00  0.00     0.070 C 
HETATM    9  C   UNK N   1      29.542  17.852   7.409  0.00  0.00     0.456 C 
ENDROOT
BRANCH   1  10
HETATM   10  C   UNK N   1      29.044  16.717   5.327  0.00  0.00     0.299 C 
BRANCH  10  11
HETATM   11  C   UNK N   1      28.998  17.708   4.175  0.00  0.00     0.102 C 
BRANCH  11  12
HETATM   12  C   UNK N   1      27.599  18.324   4.154  0.00  0.00     0.030 C 
BRANCH  12  13
HETATM   13  C   UNK N   1      27.604  19.846   4.178  0.00  0.00    -0.021 C 
HETATM   14  C   UNK N   1      27.486  20.319   5.610  0.00  0.00     0.009 C 
HETATM   15  C   UNK N   1      26.417  20.378   3.396  0.00  0.00     0.009 C 
ENDBRANCH  12  13
ENDBRANCH  11  12
BRANCH  11  16
HETATM   16  N   UNK N   1      29.273  17.015   2.925  0.00  0.00    -0.424 N 
HETATM   17  H   UNK N   1      28.933  17.306   2.009  0.00  0.00     0.150 HD
HETATM   18  H   UNK N   1      29.849  16.174   2.969  0.00  0.00     0.150 HD
ENDBRANCH  11  16
ENDBRANCH  10  11
ENDBRANCH   1  10
TORSDOF 5
ENDMDL
MODEL 4
REMARK VINA RESULT:      -4.8      5.845      9.577
REMARK  5 active torsions:
REMARK  status: ('A' for Active; 'I' for Inactive)
REMARK    1  A    between atoms: N_1  and  C_10 
REMARK    2  A    between atoms: C_10  and  C_11 
REMARK    3  A    between atoms: C_11  and  C_12 
REMARK    4  A    between atoms: C_11  and  N_16 
REMARK    5  A    between atoms: C_12  and  C_13 
ROOT
HETATM    1  N   UNK N   1      35.346  13.989  12.140  0.00  0.00     0.124 N 
HETATM    2  C   UNK N   1      36.279  13.211  11.331  0.00  0.00     0.277 C 
HETATM    3  C   UNK N   1      35.529  12.552  10.192  0.00  0.00     0.060 C 
HETATM    4  C   UNK N   1      34.919  13.655   9.348  0.00  0.00     0.277 C 
HETATM    5  N   UNK N   1      34.019  14.500  10.144  0.00  0.00     0.122 N 
HETATM    6  C   UNK N   1      33.770  15.688   9.330  0.00  0.00     0.275 C 
HETATM    7  C   UNK N   1      34.783  16.764   9.729  0.00  0.00     0.034 C 
HETATM    8  C   UNK N   1      35.593  16.150  10.850  0.00  0.00     0.070 C 
HETATM    9  C   UNK N   1      34.675  15.042  11.343  0.00  0.00     0.456 C 
ENDROOT
BRANCH   1  10
HETATM   10  C   UNK N   1      36.107  14.575  13.241  0.00  0.00     0.299 C 
BRANCH  10  11
HETATM   11  C   UNK N   1      36.446  13.538  14.302  0.00  0.00     0.102 C 
BRANCH  11  12
HETATM   12  C   UNK N   1      35.129  13.057  14.910  0.00  0.00     0.030 C 
BRANCH  12  13
HETATM   13  C   UNK N   1      35.098  11.560  15.187  0.00  0.00    -0.021 C 
HETATM   14  C   UNK N   1      33.789  10.991  14.685  0.00  0.00     0.009 C 
HETATM   15  C   UNK N   1      35.190  11.310  16.682  0.00  0.00     0.009 C 
ENDBRANCH  12  13
ENDBRANCH  11  12
BRANCH  11  16
HETATM   16  N   UNK N   1      37.292  14.142  15.320  0.00  0.00    -0.424 N 
HETATM   17  H   UNK N   1      37.655  15.094  15.288  0.00  0.00     0.150 HD
HETATM   18  H   UNK N   1      37.541  13.570  16.127  0.00  0.00     0.150 HD
ENDBRANCH  11  16
ENDBRANCH  10  11
ENDBRANCH   1  10
TORSDOF 5
ENDMDL
MODEL 5
REMARK VINA RESULT:      -4.8      2.204      6.331
REMARK  5 active torsions:
REMARK  status: ('A' for Active; 'I' for Inactive)
REMARK    1  A    between atoms: N_1  and  C_10 
REMARK    2  A    between atoms: C_10  and  C_11 
REMARK    3  A    between atoms: C_11  and  C_12 
REMARK    4  A    between atoms: C_11  and  N_16 
REMARK    5  A    between atoms: C_12  and  C_13 
ROOT
HETATM    1  N   UNK N   1      28.401  18.906   5.404  0.00  0.00     0.124 N 
HETATM    2  C   UNK N   1      27.800  19.398   6.640  0.00  0.00     0.277 C 
HETATM    3  C   UNK N   1      27.428  20.856   6.473  0.00  0.00     0.060 C 
HETATM    4  C   UNK N   1      26.417  20.944   5.345  0.00  0.00     0.277 C 
HETATM    5  N   UNK N   1      26.966  20.400   4.095  0.00  0.00     0.122 N 
HETATM    6  C   UNK N   1      25.821  20.233   3.201  0.00  0.00     0.275 C 
HETATM    7  C   UNK N   1      25.306  18.799   3.347  0.00  0.00     0.034 C 
HETATM    8  C   UNK N   1      26.245  18.137   4.332  0.00  0.00     0.070 C 
HETATM    9  C   UNK N   1      27.474  19.030   4.256  0.00  0.00     0.456 C 
ENDROOT
BRANCH   1  10
HETATM   10  C   UNK N   1      28.774  17.511   5.626  0.00  0.00     0.299 C 
BRANCH  10  11
HETATM   11  C   UNK N   1      30.232  17.378   6.037  0.00  0.00     0.102 C 
BRANCH  11  12
HETATM   12  C   UNK N   1      30.973  16.697   4.888  0.00  0.00     0.030 C 
BRANCH  12  13
HETATM   13  C   UNK N   1      32.120  17.525   4.326  0.00  0.00    -0.021 C 
HETATM   14  C   UNK N   1      32.546  16.943   2.997  0.00  0.00     0.009 C 
HETATM   15  C   UNK N   1      33.304  17.478   5.275  0.00  0.00     0.009 C 
ENDBRANCH  12  13
ENDBRANCH  11  12
BRANCH  11  16
HETATM   16  N   UNK N   1      30.324  16.584   7.253  0.00  0.00    -0.424 N 
HETATM   17  H   UNK N   1      29.644  16.596   8.011  0.00  0.00     0.150 HD
HETATM   18  H   UNK N   1      31.131  15.967   7.353  0.00  0.00     0.150 HD
ENDBRANCH  11  16
ENDBRANCH  10  11
ENDBRANCH   1  10
TORSDOF 5
ENDMDL
MODEL 6
REMARK VINA RESULT:      -4.7      1.815      2.293
REMARK  5 active torsions:
REMARK  status: ('A' for Active; 'I' for Inactive)
REMARK    1  A    between atoms: N_1  and  C_10 
REMARK    2  A    between atoms: C_10  and  C_11 
REMARK    3  A    between atoms: C_11  and  C_12 
REMARK    4  A    between atoms: C_11  and  N_16 
REMARK    5  A    between atoms: C_12  and  C_13 
ROOT
HETATM    1  N   UNK N   1      31.021  16.428   5.666  0.00  0.00     0.124 N 
HETATM    2  C   UNK N   1      30.992  15.060   6.173  0.00  0.00     0.277 C 
HETATM    3  C   UNK N   1      32.329  14.398   5.911  0.00  0.00     0.060 C 
HETATM    4  C   UNK N   1      33.386  15.194   6.652  0.00  0.00     0.277 C 
HETATM    5  N   UNK N   1      33.404  16.596   6.212  0.00  0.00     0.122 N 
HETATM    6  C   UNK N   1      34.200  17.312   7.207  0.00  0.00     0.275 C 
HETATM    7  C   UNK N   1      33.249  17.880   8.264  0.00  0.00     0.034 C 
HETATM    8  C   UNK N   1      31.862  17.497   7.797  0.00  0.00     0.070 C 
HETATM    9  C   UNK N   1      32.082  17.232   6.315  0.00  0.00     0.456 C 
ENDROOT
BRANCH   1  10
HETATM   10  C   UNK N   1      29.703  17.010   5.909  0.00  0.00     0.299 C 
BRANCH  10  11
HETATM   11  C   UNK N   1      29.315  17.996   4.818  0.00  0.00     0.102 C 
BRANCH  11  12
HETATM   12  C   UNK N   1      28.022  18.681   5.256  0.00  0.00     0.030 C 
BRANCH  12  13
HETATM   13  C   UNK N   1      27.880  20.105   4.736  0.00  0.00    -0.021 C 
HETATM   14  C   UNK N   1      27.456  21.008   5.873  0.00  0.00     0.009 C 
HETATM   15  C   UNK N   1      26.813  20.156   3.657  0.00  0.00     0.009 C 
ENDBRANCH  12  13
ENDBRANCH  11  12
BRANCH  11  16
HETATM   16  N   UNK N   1      29.121  17.283   3.565  0.00  0.00    -0.424 N 
HETATM   17  H   UNK N   1      28.310  17.385   2.956  0.00  0.00     0.150 HD
HETATM   18  H   UNK N   1      29.852  16.633   3.274  0.00  0.00     0.150 HD
ENDBRANCH  11  16
ENDBRANCH  10  11
ENDBRANCH   1  10
TORSDOF 5
ENDMDL
MODEL 7
REMARK VINA RESULT:      -4.7      2.263      6.153
REMARK  5 active torsions:
REMARK  status: ('A' for Active; 'I' for Inactive)
REMARK    1  A    between atoms: N_1  and  C_10 
REMARK    2  A    between atoms: C_10  and  C_11 
REMARK    3  A    between atoms: C_11  and  C_12 
REMARK    4  A    between atoms: C_11  and  N_16 
REMARK    5  A    between atoms: C_12  and  C_13 
ROOT
HETATM    1  N   UNK N   1      28.732  18.056   5.234  0.00  0.00     0.124 N 
HETATM    2  C   UNK N   1      28.149  17.975   6.570  0.00  0.00     0.277 C 
HETATM    3  C   UNK N   1      27.967  19.373   7.123  0.00  0.00     0.060 C 
HETATM    4  C   UNK N   1      27.019  20.111   6.198  0.00  0.00     0.277 C 
HETATM    5  N   UNK N   1      27.543  20.159   4.826  0.00  0.00     0.122 N 
HETATM    6  C   UNK N   1      26.421  20.581   3.989  0.00  0.00     0.275 C 
HETATM    7  C   UNK N   1      25.727  19.327   3.451  0.00  0.00     0.034 C 
HETATM    8  C   UNK N   1      26.539  18.166   3.980  0.00  0.00     0.070 C 
HETATM    9  C   UNK N   1      27.872  18.824   4.305  0.00  0.00     0.456 C 
ENDROOT
BRANCH   1  10
HETATM   10  C   UNK N   1      28.921  16.687   4.758  0.00  0.00     0.299 C 
BRANCH  10  11
HETATM   11  C   UNK N   1      30.283  16.502   4.108  0.00  0.00     0.102 C 
BRANCH  11  12
HETATM   12  C   UNK N   1      31.245  17.488   4.769  0.00  0.00     0.030 C 
BRANCH  12  13
HETATM   13  C   UNK N   1      32.187  16.839   5.774  0.00  0.00    -0.021 C 
HETATM   14  C   UNK N   1      31.744  17.205   7.174  0.00  0.00     0.009 C 
HETATM   15  C   UNK N   1      33.599  17.355   5.566  0.00  0.00     0.009 C 
ENDBRANCH  12  13
ENDBRANCH  11  12
BRANCH  11  16
HETATM   16  N   UNK N   1      30.181  16.762   2.680  0.00  0.00    -0.424 N 
HETATM   17  H   UNK N   1      29.739  17.582   2.267  0.00  0.00     0.150 HD
HETATM   18  H   UNK N   1      30.583  16.072   2.045  0.00  0.00     0.150 HD
ENDBRANCH  11  16
ENDBRANCH  10  11
ENDBRANCH   1  10
TORSDOF 5
ENDMDL
MODEL 8
REMARK VINA RESULT:      -4.7     11.916     13.942
REMARK  5 active torsions:
REMARK  status: ('A' for Active; 'I' for Inactive)
REMARK    1  A    between atoms: N_1  and  C_10 
REMARK    2  A    between atoms: C_10  and  C_11 
REMARK    3  A    between atoms: C_11  and  C_12 
REMARK    4  A    between atoms: C_11  and  N_16 
REMARK    5  A    between atoms: C_12  and  C_13 
ROOT
HETATM    1  N   UNK N   1      28.177  24.219  -4.991  0.00  0.00     0.124 N 
HETATM    2  C   UNK N   1      29.089  25.166  -5.625  0.00  0.00     0.277 C 
HETATM    3  C   UNK N   1      29.753  26.014  -4.560  0.00  0.00     0.060 C 
HETATM    4  C   UNK N   1      30.536  25.082  -3.655  0.00  0.00     0.277 C 
HETATM    5  N   UNK N   1      29.660  24.072  -3.045  0.00  0.00     0.122 N 
HETATM    6  C   UNK N   1      30.554  23.060  -2.486  0.00  0.00     0.275 C 
HETATM    7  C   UNK N   1      30.740  21.956  -3.530  0.00  0.00     0.034 C 
HETATM    8  C   UNK N   1      29.866  22.361  -4.697  0.00  0.00     0.070 C 
HETATM    9  C   UNK N   1      28.885  23.324  -4.047  0.00  0.00     0.456 C 
ENDROOT
BRANCH   1  10
HETATM   10  C   UNK N   1      27.537  23.451  -6.056  0.00  0.00     0.299 C 
BRANCH  10  11
HETATM   11  C   UNK N   1      26.146  23.980  -6.370  0.00  0.00     0.102 C 
BRANCH  11  12
HETATM   12  C   UNK N   1      25.677  24.787  -5.160  0.00  0.00     0.030 C 
BRANCH  12  13
HETATM   13  C   UNK N   1      25.202  26.190  -5.510  0.00  0.00    -0.021 C 
HETATM   14  C   UNK N   1      25.727  26.562  -6.880  0.00  0.00     0.009 C 
HETATM   15  C   UNK N   1      25.743  27.185  -4.500  0.00  0.00     0.009 C 
ENDBRANCH  12  13
ENDBRANCH  11  12
BRANCH  11  16
HETATM   16  N   UNK N   1      25.247  22.864  -6.623  0.00  0.00    -0.424 N 
HETATM   17  H   UNK N   1      25.414  21.902  -6.329  0.00  0.00     0.150 HD
HETATM   18  H   UNK N   1      24.385  23.058  -7.133  0.00  0.00     0.150 HD
ENDBRANCH  11  16
ENDBRANCH  10  11
ENDBRANCH   1  10
TORSDOF 5
ENDMDL
MODEL 9
REMARK VINA RESULT:      -4.6      8.091     10.650
REMARK  5 active torsions:
REMARK  status: ('A' for Active; 'I' for Inactive)
REMARK    1  A    between atoms: N_1  and  C_10 
REMARK    2  A    between atoms: C_10  and  C_11 
REMARK    3  A    between atoms: C_11  and  C_12 
REMARK    4  A    between atoms: C_11  and  N_16 
REMARK    5  A    between atoms: C_12  and  C_13 
ROOT
HETATM    1  N   UNK N   1      36.423  14.125  12.739  0.00  0.00     0.124 N 
HETATM    2  C   UNK N   1      35.541  14.879  11.854  0.00  0.00     0.277 C 
HETATM    3  C   UNK N   1      36.338  15.405  10.678  0.00  0.00     0.060 C 
HETATM    4  C   UNK N   1      36.902  14.208   9.936  0.00  0.00     0.277 C 
HETATM    5  N   UNK N   1      37.748  13.387  10.814  0.00  0.00     0.122 N 
HETATM    6  C   UNK N   1      37.947  12.125  10.103  0.00  0.00     0.275 C 
HETATM    7  C   UNK N   1      36.875  11.138  10.571  0.00  0.00     0.034 C 
HETATM    8  C   UNK N   1      36.083  11.881  11.625  0.00  0.00     0.070 C 
HETATM    9  C   UNK N   1      37.050  12.978  12.042  0.00  0.00     0.456 C 
ENDROOT
BRANCH   1  10
HETATM   10  C   UNK N   1      35.619  13.670  13.871  0.00  0.00     0.299 C 
BRANCH  10  11
HETATM   11  C   UNK N   1      36.485  13.335  15.076  0.00  0.00     0.102 C 
BRANCH  11  12
HETATM   12  C   UNK N   1      35.551  12.924  16.213  0.00  0.00     0.030 C 
BRANCH  12  13
HETATM   13  C   UNK N   1      35.689  11.462  16.615  0.00  0.00    -0.021 C 
HETATM   14  C   UNK N   1      34.667  10.643  15.858  0.00  0.00     0.009 C 
HETATM   15  C   UNK N   1      35.423  11.309  18.102  0.00  0.00     0.009 C 
ENDBRANCH  12  13
ENDBRANCH  11  12
BRANCH  11  16
HETATM   16  N   UNK N   1      37.269  14.502  15.450  0.00  0.00    -0.424 N 
HETATM   17  H   UNK N   1      37.817  14.587  16.306  0.00  0.00     0.150 HD
HETATM   18  H   UNK N   1      37.271  15.295  14.808  0.00  0.00     0.150 HD
ENDBRANCH  11  16
ENDBRANCH  10  11
ENDBRANCH   1  10
TORSDOF 5
ENDMDL
