MODEL 1
REMARK VINA RESULT:      -7.2      0.000      0.000
REMARK  3 active torsions:
REMARK  status: ('A' for Active; 'I' for Inactive)
REMARK    1  A    between atoms: C_2  and  N_13 
REMARK    2  A    between atoms: N_13  and  S_14 
REMARK    3  A    between atoms: S_14  and  C_17 
ROOT
HETATM    1  S   UNK N   1      34.245  17.684   8.339  0.00  0.00     0.263 S 
HETATM    2  O   UNK N   1      34.866  19.045   7.985  0.00  0.00    -0.200 OA
HETATM    3  O   UNK N   1      35.089  16.747   7.462  0.00  0.00    -0.200 OA
ENDROOT
BRANCH   1   4
HETATM    4  N   UNK N   1      34.807  17.337   9.967  0.00  0.00    -0.281 N 
HETATM    5  H   UNK N   1      35.029  18.092  10.558  0.00  0.00     0.179 HD
BRANCH   4   6
HETATM    6  C   UNK N   1      34.956  16.017  10.473  0.00  0.00     0.042 A 
HETATM    7  C   UNK N   1      34.194  14.958   9.966  0.00  0.00     0.032 A 
HETATM    8  C   UNK N   1      34.351  13.668  10.490  0.00  0.00     0.026 A 
HETATM    9  C   UNK N   1      35.258  13.443  11.528  0.00  0.00     0.034 A 
HETATM   10 Cl   UNK N   1      35.444  11.833  12.194  0.00  0.00    -0.084 Cl
HETATM   11  C   UNK N   1      36.015  14.500  12.038  0.00  0.00     0.026 A 
HETATM   12  C   UNK N   1      35.867  15.786  11.506  0.00  0.00     0.032 A 
ENDBRANCH   4   6
ENDBRANCH   1   4
BRANCH   1  13
HETATM   13  C   UNK N   1      32.514  17.593   7.889  0.00  0.00     0.080 A 
HETATM   14  C   UNK N   1      32.126  17.132   6.626  0.00  0.00     0.026 A 
HETATM   15  C   UNK N   1      30.768  16.994   6.318  0.00  0.00     0.009 A 
HETATM   16  C   UNK N   1      29.794  17.306   7.272  0.00  0.00    -0.049 A 
HETATM   17  C   UNK N   1      28.342  17.114   6.940  0.00  0.00     0.058 C 
HETATM   18  C   UNK N   1      30.185  17.785   8.539  0.00  0.00    -0.033 A 
HETATM   19  C   UNK N   1      27.465  17.196   8.190  0.00  0.00     0.118 C 
HETATM   20  N   UNK N   1      27.837  18.360   8.988  0.00  0.00    -0.417 N 
HETATM   21  C   UNK N   1      29.158  18.136   9.579  0.00  0.00     0.153 C 
HETATM   22  H   UNK N   1      27.268  19.197   9.112  0.00  0.00     0.153 HD
HETATM   23  C   UNK N   1      31.542  17.916   8.841  0.00  0.00     0.034 A 
ENDBRANCH   1  13
TORSDOF 3
ENDMDL
MODEL 2
REMARK VINA RESULT:      -7.1      4.965      8.025
REMARK  3 active torsions:
REMARK  status: ('A' for Active; 'I' for Inactive)
REMARK    1  A    between atoms: C_2  and  N_13 
REMARK    2  A    between atoms: N_13  and  S_14 
REMARK    3  A    between atoms: S_14  and  C_17 
ROOT
HETATM    1  S   UNK N   1      29.538  16.652   3.995  0.00  0.00     0.263 S 
HETATM    2  O   UNK N   1      28.581  15.589   4.557  0.00  0.00    -0.200 OA
HETATM    3  O   UNK N   1      29.887  16.033   2.633  0.00  0.00    -0.200 OA
ENDROOT
BRANCH   1   4
HETATM    4  N   UNK N   1      28.511  18.014   3.573  0.00  0.00    -0.281 N 
HETATM    5  H   UNK N   1      28.308  18.172   2.623  0.00  0.00     0.179 HD
BRANCH   4   6
HETATM    6  C   UNK N   1      27.958  18.899   4.539  0.00  0.00     0.042 A 
HETATM    7  C   UNK N   1      28.178  18.704   5.907  0.00  0.00     0.032 A 
HETATM    8  C   UNK N   1      27.612  19.584   6.839  0.00  0.00     0.026 A 
HETATM    9  C   UNK N   1      26.816  20.646   6.402  0.00  0.00     0.034 A 
HETATM   10 Cl   UNK N   1      26.096  21.738   7.568  0.00  0.00    -0.084 Cl
HETATM   11  C   UNK N   1      26.592  20.838   5.037  0.00  0.00     0.026 A 
HETATM   12  C   UNK N   1      27.169  19.967   4.105  0.00  0.00     0.032 A 
ENDBRANCH   4   6
ENDBRANCH   1   4
BRANCH   1  13
HETATM   13  C   UNK N   1      31.006  16.843   5.004  0.00  0.00     0.080 A 
HETATM   14  C   UNK N   1      32.167  17.418   4.476  0.00  0.00     0.026 A 
HETATM   15  C   UNK N   1      33.279  17.630   5.299  0.00  0.00     0.009 A 
HETATM   16  C   UNK N   1      33.232  17.278   6.652  0.00  0.00    -0.049 A 
HETATM   17  C   UNK N   1      34.419  17.549   7.531  0.00  0.00     0.058 C 
HETATM   18  C   UNK N   1      32.067  16.684   7.179  0.00  0.00    -0.033 A 
HETATM   19  C   UNK N   1      34.067  17.398   9.012  0.00  0.00     0.118 C 
HETATM   20  N   UNK N   1      33.323  16.160   9.226  0.00  0.00    -0.417 N 
HETATM   21  C   UNK N   1      31.993  16.287   8.627  0.00  0.00     0.153 C 
HETATM   22  H   UNK N   1      33.675  15.338   9.715  0.00  0.00     0.153 HD
HETATM   23  C   UNK N   1      30.959  16.480   6.353  0.00  0.00     0.034 A 
ENDBRANCH   1  13
TORSDOF 3
ENDMDL
MODEL 3
REMARK VINA RESULT:      -7.1     15.764     18.536
REMARK  3 active torsions:
REMARK  status: ('A' for Active; 'I' for Inactive)
REMARK    1  A    between atoms: C_2  and  N_13 
REMARK    2  A    between atoms: N_13  and  S_14 
REMARK    3  A    between atoms: S_14  and  C_17 
ROOT
HETATM    1  S   UNK N   1      26.302  23.673  -6.737  0.00  0.00     0.263 S 
HETATM    2  O   UNK N   1      25.146  22.697  -6.465  0.00  0.00    -0.200 OA
HETATM    3  O   UNK N   1      26.772  23.184  -8.116  0.00  0.00    -0.200 OA
ENDROOT
BRANCH   1   4
HETATM    4  N   UNK N   1      25.527  25.210  -7.089  0.00  0.00    -0.281 N 
HETATM    5  H   UNK N   1      24.823  25.233  -7.778  0.00  0.00     0.179 HD
BRANCH   4   6
HETATM    6  C   UNK N   1      25.867  26.421  -6.428  0.00  0.00     0.042 A 
HETATM    7  C   UNK N   1      26.950  27.198  -6.855  0.00  0.00     0.032 A 
HETATM    8  C   UNK N   1      27.272  28.382  -6.178  0.00  0.00     0.026 A 
HETATM    9  C   UNK N   1      26.521  28.778  -5.069  0.00  0.00     0.034 A 
HETATM   10 Cl   UNK N   1      26.931  30.250  -4.213  0.00  0.00    -0.084 Cl
HETATM   11  C   UNK N   1      25.443  28.000  -4.639  0.00  0.00     0.026 A 
HETATM   12  C   UNK N   1      25.113  26.825  -5.323  0.00  0.00     0.032 A 
ENDBRANCH   4   6
ENDBRANCH   1   4
BRANCH   1  13
HETATM   13  C   UNK N   1      27.613  23.523  -5.526  0.00  0.00     0.080 A 
HETATM   14  C   UNK N   1      27.476  24.079  -4.250  0.00  0.00     0.026 A 
HETATM   15  C   UNK N   1      28.477  23.887  -3.291  0.00  0.00     0.009 A 
HETATM   16  C   UNK N   1      29.613  23.131  -3.600  0.00  0.00    -0.049 A 
HETATM   17  C   UNK N   1      30.659  22.901  -2.548  0.00  0.00     0.058 C 
HETATM   18  C   UNK N   1      29.758  22.585  -4.891  0.00  0.00    -0.033 A 
HETATM   19  C   UNK N   1      31.643  21.806  -2.966  0.00  0.00     0.118 C 
HETATM   20  N   UNK N   1      32.088  22.030  -4.338  0.00  0.00    -0.417 N 
HETATM   21  C   UNK N   1      30.973  21.777  -5.253  0.00  0.00     0.153 C 
HETATM   22  H   UNK N   1      33.026  22.317  -4.614  0.00  0.00     0.153 HD
HETATM   23  C   UNK N   1      28.753  22.776  -5.842  0.00  0.00     0.034 A 
ENDBRANCH   1  13
TORSDOF 3
ENDMDL
MODEL 4
REMARK VINA RESULT:      -7.0      3.091      7.108
REMARK  3 active torsions:
REMARK  status: ('A' for Active; 'I' for Inactive)
REMARK    1  A    between atoms: C_2  and  N_13 
REMARK    2  A    between atoms: N_13  and  S_14 
REMARK    3  A    between atoms: S_14  and  C_17 
ROOT
HETATM    1  S   UNK N   1      34.460  16.333   7.012  0.00  0.00     0.263 S 
HETATM    2  O   UNK N   1      35.351  15.701   5.930  0.00  0.00    -0.200 OA
HETATM    3  O   UNK N   1      34.616  17.824   6.676  0.00  0.00    -0.200 OA
ENDROOT
BRANCH   1   4
HETATM    4  N   UNK N   1      32.814  15.971   6.515  0.00  0.00    -0.281 N 
HETATM    5  H   UNK N   1      32.672  15.276   5.832  0.00  0.00     0.179 HD
BRANCH   4   6
HETATM    6  C   UNK N   1      31.677  16.634   7.051  0.00  0.00     0.042 A 
HETATM    7  C   UNK N   1      31.774  17.414   8.209  0.00  0.00     0.032 A 
HETATM    8  C   UNK N   1      30.636  18.047   8.725  0.00  0.00     0.026 A 
HETATM    9  C   UNK N   1      29.401  17.887   8.091  0.00  0.00     0.034 A 
HETATM   10 Cl   UNK N   1      27.974  18.666   8.743  0.00  0.00    -0.084 Cl
HETATM   11  C   UNK N   1      29.302  17.104   6.939  0.00  0.00     0.026 A 
HETATM   12  C   UNK N   1      30.442  16.482   6.416  0.00  0.00     0.032 A 
ENDBRANCH   4   6
ENDBRANCH   1   4
BRANCH   1  13
HETATM   13  C   UNK N   1      35.054  15.986   8.666  0.00  0.00     0.080 A 
HETATM   14  C   UNK N   1      34.799  16.872   9.718  0.00  0.00     0.026 A 
HETATM   15  C   UNK N   1      35.203  16.548  11.018  0.00  0.00     0.009 A 
HETATM   16  C   UNK N   1      35.854  15.337  11.273  0.00  0.00    -0.049 A 
HETATM   17  C   UNK N   1      36.245  14.987  12.680  0.00  0.00     0.058 C 
HETATM   18  C   UNK N   1      36.124  14.452  10.210  0.00  0.00    -0.033 A 
HETATM   19  C   UNK N   1      36.642  13.514  12.802  0.00  0.00     0.118 C 
HETATM   20  N   UNK N   1      37.559  13.152  11.726  0.00  0.00    -0.417 N 
HETATM   21  C   UNK N   1      36.831  13.148  10.454  0.00  0.00     0.153 C 
HETATM   22  H   UNK N   1      38.548  12.937  11.840  0.00  0.00     0.153 HD
HETATM   23  C   UNK N   1      35.714  14.778   8.915  0.00  0.00     0.034 A 
ENDBRANCH   1  13
TORSDOF 3
ENDMDL
MODEL 5
REMARK VINA RESULT:      -7.0     10.017     13.348
REMARK  3 active torsions:
REMARK  status: ('A' for Active; 'I' for Inactive)
REMARK    1  A    between atoms: C_2  and  N_13 
REMARK    2  A    between atoms: N_13  and  S_14 
REMARK    3  A    between atoms: S_14  and  C_17 
ROOT
HETATM    1  S   UNK N   1      21.075  20.185   2.781  0.00  0.00     0.263 S 
HETATM    2  O   UNK N   1      21.268  21.375   1.828  0.00  0.00    -0.200 OA
HETATM    3  O   UNK N   1      20.235  20.838   3.889  0.00  0.00    -0.200 OA
ENDROOT
BRANCH   1   4
HETATM    4  N   UNK N   1      19.930  19.130   1.967  0.00  0.00    -0.281 N 
HETATM    5  H   UNK N   1      19.209  19.540   1.438  0.00  0.00     0.179 HD
BRANCH   4   6
HETATM    6  C   UNK N   1      19.996  17.712   2.036  0.00  0.00     0.042 A 
HETATM    7  C   UNK N   1      19.809  17.037   3.248  0.00  0.00     0.032 A 
HETATM    8  C   UNK N   1      19.891  15.639   3.292  0.00  0.00     0.026 A 
HETATM    9  C   UNK N   1      20.175  14.921   2.128  0.00  0.00     0.034 A 
HETATM   10 Cl   UNK N   1      20.293  13.174   2.184  0.00  0.00    -0.084 Cl
HETATM   11  C   UNK N   1      20.368  15.593   0.919  0.00  0.00     0.026 A 
HETATM   12  C   UNK N   1      20.273  16.989   0.873  0.00  0.00     0.032 A 
ENDBRANCH   4   6
ENDBRANCH   1   4
BRANCH   1  13
HETATM   13  C   UNK N   1      22.631  19.582   3.432  0.00  0.00     0.080 A 
HETATM   14  C   UNK N   1      22.673  18.445   4.247  0.00  0.00     0.026 A 
HETATM   15  C   UNK N   1      23.904  17.942   4.683  0.00  0.00     0.009 A 
HETATM   16  C   UNK N   1      25.096  18.567   4.302  0.00  0.00    -0.049 A 
HETATM   17  C   UNK N   1      26.409  17.991   4.746  0.00  0.00     0.058 C 
HETATM   18  C   UNK N   1      25.052  19.721   3.494  0.00  0.00    -0.033 A 
HETATM   19  C   UNK N   1      27.580  18.607   3.977  0.00  0.00     0.118 C 
HETATM   20  N   UNK N   1      27.446  20.060   3.941  0.00  0.00    -0.417 N 
HETATM   21  C   UNK N   1      26.317  20.418   3.078  0.00  0.00     0.153 C 
HETATM   22  H   UNK N   1      28.042  20.721   4.437  0.00  0.00     0.153 HD
HETATM   23  C   UNK N   1      23.820  20.215   3.058  0.00  0.00     0.034 A 
ENDBRANCH   1  13
TORSDOF 3
ENDMDL
MODEL 6
REMARK VINA RESULT:      -7.0     16.599     18.381
REMARK  3 active torsions:
REMARK  status: ('A' for Active; 'I' for Inactive)
REMARK    1  A    between atoms: C_2  and  N_13 
REMARK    2  A    between atoms: N_13  and  S_14 
REMARK    3  A    between atoms: S_14  and  C_17 
ROOT
HETATM    1  S   UNK N   1      26.000  23.971  -7.278  0.00  0.00     0.263 S 
HETATM    2  O   UNK N   1      24.909  24.058  -8.356  0.00  0.00    -0.200 OA
HETATM    3  O   UNK N   1      25.286  23.123  -6.215  0.00  0.00    -0.200 OA
ENDROOT
BRANCH   1   4
HETATM    4  N   UNK N   1      27.205  22.874  -7.936  0.00  0.00    -0.281 N 
HETATM    5  H   UNK N   1      27.179  22.673  -8.899  0.00  0.00     0.179 HD
BRANCH   4   6
HETATM    6  C   UNK N   1      28.214  22.263  -7.144  0.00  0.00     0.042 A 
HETATM    7  C   UNK N   1      28.700  22.883  -5.987  0.00  0.00     0.032 A 
HETATM    8  C   UNK N   1      29.704  22.266  -5.230  0.00  0.00     0.026 A 
HETATM    9  C   UNK N   1      30.231  21.038  -5.640  0.00  0.00     0.034 A 
HETATM   10 Cl   UNK N   1      31.498  20.272  -4.703  0.00  0.00    -0.084 Cl
HETATM   11  C   UNK N   1      29.751  20.421  -6.797  0.00  0.00     0.026 A 
HETATM   12  C   UNK N   1      28.738  21.032  -7.546  0.00  0.00     0.032 A 
ENDBRANCH   4   6
ENDBRANCH   1   4
BRANCH   1  13
HETATM   13  C   UNK N   1      26.434  25.581  -6.623  0.00  0.00     0.080 A 
HETATM   14  C   UNK N   1      27.072  26.532  -7.427  0.00  0.00     0.026 A 
HETATM   15  C   UNK N   1      27.334  27.811  -6.923  0.00  0.00     0.009 A 
HETATM   16  C   UNK N   1      26.954  28.147  -5.619  0.00  0.00    -0.049 A 
HETATM   17  C   UNK N   1      27.206  29.535  -5.107  0.00  0.00     0.058 C 
HETATM   18  C   UNK N   1      26.326  27.182  -4.805  0.00  0.00    -0.033 A 
HETATM   19  C   UNK N   1      26.445  29.801  -3.807  0.00  0.00     0.118 C 
HETATM   20  N   UNK N   1      26.627  28.686  -2.883  0.00  0.00    -0.417 N 
HETATM   21  C   UNK N   1      25.915  27.513  -3.397  0.00  0.00     0.153 C 
HETATM   22  H   UNK N   1      27.165  28.718  -2.018  0.00  0.00     0.153 HD
HETATM   23  C   UNK N   1      26.062  25.910  -5.316  0.00  0.00     0.034 A 
ENDBRANCH   1  13
TORSDOF 3
ENDMDL
MODEL 7
REMARK VINA RESULT:      -6.9      9.759     13.228
REMARK  3 active torsions:
REMARK  status: ('A' for Active; 'I' for Inactive)
REMARK    1  A    between atoms: C_2  and  N_13 
REMARK    2  A    between atoms: N_13  and  S_14 
REMARK    3  A    between atoms: S_14  and  C_17 
ROOT
HETATM    1  S   UNK N   1      21.079  20.277   2.658  0.00  0.00     0.263 S 
HETATM    2  O   UNK N   1      21.002  21.528   1.768  0.00  0.00    -0.200 OA
HETATM    3  O   UNK N   1      20.319  20.762   3.901  0.00  0.00    -0.200 OA
ENDROOT
BRANCH   1   4
HETATM    4  N   UNK N   1      19.972  19.126   1.924  0.00  0.00    -0.281 N 
HETATM    5  H   UNK N   1      19.297  19.463   1.291  0.00  0.00     0.179 HD
BRANCH   4   6
HETATM    6  C   UNK N   1      20.005  17.732   2.199  0.00  0.00     0.042 A 
HETATM    7  C   UNK N   1      20.263  16.801   1.187  0.00  0.00     0.032 A 
HETATM    8  C   UNK N   1      20.277  15.432   1.483  0.00  0.00     0.026 A 
HETATM    9  C   UNK N   1      20.018  14.996   2.785  0.00  0.00     0.034 A 
HETATM   10 Cl   UNK N   1      20.021  13.284   3.153  0.00  0.00    -0.084 Cl
HETATM   11  C   UNK N   1      19.755  15.925   3.794  0.00  0.00     0.026 A 
HETATM   12  C   UNK N   1      19.754  17.294   3.502  0.00  0.00     0.032 A 
ENDBRANCH   4   6
ENDBRANCH   1   4
BRANCH   1  13
HETATM   13  C   UNK N   1      22.767  19.843   3.071  0.00  0.00     0.080 A 
HETATM   14  C   UNK N   1      23.831  20.672   2.697  0.00  0.00     0.026 A 
HETATM   15  C   UNK N   1      25.136  20.358   3.095  0.00  0.00     0.009 A 
HETATM   16  C   UNK N   1      25.381  19.222   3.874  0.00  0.00    -0.049 A 
HETATM   17  C   UNK N   1      26.781  18.922   4.326  0.00  0.00     0.058 C 
HETATM   18  C   UNK N   1      24.311  18.380   4.237  0.00  0.00    -0.033 A 
HETATM   19  C   UNK N   1      26.800  17.846   5.414  0.00  0.00     0.118 C 
HETATM   20  N   UNK N   1      25.950  16.725   5.025  0.00  0.00    -0.417 N 
HETATM   21  C   UNK N   1      24.547  17.148   5.065  0.00  0.00     0.153 C 
HETATM   22  H   UNK N   1      26.279  15.796   4.766  0.00  0.00     0.153 HD
HETATM   23  C   UNK N   1      23.011  18.701   3.841  0.00  0.00     0.034 A 
ENDBRANCH   1  13
TORSDOF 3
ENDMDL
MODEL 8
REMARK VINA RESULT:      -6.8     14.935     17.221
REMARK  3 active torsions:
REMARK  status: ('A' for Active; 'I' for Inactive)
REMARK    1  A    between atoms: C_2  and  N_13 
REMARK    2  A    between atoms: N_13  and  S_14 
REMARK    3  A    between atoms: S_14  and  C_17 
ROOT
HETATM    1  S   UNK N   1      29.648  23.401  -2.893  0.00  0.00     0.263 S 
HETATM    2  O   UNK N   1      30.337  24.768  -3.032  0.00  0.00    -0.200 OA
HETATM    3  O   UNK N   1      30.237  22.917  -1.559  0.00  0.00    -0.200 OA
ENDROOT
BRANCH   1   4
HETATM    4  N   UNK N   1      27.978  23.772  -2.492  0.00  0.00    -0.281 N 
HETATM    5  H   UNK N   1      27.606  23.411  -1.656  0.00  0.00     0.179 HD
BRANCH   4   6
HETATM    6  C   UNK N   1      27.139  24.567  -3.319  0.00  0.00     0.042 A 
HETATM    7  C   UNK N   1      26.443  24.006  -4.396  0.00  0.00     0.032 A 
HETATM    8  C   UNK N   1      25.632  24.814  -5.203  0.00  0.00     0.026 A 
HETATM    9  C   UNK N   1      25.530  26.182  -4.941  0.00  0.00     0.034 A 
HETATM   10 Cl   UNK N   1      24.527  27.196  -5.959  0.00  0.00    -0.084 Cl
HETATM   11  C   UNK N   1      26.227  26.744  -3.870  0.00  0.00     0.026 A 
HETATM   12  C   UNK N   1      27.028  25.934  -3.055  0.00  0.00     0.032 A 
ENDBRANCH   4   6
ENDBRANCH   1   4
BRANCH   1  13
HETATM   13  C   UNK N   1      30.083  22.285  -4.225  0.00  0.00     0.080 A 
HETATM   14  C   UNK N   1      30.985  21.237  -4.015  0.00  0.00     0.026 A 
HETATM   15  C   UNK N   1      31.255  20.328  -5.044  0.00  0.00     0.009 A 
HETATM   16  C   UNK N   1      30.618  20.458  -6.283  0.00  0.00    -0.049 A 
HETATM   17  C   UNK N   1      30.888  19.451  -7.364  0.00  0.00     0.058 C 
HETATM   18  C   UNK N   1      29.722  21.524  -6.499  0.00  0.00    -0.033 A 
HETATM   19  C   UNK N   1      29.877  19.570  -8.506  0.00  0.00     0.118 C 
HETATM   20  N   UNK N   1      29.722  20.969  -8.894  0.00  0.00    -0.417 N 
HETATM   21  C   UNK N   1      29.031  21.692  -7.824  0.00  0.00     0.153 C 
HETATM   22  H   UNK N   1      30.044  21.377  -9.771  0.00  0.00     0.153 HD
HETATM   23  C   UNK N   1      29.453  22.424  -5.466  0.00  0.00     0.034 A 
ENDBRANCH   1  13
TORSDOF 3
ENDMDL
MODEL 9
REMARK VINA RESULT:      -6.6     14.468     16.711
REMARK  3 active torsions:
REMARK  status: ('A' for Active; 'I' for Inactive)
REMARK    1  A    between atoms: C_2  and  N_13 
REMARK    2  A    between atoms: N_13  and  S_14 
REMARK    3  A    between atoms: S_14  and  C_17 
ROOT
HETATM    1  S   UNK N   1      30.093  23.318  -2.694  0.00  0.00     0.263 S 
HETATM    2  O   UNK N   1      30.686  24.730  -2.823  0.00  0.00    -0.200 OA
HETATM    3  O   UNK N   1      30.273  23.068  -1.189  0.00  0.00    -0.200 OA
ENDROOT
BRANCH   1   4
HETATM    4  N   UNK N   1      28.358  23.535  -2.869  0.00  0.00    -0.281 N 
HETATM    5  H   UNK N   1      27.771  23.215  -2.147  0.00  0.00     0.179 HD
BRANCH   4   6
HETATM    6  C   UNK N   1      27.762  24.150  -4.003  0.00  0.00     0.042 A 
HETATM    7  C   UNK N   1      28.542  24.611  -5.070  0.00  0.00     0.032 A 
HETATM    8  C   UNK N   1      27.932  25.225  -6.170  0.00  0.00     0.026 A 
HETATM    9  C   UNK N   1      26.544  25.391  -6.196  0.00  0.00     0.034 A 
HETATM   10 Cl   UNK N   1      25.781  26.172  -7.566  0.00  0.00    -0.084 Cl
HETATM   11  C   UNK N   1      25.765  24.936  -5.130  0.00  0.00     0.026 A 
HETATM   12  C   UNK N   1      26.375  24.311  -4.036  0.00  0.00     0.032 A 
ENDBRANCH   4   6
ENDBRANCH   1   4
BRANCH   1  13
HETATM   13  C   UNK N   1      31.004  22.112  -3.655  0.00  0.00     0.080 A 
HETATM   14  C   UNK N   1      30.415  21.484  -4.758  0.00  0.00     0.026 A 
HETATM   15  C   UNK N   1      31.166  20.602  -5.544  0.00  0.00     0.009 A 
HETATM   16  C   UNK N   1      32.507  20.351  -5.236  0.00  0.00    -0.049 A 
HETATM   17  C   UNK N   1      33.310  19.433  -6.112  0.00  0.00     0.058 C 
HETATM   18  C   UNK N   1      33.094  20.971  -4.115  0.00  0.00    -0.033 A 
HETATM   19  C   UNK N   1      34.806  19.536  -5.811  0.00  0.00     0.118 C 
HETATM   20  N   UNK N   1      35.032  19.480  -4.370  0.00  0.00    -0.417 N 
HETATM   21  C   UNK N   1      34.531  20.712  -3.755  0.00  0.00     0.153 C 
HETATM   22  H   UNK N   1      35.469  18.706  -3.871  0.00  0.00     0.153 HD
HETATM   23  C   UNK N   1      32.341  21.854  -3.338  0.00  0.00     0.034 A 
ENDBRANCH   1  13
TORSDOF 3
ENDMDL
