MODEL 1
REMARK VINA RESULT:      -5.6      0.000      0.000
REMARK  6 active torsions:
REMARK  status: ('A' for Active; 'I' for Inactive)
REMARK    1  A    between atoms: C_1  and  C_7 
REMARK    2  A    between atoms: C_3  and  C_8 
REMARK    3  A    between atoms: C_5  and  C_9 
REMARK    4  A    between atoms: C_7  and  O_11 
REMARK    5  A    between atoms: C_8  and  O_13 
REMARK    6  A    between atoms: C_9  and  O_15 
ROOT
HETATM    1  C   UNK N   1      30.431  17.058   6.143  0.00  0.00     0.039 A 
HETATM    2  C   UNK N   1      31.810  17.182   6.352  0.00  0.00     0.036 A 
HETATM    3  C   UNK N   1      32.307  17.674   7.567  0.00  0.00     0.039 A 
HETATM    4  C   UNK N   1      31.411  18.044   8.578  0.00  0.00     0.036 A 
HETATM    5  C   UNK N   1      30.027  17.926   8.384  0.00  0.00     0.039 A 
HETATM    6  C   UNK N   1      29.543  17.432   7.163  0.00  0.00     0.036 A 
ENDROOT
BRANCH   1   7
HETATM    7  C   UNK N   1      29.923  16.537   4.857  0.00  0.00     0.176 C 
HETATM    8  O   UNK N   1      29.617  15.360   4.744  0.00  0.00    -0.646 OA
BRANCH   7   9
HETATM    9  O   UNK N   1      29.793  17.360   3.796  0.00  0.00    -0.773 OA
HETATM   10  H   UNK N   1      30.404  17.311   3.088  0.00  0.00     0.167 HD
ENDBRANCH   7   9
ENDBRANCH   1   7
BRANCH   3  11
HETATM   11  C   UNK N   1      33.762  17.803   7.782  0.00  0.00     0.176 C 
HETATM   12  O   UNK N   1      34.515  17.959   6.832  0.00  0.00    -0.646 OA
BRANCH  11  13
HETATM   13  O   UNK N   1      34.272  17.749   9.029  0.00  0.00    -0.773 OA
HETATM   14  H   UNK N   1      34.652  18.514   9.412  0.00  0.00     0.167 HD
ENDBRANCH  11  13
ENDBRANCH   3  11
BRANCH   5  15
HETATM   15  C   UNK N   1      29.094  18.320   9.459  0.00  0.00     0.176 C 
HETATM   16  O   UNK N   1      29.516  18.814  10.493  0.00  0.00    -0.646 OA
BRANCH  15  17
HETATM   17  O   UNK N   1      27.767  18.137   9.307  0.00  0.00    -0.773 OA
HETATM   18  H   UNK N   1      27.438  17.306   9.025  0.00  0.00     0.167 HD
ENDBRANCH  15  17
ENDBRANCH   5  15
TORSDOF 6
ENDMDL
MODEL 2
REMARK VINA RESULT:      -5.6      0.089      3.973
REMARK  6 active torsions:
REMARK  status: ('A' for Active; 'I' for Inactive)
REMARK    1  A    between atoms: C_1  and  C_7 
REMARK    2  A    between atoms: C_3  and  C_8 
REMARK    3  A    between atoms: C_5  and  C_9 
REMARK    4  A    between atoms: C_7  and  O_11 
REMARK    5  A    between atoms: C_8  and  O_13 
REMARK    6  A    between atoms: C_9  and  O_15 
ROOT
HETATM    1  C   UNK N   1      30.418  17.060   6.144  0.00  0.00     0.039 A 
HETATM    2  C   UNK N   1      29.536  17.431   7.167  0.00  0.00     0.036 A 
HETATM    3  C   UNK N   1      30.022  17.923   8.387  0.00  0.00     0.039 A 
HETATM    4  C   UNK N   1      31.404  18.044   8.579  0.00  0.00     0.036 A 
HETATM    5  C   UNK N   1      32.301  17.677   7.565  0.00  0.00     0.039 A 
HETATM    6  C   UNK N   1      31.801  17.185   6.349  0.00  0.00     0.036 A 
ENDROOT
BRANCH   1   7
HETATM    7  C   UNK N   1      29.891  16.543   4.865  0.00  0.00     0.176 C 
HETATM    8  O   UNK N   1      29.368  15.441   4.812  0.00  0.00    -0.646 OA
BRANCH   7   9
HETATM    9  O   UNK N   1      29.983  17.287   3.744  0.00  0.00    -0.773 OA
HETATM   10  H   UNK N   1      30.380  18.134   3.776  0.00  0.00     0.167 HD
ENDBRANCH   7   9
ENDBRANCH   1   7
BRANCH   3  11
HETATM   11  C   UNK N   1      29.087  18.312   9.461  0.00  0.00     0.176 C 
HETATM   12  O   UNK N   1      29.508  18.807  10.497  0.00  0.00    -0.646 OA
BRANCH  11  13
HETATM   13  O   UNK N   1      27.761  18.125   9.308  0.00  0.00    -0.773 OA
HETATM   14  H   UNK N   1      27.381  18.145   8.452  0.00  0.00     0.167 HD
ENDBRANCH  11  13
ENDBRANCH   3  11
BRANCH   5  15
HETATM   15  C   UNK N   1      33.756  17.809   7.782  0.00  0.00     0.176 C 
HETATM   16  O   UNK N   1      34.510  17.969   6.834  0.00  0.00    -0.646 OA
BRANCH  15  17
HETATM   17  O   UNK N   1      34.264  17.754   9.030  0.00  0.00    -0.773 OA
HETATM   18  H   UNK N   1      35.062  18.201   9.231  0.00  0.00     0.167 HD
ENDBRANCH  15  17
ENDBRANCH   5  15
TORSDOF 6
ENDMDL
MODEL 3
REMARK VINA RESULT:      -5.6      0.082      4.866
REMARK  6 active torsions:
REMARK  status: ('A' for Active; 'I' for Inactive)
REMARK    1  A    between atoms: C_1  and  C_7 
REMARK    2  A    between atoms: C_3  and  C_8 
REMARK    3  A    between atoms: C_5  and  C_9 
REMARK    4  A    between atoms: C_7  and  O_11 
REMARK    5  A    between atoms: C_8  and  O_13 
REMARK    6  A    between atoms: C_9  and  O_15 
ROOT
HETATM    1  C   UNK N   1      30.029  17.938   8.384  0.00  0.00     0.039 A 
HETATM    2  C   UNK N   1      29.542  17.461   7.161  0.00  0.00     0.036 A 
HETATM    3  C   UNK N   1      30.423  17.094   6.134  0.00  0.00     0.039 A 
HETATM    4  C   UNK N   1      31.804  17.208   6.339  0.00  0.00     0.036 A 
HETATM    5  C   UNK N   1      32.308  17.684   7.558  0.00  0.00     0.039 A 
HETATM    6  C   UNK N   1      31.415  18.047   8.577  0.00  0.00     0.036 A 
ENDROOT
BRANCH   1   7
HETATM    7  C   UNK N   1      29.088  18.320   9.456  0.00  0.00     0.176 C 
HETATM    8  O   UNK N   1      29.501  18.806  10.498  0.00  0.00    -0.646 OA
BRANCH   7   9
HETATM    9  O   UNK N   1      27.762  18.135   9.291  0.00  0.00    -0.773 OA
HETATM   10  H   UNK N   1      27.194  18.133  10.035  0.00  0.00     0.167 HD
ENDBRANCH   7   9
ENDBRANCH   1   7
BRANCH   3  11
HETATM   11  C   UNK N   1      29.903  16.592   4.846  0.00  0.00     0.176 C 
HETATM   12  O   UNK N   1      29.763  15.392   4.662  0.00  0.00    -0.646 OA
BRANCH  11  13
HETATM   13  O   UNK N   1      29.577  17.455   3.863  0.00  0.00    -0.773 OA
HETATM   14  H   UNK N   1      28.839  18.023   3.964  0.00  0.00     0.167 HD
ENDBRANCH  11  13
ENDBRANCH   3  11
BRANCH   5  15
HETATM   15  C   UNK N   1      33.768  17.798   7.759  0.00  0.00     0.176 C 
HETATM   16  O   UNK N   1      34.513  17.940   6.803  0.00  0.00    -0.646 OA
BRANCH  15  17
HETATM   17  O   UNK N   1      34.286  17.747   9.003  0.00  0.00    -0.773 OA
HETATM   18  H   UNK N   1      34.430  16.918   9.416  0.00  0.00     0.167 HD
ENDBRANCH  15  17
ENDBRANCH   5  15
TORSDOF 6
ENDMDL
MODEL 4
REMARK VINA RESULT:      -5.5      0.354      4.998
REMARK  6 active torsions:
REMARK  status: ('A' for Active; 'I' for Inactive)
REMARK    1  A    between atoms: C_1  and  C_7 
REMARK    2  A    between atoms: C_3  and  C_8 
REMARK    3  A    between atoms: C_5  and  C_9 
REMARK    4  A    between atoms: C_7  and  O_11 
REMARK    5  A    between atoms: C_8  and  O_13 
REMARK    6  A    between atoms: C_9  and  O_15 
ROOT
HETATM    1  C   UNK N   1      32.412  17.698   7.775  0.00  0.00     0.039 A 
HETATM    2  C   UNK N   1      31.418  18.072   8.687  0.00  0.00     0.036 A 
HETATM    3  C   UNK N   1      30.061  17.960   8.352  0.00  0.00     0.039 A 
HETATM    4  C   UNK N   1      29.702  17.468   7.091  0.00  0.00     0.036 A 
HETATM    5  C   UNK N   1      30.685  17.089   6.166  0.00  0.00     0.039 A 
HETATM    6  C   UNK N   1      32.039  17.206   6.514  0.00  0.00     0.036 A 
ENDROOT
BRANCH   1   7
HETATM    7  C   UNK N   1      33.837  17.822   8.143  0.00  0.00     0.176 C 
HETATM    8  O   UNK N   1      34.658  18.197   7.320  0.00  0.00    -0.646 OA
BRANCH   7   9
HETATM    9  O   UNK N   1      34.242  17.521   9.393  0.00  0.00    -0.773 OA
HETATM   10  H   UNK N   1      34.956  17.989   9.779  0.00  0.00     0.167 HD
ENDBRANCH   7   9
ENDBRANCH   1   7
BRANCH   3  11
HETATM   11  C   UNK N   1      29.017  18.357   9.318  0.00  0.00     0.176 C 
HETATM   12  O   UNK N   1      29.298  18.525  10.496  0.00  0.00    -0.646 OA
BRANCH  11  13
HETATM   13  O   UNK N   1      27.745  18.537   8.909  0.00  0.00    -0.773 OA
HETATM   14  H   UNK N   1      27.036  18.212   9.428  0.00  0.00     0.167 HD
ENDBRANCH  11  13
ENDBRANCH   3  11
BRANCH   5  15
HETATM   15  C   UNK N   1      30.291  16.571   4.839  0.00  0.00     0.176 C 
HETATM   16  O   UNK N   1      29.933  15.411   4.711  0.00  0.00    -0.646 OA
BRANCH  15  17
HETATM   17  O   UNK N   1      30.324  17.378   3.760  0.00  0.00    -0.773 OA
HETATM   18  H   UNK N   1      30.401  18.305   3.870  0.00  0.00     0.167 HD
ENDBRANCH  15  17
ENDBRANCH   5  15
TORSDOF 6
ENDMDL
MODEL 5
REMARK VINA RESULT:      -5.5      0.302      3.942
REMARK  6 active torsions:
REMARK  status: ('A' for Active; 'I' for Inactive)
REMARK    1  A    between atoms: C_1  and  C_7 
REMARK    2  A    between atoms: C_3  and  C_8 
REMARK    3  A    between atoms: C_5  and  C_9 
REMARK    4  A    between atoms: C_7  and  O_11 
REMARK    5  A    between atoms: C_8  and  O_13 
REMARK    6  A    between atoms: C_9  and  O_15 
ROOT
HETATM    1  C   UNK N   1      30.063  17.978   8.363  0.00  0.00     0.039 A 
HETATM    2  C   UNK N   1      31.422  18.076   8.683  0.00  0.00     0.036 A 
HETATM    3  C   UNK N   1      32.405  17.686   7.762  0.00  0.00     0.039 A 
HETATM    4  C   UNK N   1      32.016  17.193   6.510  0.00  0.00     0.036 A 
HETATM    5  C   UNK N   1      30.659  17.089   6.173  0.00  0.00     0.039 A 
HETATM    6  C   UNK N   1      29.686  17.483   7.104  0.00  0.00     0.036 A 
ENDROOT
BRANCH   1   7
HETATM    7  C   UNK N   1      29.040  18.394   9.345  0.00  0.00     0.176 C 
HETATM    8  O   UNK N   1      29.365  18.710  10.479  0.00  0.00    -0.646 OA
BRANCH   7   9
HETATM    9  O   UNK N   1      27.739  18.428   8.994  0.00  0.00    -0.773 OA
HETATM   10  H   UNK N   1      27.198  19.141   9.269  0.00  0.00     0.167 HD
ENDBRANCH   7   9
ENDBRANCH   1   7
BRANCH   3  11
HETATM   11  C   UNK N   1      33.836  17.791   8.106  0.00  0.00     0.176 C 
HETATM   12  O   UNK N   1      34.654  18.113   7.256  0.00  0.00    -0.646 OA
BRANCH  11  13
HETATM   13  O   UNK N   1      34.254  17.533   9.362  0.00  0.00    -0.773 OA
HETATM   14  H   UNK N   1      35.171  17.483   9.549  0.00  0.00     0.167 HD
ENDBRANCH  11  13
ENDBRANCH   3  11
BRANCH   5  15
HETATM   15  C   UNK N   1      30.264  16.567   4.848  0.00  0.00     0.176 C 
HETATM   16  O   UNK N   1      30.052  15.375   4.692  0.00  0.00    -0.646 OA
BRANCH  15  17
HETATM   17  O   UNK N   1      30.135  17.406   3.800  0.00  0.00    -0.773 OA
HETATM   18  H   UNK N   1      29.290  17.734   3.565  0.00  0.00     0.167 HD
ENDBRANCH  15  17
ENDBRANCH   5  15
TORSDOF 6
ENDMDL
MODEL 6
REMARK VINA RESULT:      -5.5      9.439     11.649
REMARK  6 active torsions:
REMARK  status: ('A' for Active; 'I' for Inactive)
REMARK    1  A    between atoms: C_1  and  C_7 
REMARK    2  A    between atoms: C_3  and  C_8 
REMARK    3  A    between atoms: C_5  and  C_9 
REMARK    4  A    between atoms: C_7  and  O_11 
REMARK    5  A    between atoms: C_8  and  O_13 
REMARK    6  A    between atoms: C_9  and  O_15 
ROOT
HETATM    1  C   UNK N   1      20.847  19.351   2.036  0.00  0.00     0.039 A 
HETATM    2  C   UNK N   1      20.508  18.119   1.462  0.00  0.00     0.036 A 
HETATM    3  C   UNK N   1      20.560  16.940   2.218  0.00  0.00     0.039 A 
HETATM    4  C   UNK N   1      20.957  17.000   3.560  0.00  0.00     0.036 A 
HETATM    5  C   UNK N   1      21.300  18.225   4.150  0.00  0.00     0.039 A 
HETATM    6  C   UNK N   1      21.243  19.398   3.382  0.00  0.00     0.036 A 
ENDROOT
BRANCH   1   7
HETATM    7  C   UNK N   1      20.787  20.585   1.226  0.00  0.00     0.176 C 
HETATM    8  O   UNK N   1      20.940  21.677   1.751  0.00  0.00    -0.646 OA
BRANCH   7   9
HETATM    9  O   UNK N   1      20.563  20.513  -0.102  0.00  0.00    -0.773 OA
HETATM   10  H   UNK N   1      21.273  20.618  -0.703  0.00  0.00     0.167 HD
ENDBRANCH   7   9
ENDBRANCH   1   7
BRANCH   3  11
HETATM   11  C   UNK N   1      20.201  15.644   1.608  0.00  0.00     0.176 C 
HETATM   12  O   UNK N   1      20.842  15.208   0.663  0.00  0.00    -0.646 OA
BRANCH  11  13
HETATM   13  O   UNK N   1      19.162  14.932   2.088  0.00  0.00    -0.773 OA
HETATM   14  H   UNK N   1      18.877  14.160   1.641  0.00  0.00     0.167 HD
ENDBRANCH  11  13
ENDBRANCH   3  11
BRANCH   5  15
HETATM   15  C   UNK N   1      21.717  18.273   5.567  0.00  0.00     0.176 C 
HETATM   16  O   UNK N   1      21.009  18.816   6.400  0.00  0.00    -0.646 OA
BRANCH  15  17
HETATM   17  O   UNK N   1      22.883  17.715   5.949  0.00  0.00    -0.773 OA
HETATM   18  H   UNK N   1      23.038  16.803   5.799  0.00  0.00     0.167 HD
ENDBRANCH  15  17
ENDBRANCH   5  15
TORSDOF 6
ENDMDL
MODEL 7
REMARK VINA RESULT:      -5.5      9.833     11.751
REMARK  6 active torsions:
REMARK  status: ('A' for Active; 'I' for Inactive)
REMARK    1  A    between atoms: C_1  and  C_7 
REMARK    2  A    between atoms: C_3  and  C_8 
REMARK    3  A    between atoms: C_5  and  C_9 
REMARK    4  A    between atoms: C_7  and  O_11 
REMARK    5  A    between atoms: C_8  and  O_13 
REMARK    6  A    between atoms: C_9  and  O_15 
ROOT
HETATM    1  C   UNK N   1      21.139  17.951   4.654  0.00  0.00     0.039 A 
HETATM    2  C   UNK N   1      21.309  19.182   4.009  0.00  0.00     0.036 A 
HETATM    3  C   UNK N   1      21.097  19.302   2.628  0.00  0.00     0.039 A 
HETATM    4  C   UNK N   1      20.712  18.175   1.891  0.00  0.00     0.036 A 
HETATM    5  C   UNK N   1      20.538  16.935   2.521  0.00  0.00     0.039 A 
HETATM    6  C   UNK N   1      20.753  16.829   3.904  0.00  0.00     0.036 A 
ENDROOT
BRANCH   1   7
HETATM    7  C   UNK N   1      21.366  17.841   6.109  0.00  0.00     0.176 C 
HETATM    8  O   UNK N   1      21.898  16.847   6.579  0.00  0.00    -0.646 OA
BRANCH   7   9
HETATM    9  O   UNK N   1      20.987  18.841   6.931  0.00  0.00    -0.773 OA
HETATM   10  H   UNK N   1      21.613  19.477   7.214  0.00  0.00     0.167 HD
ENDBRANCH   7   9
ENDBRANCH   1   7
BRANCH   3  11
HETATM   11  C   UNK N   1      21.278  20.603   1.955  0.00  0.00     0.176 C 
HETATM   12  O   UNK N   1      21.278  20.672   0.735  0.00  0.00    -0.646 OA
BRANCH  11  13
HETATM   13  O   UNK N   1      21.445  21.727   2.681  0.00  0.00    -0.773 OA
HETATM   14  H   UNK N   1      21.334  21.704   3.611  0.00  0.00     0.167 HD
ENDBRANCH  11  13
ENDBRANCH   3  11
BRANCH   5  15
HETATM   15  C   UNK N   1      20.131  15.755   1.730  0.00  0.00     0.176 C 
HETATM   16  O   UNK N   1      20.659  15.522   0.654  0.00  0.00    -0.646 OA
BRANCH  15  17
HETATM   17  O   UNK N   1      19.173  14.926   2.193  0.00  0.00    -0.773 OA
HETATM   18  H   UNK N   1      18.376  14.818   1.712  0.00  0.00     0.167 HD
ENDBRANCH  15  17
ENDBRANCH   5  15
TORSDOF 6
ENDMDL
MODEL 8
REMARK VINA RESULT:      -5.5      0.766      4.026
REMARK  6 active torsions:
REMARK  status: ('A' for Active; 'I' for Inactive)
REMARK    1  A    between atoms: C_1  and  C_7 
REMARK    2  A    between atoms: C_3  and  C_8 
REMARK    3  A    between atoms: C_5  and  C_9 
REMARK    4  A    between atoms: C_7  and  O_11 
REMARK    5  A    between atoms: C_8  and  O_13 
REMARK    6  A    between atoms: C_9  and  O_15 
ROOT
HETATM    1  C   UNK N   1      32.142  17.613   7.720  0.00  0.00     0.039 A 
HETATM    2  C   UNK N   1      31.883  17.216   6.403  0.00  0.00     0.036 A 
HETATM    3  C   UNK N   1      30.568  17.016   5.961  0.00  0.00     0.039 A 
HETATM    4  C   UNK N   1      29.505  17.216   6.852  0.00  0.00     0.036 A 
HETATM    5  C   UNK N   1      29.747  17.613   8.174  0.00  0.00     0.039 A 
HETATM    6  C   UNK N   1      31.068  17.810   8.603  0.00  0.00     0.036 A 
ENDROOT
BRANCH   1   7
HETATM    7  C   UNK N   1      33.534  17.820   8.170  0.00  0.00     0.176 C 
HETATM    8  O   UNK N   1      34.371  18.269   7.403  0.00  0.00    -0.646 OA
BRANCH   7   9
HETATM    9  O   UNK N   1      33.890  17.513   9.434  0.00  0.00    -0.773 OA
HETATM   10  H   UNK N   1      33.744  18.129  10.124  0.00  0.00     0.167 HD
ENDBRANCH   7   9
ENDBRANCH   1   7
BRANCH   3  11
HETATM   11  C   UNK N   1      30.301  16.598   4.570  0.00  0.00     0.176 C 
HETATM   12  O   UNK N   1      30.596  15.472   4.197  0.00  0.00    -0.646 OA
BRANCH  11  13
HETATM   13  O   UNK N   1      29.731  17.456   3.701  0.00  0.00    -0.773 OA
HETATM   14  H   UNK N   1      28.831  17.695   3.801  0.00  0.00     0.167 HD
ENDBRANCH  11  13
ENDBRANCH   3  11
BRANCH   5  15
HETATM   15  C   UNK N   1      28.616  17.820   9.103  0.00  0.00     0.176 C 
HETATM   16  O   UNK N   1      28.454  17.073  10.055  0.00  0.00    -0.646 OA
BRANCH  15  17
HETATM   17  O   UNK N   1      27.753  18.837   8.904  0.00  0.00    -0.773 OA
HETATM   18  H   UNK N   1      27.923  19.676   9.284  0.00  0.00     0.167 HD
ENDBRANCH  15  17
ENDBRANCH   5  15
TORSDOF 6
ENDMDL
MODEL 9
REMARK VINA RESULT:      -5.4      1.797      4.239
REMARK  6 active torsions:
REMARK  status: ('A' for Active; 'I' for Inactive)
REMARK    1  A    between atoms: C_1  and  C_7 
REMARK    2  A    between atoms: C_3  and  C_8 
REMARK    3  A    between atoms: C_5  and  C_9 
REMARK    4  A    between atoms: C_7  and  O_11 
REMARK    5  A    between atoms: C_8  and  O_13 
REMARK    6  A    between atoms: C_9  and  O_15 
ROOT
HETATM    1  C   UNK N   1      30.963  17.326   7.329  0.00  0.00     0.039 A 
HETATM    2  C   UNK N   1      32.058  17.650   8.140  0.00  0.00     0.036 A 
HETATM    3  C   UNK N   1      33.346  17.754   7.596  0.00  0.00     0.039 A 
HETATM    4  C   UNK N   1      33.533  17.530   6.225  0.00  0.00     0.036 A 
HETATM    5  C   UNK N   1      32.448  17.205   5.400  0.00  0.00     0.039 A 
HETATM    6  C   UNK N   1      31.164  17.104   5.958  0.00  0.00     0.036 A 
ENDROOT
BRANCH   1   7
HETATM    7  C   UNK N   1      29.613  17.220   7.919  0.00  0.00     0.176 C 
HETATM    8  O   UNK N   1      28.661  16.892   7.228  0.00  0.00    -0.646 OA
BRANCH   7   9
HETATM    9  O   UNK N   1      29.422  17.486   9.227  0.00  0.00    -0.773 OA
HETATM   10  H   UNK N   1      28.868  16.934   9.741  0.00  0.00     0.167 HD
ENDBRANCH   7   9
ENDBRANCH   1   7
BRANCH   3  11
HETATM   11  C   UNK N   1      34.496  18.096   8.456  0.00  0.00     0.176 C 
HETATM   12  O   UNK N   1      34.676  17.504   9.510  0.00  0.00    -0.646 OA
BRANCH  11  13
HETATM   13  O   UNK N   1      35.357  19.064   8.085  0.00  0.00    -0.773 OA
HETATM   14  H   UNK N   1      36.138  19.212   8.582  0.00  0.00     0.167 HD
ENDBRANCH  11  13
ENDBRANCH   3  11
BRANCH   5  15
HETATM   15  C   UNK N   1      32.661  16.972   3.956  0.00  0.00     0.176 C 
HETATM   16  O   UNK N   1      33.528  16.200   3.577  0.00  0.00    -0.646 OA
BRANCH  15  17
HETATM   17  O   UNK N   1      31.898  17.611   3.046  0.00  0.00    -0.773 OA
HETATM   18  H   UNK N   1      31.438  17.120   2.394  0.00  0.00     0.167 HD
ENDBRANCH  15  17
ENDBRANCH   5  15
TORSDOF 6
ENDMDL
