REMARK  6 active torsions:
REMARK  status: ('A' for Active; 'I' for Inactive)
REMARK    1  A    between atoms: C_1  and  C_7 
REMARK    2  A    between atoms: C_3  and  C_8 
REMARK    3  A    between atoms: C_5  and  C_9 
REMARK    4  A    between atoms: C_7  and  O_11 
REMARK    5  A    between atoms: C_8  and  O_13 
REMARK    6  A    between atoms: C_9  and  O_15 
ROOT
HETATM    1  C   UNK N   1       1.243   0.915   0.000  0.00  0.00     0.039 A 
HETATM    2  C   UNK N   1       1.215  -0.485   0.000  0.00  0.00     0.036 A 
HETATM    3  C   UNK N   1      -0.005  -1.176   0.000  0.00  0.00     0.039 A 
HETATM    4  C   UNK N   1      -1.205  -0.453  -0.000  0.00  0.00     0.036 A 
HETATM    5  C   UNK N   1      -1.194   0.949  -0.000  0.00  0.00     0.039 A 
HETATM    6  C   UNK N   1       0.034   1.628   0.000  0.00  0.00     0.036 A 
ENDROOT
BRANCH   1   7
HETATM    7  C   UNK N   1       2.537   1.628   0.000  0.00  0.00     0.176 C 
HETATM    8  O   UNK N   1       2.570   2.849   0.000  0.00  0.00    -0.646 OA
BRANCH   7   9
HETATM    9  O   UNK N   1       3.693   0.934   0.000  0.00  0.00    -0.773 OA
HETATM   10  H   UNK N   1       3.677  -0.002   0.000  0.00  0.00     0.167 HD
ENDBRANCH   7   9
ENDBRANCH   1   7
BRANCH   3  11
HETATM   11  C   UNK N   1      -0.028  -2.652   0.000  0.00  0.00     0.176 C 
HETATM   12  O   UNK N   1       1.017  -3.286   0.000  0.00  0.00    -0.646 OA
BRANCH  11  13
HETATM   13  O   UNK N   1      -1.203  -3.313  -0.000  0.00  0.00    -0.773 OA
HETATM   14  H   UNK N   1      -2.009  -2.835  -0.000  0.00  0.00     0.167 HD
ENDBRANCH  11  13
ENDBRANCH   3  11
BRANCH   5  15
HETATM   15  C   UNK N   1      -2.468   1.698  -0.000  0.00  0.00     0.176 C 
HETATM   16  O   UNK N   1      -2.466   2.919  -0.000  0.00  0.00    -0.646 OA
BRANCH  15  17
HETATM   17  O   UNK N   1      -3.643   1.037  -0.000  0.00  0.00    -0.773 OA
HETATM   18  H   UNK N   1      -4.449   1.515  -0.000  0.00  0.00     0.167 HD
ENDBRANCH  15  17
ENDBRANCH   5  15
TORSDOF 6
