REMARK  7 active torsions:
REMARK  status: ('A' for Active; 'I' for Inactive)
REMARK    1  A    between atoms: C_1  and  C_15 
REMARK    2  A    between atoms: C_7  and  C_15 
REMARK    3  A    between atoms: N_8  and  C_19 
REMARK    4  A    between atoms: C_14  and  C_16 
REMARK    5  A    between atoms: C_19  and  O_20 
REMARK    6  A    between atoms: O_20  and  C_21 
REMARK    7  A    between atoms: C_21  and  C_22 
ROOT
HETATM    1  C   UNK N   1       0.686   1.815   0.494  0.00  0.00     0.035 A 
HETATM    2  N   UNK N   1      -0.600   1.381   0.268  0.00  0.00    -0.280 N 
HETATM    3  C   UNK N   1      -1.569   2.257  -0.181  0.00  0.00     0.331 A 
HETATM    4  O   UNK N   1      -2.715   1.880  -0.357  0.00  0.00    -0.246 OA
HETATM    5  N   UNK N   1      -1.257   3.560  -0.420  0.00  0.00    -0.275 N 
HETATM    6  C   UNK N   1       0.007   4.033  -0.245  0.00  0.00     0.257 A 
HETATM    7  O   UNK N   1       0.229   5.205  -0.487  0.00  0.00    -0.267 OA
HETATM    8  C   UNK N   1       1.029   3.167   0.216  0.00  0.00     0.037 A 
HETATM    9  H   UNK N   1      -1.962   4.175  -0.727  0.00  0.00     0.173 HD
ENDROOT
BRANCH   2  10
HETATM   10  C   UNK N   1      -0.979  -0.011   0.482  0.00  0.00     0.303 C 
BRANCH  10  11
HETATM   11  O   UNK N   1      -1.372  -0.561  -0.747  0.00  0.00    -0.367 OA
BRANCH  11  12
HETATM   12  C   UNK N   1      -1.179  -1.938  -0.631  0.00  0.00     0.208 C 
BRANCH  12  13
HETATM   13  C   UNK N   1      -2.454  -2.646  -0.305  0.00  0.00    -0.035 A 
HETATM   14  C   UNK N   1      -2.428  -4.026  -0.087  0.00  0.00     0.009 A 
HETATM   15  C   UNK N   1      -3.604  -4.706   0.239  0.00  0.00     0.001 A 
HETATM   16  C   UNK N   1      -4.810  -4.007   0.348  0.00  0.00     0.000 A 
HETATM   17  C   UNK N   1      -4.842  -2.627   0.129  0.00  0.00     0.001 A 
HETATM   18  C   UNK N   1      -3.667  -1.947  -0.196  0.00  0.00     0.009 A 
ENDBRANCH  12  13
ENDBRANCH  11  12
ENDBRANCH  10  11
ENDBRANCH   2  10
BRANCH   1  19
HETATM   19  C   UNK N   1       1.740   0.923   1.152  0.00  0.00     0.096 C 
BRANCH  19  20
HETATM   20  C   UNK N   1       2.181  -0.394   0.577  0.00  0.00    -0.053 A 
HETATM   21  C   UNK N   1       3.437  -0.502  -0.034  0.00  0.00     0.007 A 
HETATM   22  C   UNK N   1       3.931  -1.757  -0.417  0.00  0.00     0.001 A 
HETATM   23  C   UNK N   1       3.182  -2.911  -0.169  0.00  0.00     0.000 A 
HETATM   24  C   UNK N   1       1.945  -2.813   0.471  0.00  0.00     0.001 A 
HETATM   25  C   UNK N   1       1.461  -1.561   0.861  0.00  0.00     0.007 A 
ENDBRANCH  19  20
ENDBRANCH   1  19
BRANCH   8  26
HETATM   26  C   UNK N   1       2.471   3.630   0.431  0.00  0.00     0.018 C 
HETATM   27  C   UNK N   1       2.744   5.125   0.347  0.00  0.00     0.015 C 
HETATM   28  C   UNK N   1       3.393   2.932  -0.555  0.00  0.00     0.015 C 
ENDBRANCH   8  26
TORSDOF 7
