MODEL 1
REMARK VINA RESULT:      -6.1      0.000      0.000
REMARK  7 active torsions:
REMARK  status: ('A' for Active; 'I' for Inactive)
REMARK    1  A    between atoms: C_1  and  C_15 
REMARK    2  A    between atoms: C_7  and  C_15 
REMARK    3  A    between atoms: N_8  and  C_19 
REMARK    4  A    between atoms: C_14  and  C_16 
REMARK    5  A    between atoms: C_19  and  O_20 
REMARK    6  A    between atoms: O_20  and  C_21 
REMARK    7  A    between atoms: C_21  and  C_22 
ROOT
HETATM    1  C   UNK N   1      30.520  22.812  -5.286  0.00  0.00     0.035 A 
HETATM    2  N   UNK N   1      30.534  23.340  -4.015  0.00  0.00    -0.280 N 
HETATM    3  C   UNK N   1      30.835  22.545  -2.926  0.00  0.00     0.331 A 
HETATM    4  O   UNK N   1      30.822  23.006  -1.798  0.00  0.00    -0.246 OA
HETATM    5  N   UNK N   1      31.136  21.230  -3.101  0.00  0.00    -0.275 N 
HETATM    6  C   UNK N   1      31.169  20.665  -4.339  0.00  0.00     0.257 A 
HETATM    7  O   UNK N   1      31.457  19.486  -4.434  0.00  0.00    -0.267 OA
HETATM    8  C   UNK N   1      30.865  21.446  -5.481  0.00  0.00     0.037 A 
HETATM    9  H   UNK N   1      31.335  20.673  -2.314  0.00  0.00     0.173 HD
ENDROOT
BRANCH   2  10
HETATM   10  C   UNK N   1      30.246  24.750  -3.777  0.00  0.00     0.303 C 
BRANCH  10  11
HETATM   11  O   UNK N   1      28.861  24.902  -3.617  0.00  0.00    -0.367 OA
BRANCH  11  12
HETATM   12  C   UNK N   1      28.590  26.248  -3.866  0.00  0.00     0.208 C 
BRANCH  12  13
HETATM   13  C   UNK N   1      27.507  26.412  -4.882  0.00  0.00    -0.035 A 
HETATM   14  C   UNK N   1      27.807  27.024  -6.102  0.00  0.00     0.009 A 
HETATM   15  C   UNK N   1      26.815  27.170  -7.075  0.00  0.00     0.001 A 
HETATM   16  C   UNK N   1      25.520  26.704  -6.830  0.00  0.00     0.000 A 
HETATM   17  C   UNK N   1      25.214  26.093  -5.611  0.00  0.00     0.001 A 
HETATM   18  C   UNK N   1      26.205  25.946  -4.639  0.00  0.00     0.009 A 
ENDBRANCH  12  13
ENDBRANCH  11  12
ENDBRANCH  10  11
ENDBRANCH   2  10
BRANCH   1  19
HETATM   19  C   UNK N   1      30.026  23.612  -6.492  0.00  0.00     0.096 C 
BRANCH  19  20
HETATM   20  C   UNK N   1      28.601  23.587  -6.971  0.00  0.00    -0.053 A 
HETATM   21  C   UNK N   1      28.298  23.999  -8.275  0.00  0.00     0.007 A 
HETATM   22  C   UNK N   1      27.006  23.818  -8.791  0.00  0.00     0.001 A 
HETATM   23  C   UNK N   1      26.021  23.202  -8.013  0.00  0.00     0.000 A 
HETATM   24  C   UNK N   1      26.327  22.759  -6.725  0.00  0.00     0.001 A 
HETATM   25  C   UNK N   1      27.619  22.931  -6.219  0.00  0.00     0.007 A 
ENDBRANCH  19  20
ENDBRANCH   1  19
BRANCH   8  26
HETATM   26  C   UNK N   1      30.887  20.878  -6.901  0.00  0.00     0.018 C 
HETATM   27  C   UNK N   1      29.810  19.866  -7.265  0.00  0.00     0.015 C 
HETATM   28  C   UNK N   1      32.238  20.244  -7.186  0.00  0.00     0.015 C 
ENDBRANCH   8  26
TORSDOF 7
ENDMDL
MODEL 2
REMARK VINA RESULT:      -5.9     11.722     15.055
REMARK  7 active torsions:
REMARK  status: ('A' for Active; 'I' for Inactive)
REMARK    1  A    between atoms: C_1  and  C_15 
REMARK    2  A    between atoms: C_7  and  C_15 
REMARK    3  A    between atoms: N_8  and  C_19 
REMARK    4  A    between atoms: C_14  and  C_16 
REMARK    5  A    between atoms: C_19  and  O_20 
REMARK    6  A    between atoms: O_20  and  C_21 
REMARK    7  A    between atoms: C_21  and  C_22 
ROOT
HETATM    1  C   UNK N   1      29.421  17.057   6.955  0.00  0.00     0.035 A 
HETATM    2  N   UNK N   1      29.929  17.422   8.180  0.00  0.00    -0.280 N 
HETATM    3  C   UNK N   1      29.474  18.559   8.820  0.00  0.00     0.331 A 
HETATM    4  O   UNK N   1      29.942  18.898   9.893  0.00  0.00    -0.246 OA
HETATM    5  N   UNK N   1      28.504  19.324   8.249  0.00  0.00    -0.275 N 
HETATM    6  C   UNK N   1      27.944  18.990   7.055  0.00  0.00     0.257 A 
HETATM    7  O   UNK N   1      27.071  19.706   6.601  0.00  0.00    -0.267 OA
HETATM    8  C   UNK N   1      28.384  17.833   6.366  0.00  0.00     0.037 A 
HETATM    9  H   UNK N   1      28.200  20.139   8.712  0.00  0.00     0.173 HD
ENDROOT
BRANCH   2  10
HETATM   10  C   UNK N   1      30.950  16.622   8.846  0.00  0.00     0.303 C 
BRANCH  10  11
HETATM   11  O   UNK N   1      32.212  17.118   8.488  0.00  0.00    -0.367 OA
BRANCH  11  12
HETATM   12  C   UNK N   1      33.133  16.148   8.884  0.00  0.00     0.208 C 
BRANCH  12  13
HETATM   13  C   UNK N   1      33.646  15.368   7.717  0.00  0.00    -0.035 A 
HETATM   14  C   UNK N   1      34.598  15.951   6.876  0.00  0.00     0.009 A 
HETATM   15  C   UNK N   1      35.107  15.234   5.791  0.00  0.00     0.001 A 
HETATM   16  C   UNK N   1      34.664  13.931   5.543  0.00  0.00     0.000 A 
HETATM   17  C   UNK N   1      33.710  13.344   6.379  0.00  0.00     0.001 A 
HETATM   18  C   UNK N   1      33.202  14.060   7.464  0.00  0.00     0.009 A 
ENDBRANCH  12  13
ENDBRANCH  11  12
ENDBRANCH  10  11
ENDBRANCH   2  10
BRANCH   1  19
HETATM   19  C   UNK N   1      30.016  15.909   6.138  0.00  0.00     0.096 C 
BRANCH  19  20
HETATM   20  C   UNK N   1      31.131  16.093   5.147  0.00  0.00    -0.053 A 
HETATM   21  C   UNK N   1      31.367  15.115   4.173  0.00  0.00     0.007 A 
HETATM   22  C   UNK N   1      32.285  15.352   3.141  0.00  0.00     0.001 A 
HETATM   23  C   UNK N   1      32.953  16.578   3.064  0.00  0.00     0.000 A 
HETATM   24  C   UNK N   1      32.697  17.570   4.013  0.00  0.00     0.001 A 
HETATM   25  C   UNK N   1      31.773  17.333   5.034  0.00  0.00     0.007 A 
ENDBRANCH  19  20
ENDBRANCH   1  19
BRANCH   8  26
HETATM   26  C   UNK N   1      27.796  17.396   5.023  0.00  0.00     0.018 C 
HETATM   27  C   UNK N   1      27.720  18.443   3.921  0.00  0.00     0.015 C 
HETATM   28  C   UNK N   1      26.400  16.831   5.227  0.00  0.00     0.015 C 
ENDBRANCH   8  26
TORSDOF 7
ENDMDL
MODEL 3
REMARK VINA RESULT:      -5.9     10.810     13.687
REMARK  7 active torsions:
REMARK  status: ('A' for Active; 'I' for Inactive)
REMARK    1  A    between atoms: C_1  and  C_15 
REMARK    2  A    between atoms: C_7  and  C_15 
REMARK    3  A    between atoms: N_8  and  C_19 
REMARK    4  A    between atoms: C_14  and  C_16 
REMARK    5  A    between atoms: C_19  and  O_20 
REMARK    6  A    between atoms: O_20  and  C_21 
REMARK    7  A    between atoms: C_21  and  C_22 
ROOT
HETATM    1  C   UNK N   1      28.615  18.148   5.784  0.00  0.00     0.035 A 
HETATM    2  N   UNK N   1      29.006  18.003   7.096  0.00  0.00    -0.280 N 
HETATM    3  C   UNK N   1      28.415  18.756   8.092  0.00  0.00     0.331 A 
HETATM    4  O   UNK N   1      28.778  18.648   9.251  0.00  0.00    -0.246 OA
HETATM    5  N   UNK N   1      27.426  19.640   7.788  0.00  0.00    -0.275 N 
HETATM    6  C   UNK N   1      26.979  19.797   6.512  0.00  0.00     0.257 A 
HETATM    7  O   UNK N   1      26.083  20.594   6.303  0.00  0.00    -0.267 OA
HETATM    8  C   UNK N   1      27.560  19.045   5.462  0.00  0.00     0.037 A 
HETATM    9  H   UNK N   1      27.024  20.179   8.508  0.00  0.00     0.173 HD
ENDROOT
BRANCH   2  10
HETATM   10  C   UNK N   1      30.041  17.050   7.478  0.00  0.00     0.303 C 
BRANCH  10  11
HETATM   11  O   UNK N   1      31.284  17.698   7.433  0.00  0.00    -0.367 OA
BRANCH  11  12
HETATM   12  C   UNK N   1      32.235  16.693   7.258  0.00  0.00     0.208 C 
BRANCH  12  13
HETATM   13  C   UNK N   1      32.451  16.386   5.811  0.00  0.00    -0.035 A 
HETATM   14  C   UNK N   1      32.289  15.072   5.364  0.00  0.00     0.009 A 
HETATM   15  C   UNK N   1      32.465  14.766   4.012  0.00  0.00     0.001 A 
HETATM   16  C   UNK N   1      32.803  15.773   3.104  0.00  0.00     0.000 A 
HETATM   17  C   UNK N   1      32.968  17.089   3.546  0.00  0.00     0.001 A 
HETATM   18  C   UNK N   1      32.792  17.396   4.896  0.00  0.00     0.009 A 
ENDBRANCH  12  13
ENDBRANCH  11  12
ENDBRANCH  10  11
ENDBRANCH   2  10
BRANCH   1  19
HETATM   19  C   UNK N   1      29.358  17.463   4.636  0.00  0.00     0.096 C 
BRANCH  19  20
HETATM   20  C   UNK N   1      28.942  16.140   4.057  0.00  0.00    -0.053 A 
HETATM   21  C   UNK N   1      29.120  15.891   2.690  0.00  0.00     0.007 A 
HETATM   22  C   UNK N   1      28.900  14.607   2.171  0.00  0.00     0.001 A 
HETATM   23  C   UNK N   1      28.525  13.562   3.021  0.00  0.00     0.000 A 
HETATM   24  C   UNK N   1      28.380  13.797   4.389  0.00  0.00     0.001 A 
HETATM   25  C   UNK N   1      28.611  15.075   4.904  0.00  0.00     0.007 A 
ENDBRANCH  19  20
ENDBRANCH   1  19
BRANCH   8  26
HETATM   26  C   UNK N   1      27.105  19.168   4.006  0.00  0.00     0.018 C 
HETATM   27  C   UNK N   1      26.801  20.566   3.486  0.00  0.00     0.015 C 
HETATM   28  C   UNK N   1      25.875  18.307   3.773  0.00  0.00     0.015 C 
ENDBRANCH   8  26
TORSDOF 7
ENDMDL
MODEL 4
REMARK VINA RESULT:      -5.8      2.055      3.657
REMARK  7 active torsions:
REMARK  status: ('A' for Active; 'I' for Inactive)
REMARK    1  A    between atoms: C_1  and  C_15 
REMARK    2  A    between atoms: C_7  and  C_15 
REMARK    3  A    between atoms: N_8  and  C_19 
REMARK    4  A    between atoms: C_14  and  C_16 
REMARK    5  A    between atoms: C_19  and  O_20 
REMARK    6  A    between atoms: O_20  and  C_21 
REMARK    7  A    between atoms: C_21  and  C_22 
ROOT
HETATM    1  C   UNK N   1      29.164  23.398  -4.974  0.00  0.00     0.035 A 
HETATM    2  N   UNK N   1      27.880  23.753  -4.631  0.00  0.00    -0.280 N 
HETATM    3  C   UNK N   1      27.510  23.862  -3.305  0.00  0.00     0.331 A 
HETATM    4  O   UNK N   1      26.366  24.152  -3.000  0.00  0.00    -0.246 OA
HETATM    5  N   UNK N   1      28.420  23.633  -2.319  0.00  0.00    -0.275 N 
HETATM    6  C   UNK N   1      29.712  23.312  -2.603  0.00  0.00     0.257 A 
HETATM    7  O   UNK N   1      30.484  23.131  -1.680  0.00  0.00    -0.267 OA
HETATM    8  C   UNK N   1      30.130  23.189  -3.951  0.00  0.00     0.037 A 
HETATM    9  H   UNK N   1      28.138  23.702  -1.378  0.00  0.00     0.173 HD
ENDROOT
BRANCH   2  10
HETATM   10  C   UNK N   1      26.874  24.037  -5.649  0.00  0.00     0.303 C 
BRANCH  10  11
HETATM   11  O   UNK N   1      27.183  25.265  -6.252  0.00  0.00    -0.367 OA
BRANCH  11  12
HETATM   12  C   UNK N   1      26.042  26.056  -6.118  0.00  0.00     0.208 C 
BRANCH  12  13
HETATM   13  C   UNK N   1      26.367  27.397  -5.545  0.00  0.00    -0.035 A 
HETATM   14  C   UNK N   1      25.765  27.788  -4.346  0.00  0.00     0.009 A 
HETATM   15  C   UNK N   1      26.070  29.028  -3.780  0.00  0.00     0.001 A 
HETATM   16  C   UNK N   1      26.978  29.882  -4.414  0.00  0.00     0.000 A 
HETATM   17  C   UNK N   1      27.581  29.498  -5.614  0.00  0.00     0.001 A 
HETATM   18  C   UNK N   1      27.278  28.258  -6.179  0.00  0.00     0.009 A 
ENDBRANCH  12  13
ENDBRANCH  11  12
ENDBRANCH  10  11
ENDBRANCH   2  10
BRANCH   1  19
HETATM   19  C   UNK N   1      29.566  23.100  -6.419  0.00  0.00     0.096 C 
BRANCH  19  20
HETATM   20  C   UNK N   1      29.448  21.737  -7.043  0.00  0.00    -0.053 A 
HETATM   21  C   UNK N   1      30.386  20.745  -6.730  0.00  0.00     0.007 A 
HETATM   22  C   UNK N   1      30.191  19.426  -7.166  0.00  0.00     0.001 A 
HETATM   23  C   UNK N   1      29.047  19.090  -7.894  0.00  0.00     0.000 A 
HETATM   24  C   UNK N   1      28.092  20.068  -8.179  0.00  0.00     0.001 A 
HETATM   25  C   UNK N   1      28.284  21.379  -7.734  0.00  0.00     0.007 A 
ENDBRANCH  19  20
ENDBRANCH   1  19
BRANCH   8  26
HETATM   26  C   UNK N   1      31.566  22.835  -4.343  0.00  0.00     0.018 C 
HETATM   27  C   UNK N   1      32.306  21.843  -3.457  0.00  0.00     0.015 C 
HETATM   28  C   UNK N   1      32.406  24.098  -4.431  0.00  0.00     0.015 C 
ENDBRANCH   8  26
TORSDOF 7
ENDMDL
MODEL 5
REMARK VINA RESULT:      -5.8      2.300      3.290
REMARK  7 active torsions:
REMARK  status: ('A' for Active; 'I' for Inactive)
REMARK    1  A    between atoms: C_1  and  C_15 
REMARK    2  A    between atoms: C_7  and  C_15 
REMARK    3  A    between atoms: N_8  and  C_19 
REMARK    4  A    between atoms: C_14  and  C_16 
REMARK    5  A    between atoms: C_19  and  O_20 
REMARK    6  A    between atoms: O_20  and  C_21 
REMARK    7  A    between atoms: C_21  and  C_22 
ROOT
HETATM    1  C   UNK N   1      30.919  24.866  -4.332  0.00  0.00     0.035 A 
HETATM    2  N   UNK N   1      31.411  26.062  -4.801  0.00  0.00    -0.280 N 
HETATM    3  C   UNK N   1      32.703  26.150  -5.283  0.00  0.00     0.331 A 
HETATM    4  O   UNK N   1      33.149  27.215  -5.675  0.00  0.00    -0.246 OA
HETATM    5  N   UNK N   1      33.500  25.047  -5.313  0.00  0.00    -0.275 N 
HETATM    6  C   UNK N   1      33.051  23.833  -4.892  0.00  0.00     0.257 A 
HETATM    7  O   UNK N   1      33.806  22.880  -4.954  0.00  0.00    -0.267 OA
HETATM    8  C   UNK N   1      31.734  23.701  -4.389  0.00  0.00     0.037 A 
HETATM    9  H   UNK N   1      34.422  25.130  -5.647  0.00  0.00     0.173 HD
ENDROOT
BRANCH   2  10
HETATM   10  C   UNK N   1      30.588  27.266  -4.817  0.00  0.00     0.303 C 
BRANCH  10  11
HETATM   11  O   UNK N   1      29.800  27.253  -5.978  0.00  0.00    -0.367 OA
BRANCH  11  12
HETATM   12  C   UNK N   1      28.934  28.342  -5.866  0.00  0.00     0.208 C 
BRANCH  12  13
HETATM   13  C   UNK N   1      27.507  27.904  -5.796  0.00  0.00    -0.035 A 
HETATM   14  C   UNK N   1      26.780  28.144  -4.628  0.00  0.00     0.009 A 
HETATM   15  C   UNK N   1      25.438  27.761  -4.547  0.00  0.00     0.001 A 
HETATM   16  C   UNK N   1      24.821  27.138  -5.635  0.00  0.00     0.000 A 
HETATM   17  C   UNK N   1      25.545  26.893  -6.805  0.00  0.00     0.001 A 
HETATM   18  C   UNK N   1      26.885  27.276  -6.887  0.00  0.00     0.009 A 
ENDBRANCH  12  13
ENDBRANCH  11  12
ENDBRANCH  10  11
ENDBRANCH   2  10
BRANCH   1  19
HETATM   19  C   UNK N   1      29.562  24.764  -3.634  0.00  0.00     0.096 C 
BRANCH  19  20
HETATM   20  C   UNK N   1      28.278  24.482  -4.364  0.00  0.00    -0.053 A 
HETATM   21  C   UNK N   1      28.316  24.007  -5.682  0.00  0.00     0.007 A 
HETATM   22  C   UNK N   1      27.140  23.576  -6.312  0.00  0.00     0.001 A 
HETATM   23  C   UNK N   1      25.926  23.596  -5.619  0.00  0.00     0.000 A 
HETATM   24  C   UNK N   1      25.888  24.036  -4.295  0.00  0.00     0.001 A 
HETATM   25  C   UNK N   1      27.064  24.454  -3.667  0.00  0.00     0.007 A 
ENDBRANCH  19  20
ENDBRANCH   1  19
BRANCH   8  26
HETATM   26  C   UNK N   1      31.163  22.367  -3.903  0.00  0.00     0.018 C 
HETATM   27  C   UNK N   1      31.976  21.594  -2.875  0.00  0.00     0.015 C 
HETATM   28  C   UNK N   1      30.913  21.448  -5.087  0.00  0.00     0.015 C 
ENDBRANCH   8  26
TORSDOF 7
ENDMDL
MODEL 6
REMARK VINA RESULT:      -5.8      2.028      3.805
REMARK  7 active torsions:
REMARK  status: ('A' for Active; 'I' for Inactive)
REMARK    1  A    between atoms: C_1  and  C_15 
REMARK    2  A    between atoms: C_7  and  C_15 
REMARK    3  A    between atoms: N_8  and  C_19 
REMARK    4  A    between atoms: C_14  and  C_16 
REMARK    5  A    between atoms: C_19  and  O_20 
REMARK    6  A    between atoms: O_20  and  C_21 
REMARK    7  A    between atoms: C_21  and  C_22 
ROOT
HETATM    1  C   UNK N   1      29.452  23.575  -4.978  0.00  0.00     0.035 A 
HETATM    2  N   UNK N   1      28.298  23.903  -4.304  0.00  0.00    -0.280 N 
HETATM    3  C   UNK N   1      28.180  23.659  -2.950  0.00  0.00     0.331 A 
HETATM    4  O   UNK N   1      27.148  23.925  -2.357  0.00  0.00    -0.246 OA
HETATM    5  N   UNK N   1      29.214  23.103  -2.262  0.00  0.00    -0.275 N 
HETATM    6  C   UNK N   1      30.389  22.791  -2.872  0.00  0.00     0.257 A 
HETATM    7  O   UNK N   1      31.283  22.307  -2.202  0.00  0.00    -0.267 OA
HETATM    8  C   UNK N   1      30.550  23.024  -4.260  0.00  0.00     0.037 A 
HETATM    9  H   UNK N   1      29.110  22.923  -1.299  0.00  0.00     0.173 HD
ENDROOT
BRANCH   2  10
HETATM   10  C   UNK N   1      27.171  24.526  -4.990  0.00  0.00     0.303 C 
BRANCH  10  11
HETATM   11  O   UNK N   1      26.313  23.516  -5.448  0.00  0.00    -0.367 OA
BRANCH  11  12
HETATM   12  C   UNK N   1      25.711  24.017  -6.603  0.00  0.00     0.208 C 
BRANCH  12  13
HETATM   13  C   UNK N   1      25.768  23.031  -7.724  0.00  0.00    -0.035 A 
HETATM   14  C   UNK N   1      26.199  23.458  -8.983  0.00  0.00     0.009 A 
HETATM   15  C   UNK N   1      26.279  22.550 -10.041  0.00  0.00     0.001 A 
HETATM   16  C   UNK N   1      25.928  21.211  -9.844  0.00  0.00     0.000 A 
HETATM   17  C   UNK N   1      25.494  20.779  -8.587  0.00  0.00     0.001 A 
HETATM   18  C   UNK N   1      25.414  21.686  -7.529  0.00  0.00     0.009 A 
ENDBRANCH  12  13
ENDBRANCH  11  12
ENDBRANCH  10  11
ENDBRANCH   2  10
BRANCH   1  19
HETATM   19  C   UNK N   1      29.558  23.669  -6.500  0.00  0.00     0.096 C 
BRANCH  19  20
HETATM   20  C   UNK N   1      29.370  22.491  -7.414  0.00  0.00    -0.053 A 
HETATM   21  C   UNK N   1      29.805  22.564  -8.744  0.00  0.00     0.007 A 
HETATM   22  C   UNK N   1      29.794  21.420  -9.555  0.00  0.00     0.001 A 
HETATM   23  C   UNK N   1      29.371  20.194  -9.033  0.00  0.00     0.000 A 
HETATM   24  C   UNK N   1      28.970  20.108  -7.698  0.00  0.00     0.001 A 
HETATM   25  C   UNK N   1      28.992  21.248  -6.890  0.00  0.00     0.007 A 
ENDBRANCH  19  20
ENDBRANCH   1  19
BRANCH   8  26
HETATM   26  C   UNK N   1      31.843  22.701  -5.009  0.00  0.00     0.018 C 
HETATM   27  C   UNK N   1      32.482  21.344  -4.747  0.00  0.00     0.015 C 
HETATM   28  C   UNK N   1      32.887  23.769  -4.728  0.00  0.00     0.015 C 
ENDBRANCH   8  26
TORSDOF 7
ENDMDL
MODEL 7
REMARK VINA RESULT:      -5.8      2.342      5.712
REMARK  7 active torsions:
REMARK  status: ('A' for Active; 'I' for Inactive)
REMARK    1  A    between atoms: C_1  and  C_15 
REMARK    2  A    between atoms: C_7  and  C_15 
REMARK    3  A    between atoms: N_8  and  C_19 
REMARK    4  A    between atoms: C_14  and  C_16 
REMARK    5  A    between atoms: C_19  and  O_20 
REMARK    6  A    between atoms: O_20  and  C_21 
REMARK    7  A    between atoms: C_21  and  C_22 
ROOT
HETATM    1  C   UNK N   1      27.984  23.367  -6.415  0.00  0.00     0.035 A 
HETATM    2  N   UNK N   1      27.678  23.918  -5.192  0.00  0.00    -0.280 N 
HETATM    3  C   UNK N   1      26.366  24.006  -4.769  0.00  0.00     0.331 A 
HETATM    4  O   UNK N   1      26.092  24.517  -3.696  0.00  0.00    -0.246 OA
HETATM    5  N   UNK N   1      25.360  23.533  -5.553  0.00  0.00    -0.275 N 
HETATM    6  C   UNK N   1      25.610  22.949  -6.757  0.00  0.00     0.257 A 
HETATM    7  O   UNK N   1      24.670  22.534  -7.409  0.00  0.00    -0.267 OA
HETATM    8  C   UNK N   1      26.941  22.841  -7.228  0.00  0.00     0.037 A 
HETATM    9  H   UNK N   1      24.429  23.616  -5.243  0.00  0.00     0.173 HD
ENDROOT
BRANCH   2  10
HETATM   10  C   UNK N   1      28.722  24.413  -4.302  0.00  0.00     0.303 C 
BRANCH  10  11
HETATM   11  O   UNK N   1      29.207  23.339  -3.542  0.00  0.00    -0.367 OA
BRANCH  11  12
HETATM   12  C   UNK N   1      30.386  23.790  -2.947  0.00  0.00     0.208 C 
BRANCH  12  13
HETATM   13  C   UNK N   1      31.581  23.066  -3.476  0.00  0.00    -0.035 A 
HETATM   14  C   UNK N   1      31.904  21.813  -2.949  0.00  0.00     0.009 A 
HETATM   15  C   UNK N   1      33.005  21.108  -3.441  0.00  0.00     0.001 A 
HETATM   16  C   UNK N   1      33.786  21.655  -4.464  0.00  0.00     0.000 A 
HETATM   17  C   UNK N   1      33.469  22.909  -4.993  0.00  0.00     0.001 A 
HETATM   18  C   UNK N   1      32.369  23.613  -4.501  0.00  0.00     0.009 A 
ENDBRANCH  12  13
ENDBRANCH  11  12
ENDBRANCH  10  11
ENDBRANCH   2  10
BRANCH   1  19
HETATM   19  C   UNK N   1      29.399  23.408  -6.993  0.00  0.00     0.096 C 
BRANCH  19  20
HETATM   20  C   UNK N   1      30.341  22.237  -6.952  0.00  0.00    -0.053 A 
HETATM   21  C   UNK N   1      30.044  21.132  -6.143  0.00  0.00     0.007 A 
HETATM   22  C   UNK N   1      30.818  19.966  -6.227  0.00  0.00     0.001 A 
HETATM   23  C   UNK N   1      31.877  19.892  -7.136  0.00  0.00     0.000 A 
HETATM   24  C   UNK N   1      32.156  20.977  -7.969  0.00  0.00     0.001 A 
HETATM   25  C   UNK N   1      31.375  22.133  -7.890  0.00  0.00     0.007 A 
ENDBRANCH  19  20
ENDBRANCH   1  19
BRANCH   8  26
HETATM   26  C   UNK N   1      27.295  22.194  -8.568  0.00  0.00     0.018 C 
HETATM   27  C   UNK N   1      26.488  22.623  -9.785  0.00  0.00     0.015 C 
HETATM   28  C   UNK N   1      27.199  20.682  -8.455  0.00  0.00     0.015 C 
ENDBRANCH   8  26
TORSDOF 7
ENDMDL
MODEL 8
REMARK VINA RESULT:      -5.7     11.231     13.302
REMARK  7 active torsions:
REMARK  status: ('A' for Active; 'I' for Inactive)
REMARK    1  A    between atoms: C_1  and  C_15 
REMARK    2  A    between atoms: C_7  and  C_15 
REMARK    3  A    between atoms: N_8  and  C_19 
REMARK    4  A    between atoms: C_14  and  C_16 
REMARK    5  A    between atoms: C_19  and  O_20 
REMARK    6  A    between atoms: O_20  and  C_21 
REMARK    7  A    between atoms: C_21  and  C_22 
ROOT
HETATM    1  C   UNK N   1      30.869  16.921   5.318  0.00  0.00     0.035 A 
HETATM    2  N   UNK N   1      31.038  16.779   3.960  0.00  0.00    -0.280 N 
HETATM    3  C   UNK N   1      32.289  16.914   3.389  0.00  0.00     0.331 A 
HETATM    4  O   UNK N   1      32.436  16.814   2.183  0.00  0.00    -0.246 OA
HETATM    5  N   UNK N   1      33.373  17.174   4.169  0.00  0.00    -0.275 N 
HETATM    6  C   UNK N   1      33.266  17.291   5.521  0.00  0.00     0.257 A 
HETATM    7  O   UNK N   1      34.273  17.512   6.168  0.00  0.00    -0.267 OA
HETATM    8  C   UNK N   1      32.001  17.161   6.144  0.00  0.00     0.037 A 
HETATM    9  H   UNK N   1      34.256  17.281   3.746  0.00  0.00     0.173 HD
ENDROOT
BRANCH   2  10
HETATM   10  C   UNK N   1      29.913  16.472   3.084  0.00  0.00     0.303 C 
BRANCH  10  11
HETATM   11  O   UNK N   1      29.538  15.136   3.290  0.00  0.00    -0.367 OA
BRANCH  11  12
HETATM   12  C   UNK N   1      28.290  14.990   2.684  0.00  0.00     0.208 C 
BRANCH  12  13
HETATM   13  C   UNK N   1      27.193  15.518   3.552  0.00  0.00    -0.035 A 
HETATM   14  C   UNK N   1      27.015  14.975   4.827  0.00  0.00     0.009 A 
HETATM   15  C   UNK N   1      26.009  15.467   5.663  0.00  0.00     0.001 A 
HETATM   16  C   UNK N   1      25.179  16.503   5.226  0.00  0.00     0.000 A 
HETATM   17  C   UNK N   1      25.352  17.048   3.950  0.00  0.00     0.001 A 
HETATM   18  C   UNK N   1      26.357  16.558   3.115  0.00  0.00     0.009 A 
ENDBRANCH  12  13
ENDBRANCH  11  12
ENDBRANCH  10  11
ENDBRANCH   2  10
BRANCH   1  19
HETATM   19  C   UNK N   1      29.483  16.951   5.964  0.00  0.00     0.096 C 
BRANCH  19  20
HETATM   20  C   UNK N   1      28.620  18.180   6.008  0.00  0.00    -0.053 A 
HETATM   21  C   UNK N   1      28.218  18.707   7.242  0.00  0.00     0.007 A 
HETATM   22  C   UNK N   1      27.562  19.945   7.303  0.00  0.00     0.001 A 
HETATM   23  C   UNK N   1      27.327  20.672   6.132  0.00  0.00     0.000 A 
HETATM   24  C   UNK N   1      27.756  20.168   4.903  0.00  0.00     0.001 A 
HETATM   25  C   UNK N   1      28.419  18.939   4.848  0.00  0.00     0.007 A 
ENDBRANCH  19  20
ENDBRANCH   1  19
BRANCH   8  26
HETATM   26  C   UNK N   1      31.809  17.277   7.658  0.00  0.00     0.018 C 
HETATM   27  C   UNK N   1      32.594  18.362   8.380  0.00  0.00     0.015 C 
HETATM   28  C   UNK N   1      32.128  15.949   8.324  0.00  0.00     0.015 C 
ENDBRANCH   8  26
TORSDOF 7
ENDMDL
MODEL 9
REMARK VINA RESULT:      -5.7     11.803     13.619
REMARK  7 active torsions:
REMARK  status: ('A' for Active; 'I' for Inactive)
REMARK    1  A    between atoms: C_1  and  C_15 
REMARK    2  A    between atoms: C_7  and  C_15 
REMARK    3  A    between atoms: N_8  and  C_19 
REMARK    4  A    between atoms: C_14  and  C_16 
REMARK    5  A    between atoms: C_19  and  O_20 
REMARK    6  A    between atoms: O_20  and  C_21 
REMARK    7  A    between atoms: C_21  and  C_22 
ROOT
HETATM    1  C   UNK N   1      23.745  18.538   4.245  0.00  0.00     0.035 A 
HETATM    2  N   UNK N   1      22.791  19.346   3.670  0.00  0.00    -0.280 N 
HETATM    3  C   UNK N   1      23.157  20.489   2.986  0.00  0.00     0.331 A 
HETATM    4  O   UNK N   1      22.312  21.219   2.498  0.00  0.00    -0.246 OA
HETATM    5  N   UNK N   1      24.471  20.821   2.861  0.00  0.00    -0.275 N 
HETATM    6  C   UNK N   1      25.456  20.039   3.381  0.00  0.00     0.257 A 
HETATM    7  O   UNK N   1      26.614  20.380   3.226  0.00  0.00    -0.267 OA
HETATM    8  C   UNK N   1      25.122  18.859   4.091  0.00  0.00     0.037 A 
HETATM    9  H   UNK N   1      24.716  21.646   2.382  0.00  0.00     0.173 HD
ENDROOT
BRANCH   2  10
HETATM   10  C   UNK N   1      21.372  19.020   3.752  0.00  0.00     0.303 C 
BRANCH  10  11
HETATM   11  O   UNK N   1      21.050  18.155   2.696  0.00  0.00    -0.367 OA
BRANCH  11  12
HETATM   12  C   UNK N   1      19.979  17.382   3.145  0.00  0.00     0.208 C 
BRANCH  12  13
HETATM   13  C   UNK N   1      20.044  15.989   2.609  0.00  0.00    -0.035 A 
HETATM   14  C   UNK N   1      19.607  14.931   3.411  0.00  0.00     0.009 A 
HETATM   15  C   UNK N   1      19.639  13.622   2.923  0.00  0.00     0.001 A 
HETATM   16  C   UNK N   1      20.109  13.368   1.631  0.00  0.00     0.000 A 
HETATM   17  C   UNK N   1      20.550  14.421   0.826  0.00  0.00     0.001 A 
HETATM   18  C   UNK N   1      20.517  15.729   1.312  0.00  0.00     0.009 A 
ENDBRANCH  12  13
ENDBRANCH  11  12
ENDBRANCH  10  11
ENDBRANCH   2  10
BRANCH   1  19
HETATM   19  C   UNK N   1      23.374  17.364   5.153  0.00  0.00     0.096 C 
BRANCH  19  20
HETATM   20  C   UNK N   1      23.170  15.963   4.648  0.00  0.00    -0.053 A 
HETATM   21  C   UNK N   1      23.617  15.613   3.368  0.00  0.00     0.007 A 
HETATM   22  C   UNK N   1      23.591  14.274   2.952  0.00  0.00     0.001 A 
HETATM   23  C   UNK N   1      23.140  13.278   3.824  0.00  0.00     0.000 A 
HETATM   24  C   UNK N   1      22.727  13.617   5.113  0.00  0.00     0.001 A 
HETATM   25  C   UNK N   1      22.765  14.952   5.527  0.00  0.00     0.007 A 
ENDBRANCH  19  20
ENDBRANCH   1  19
BRANCH   8  26
HETATM   26  C   UNK N   1      26.176  17.933   4.699  0.00  0.00     0.018 C 
HETATM   27  C   UNK N   1      27.216  18.564   5.614  0.00  0.00     0.015 C 
HETATM   28  C   UNK N   1      26.915  17.193   3.596  0.00  0.00     0.015 C 
ENDBRANCH   8  26
TORSDOF 7
ENDMDL
