MODEL 1
REMARK VINA RESULT:      -7.0      0.000      0.000
REMARK  10 active torsions:
REMARK  status: ('A' for Active; 'I' for Inactive)
REMARK    1  A    between atoms: C_2  and  O_3 
REMARK    2  A    between atoms: C_2  and  C_4 
REMARK    3  A    between atoms: C_4  and  C_5 
REMARK    4  A    between atoms: C_5  and  C_6 
REMARK    5  A    between atoms: C_6  and  C_7 
REMARK    6  A    between atoms: C_7  and  N_8 
REMARK    7  A    between atoms: N_8  and  C_10 
REMARK    8  A    between atoms: C_15  and  C_16 
REMARK    9  A    between atoms: C_17  and  C_18 
REMARK   10  A    between atoms: C_22  and  N_24 
ROOT
HETATM    1  C   UNK N   1      31.614  17.224   7.201  0.00  0.00     0.029 A 
HETATM    2  C   UNK N   1      30.678  17.729   8.117  0.00  0.00     0.030 A 
HETATM    3  C   UNK N   1      29.388  18.075   7.678  0.00  0.00     0.013 A 
HETATM    4  C   UNK N   1      31.235  17.075   5.855  0.00  0.00     0.030 A 
HETATM    5  C   UNK N   1      29.968  17.415   5.424  0.00  0.00     0.013 A 
HETATM    6  C   UNK N   1      29.034  17.917   6.328  0.00  0.00    -0.036 A 
ENDROOT
BRANCH   6   7
HETATM    7  C   UNK N   1      27.688  18.277   5.862  0.00  0.00     0.012 C 
HETATM    8  C   UNK N   1      27.503  18.896   4.687  0.00  0.00     0.012 C 
BRANCH   8   9
HETATM    9  C   UNK N   1      26.173  19.267   4.196  0.00  0.00    -0.036 A 
HETATM   10  C   UNK N   1      26.013  20.306   3.271  0.00  0.00     0.014 A 
HETATM   11  C   UNK N   1      24.742  20.648   2.812  0.00  0.00     0.037 A 
HETATM   12  C   UNK N   1      23.613  19.956   3.274  0.00  0.00     0.102 A 
HETATM   13  C   UNK N   1      23.775  18.915   4.202  0.00  0.00     0.037 A 
HETATM   14  C   UNK N   1      25.051  18.573   4.661  0.00  0.00     0.014 A 
BRANCH  12  15
HETATM   15  N   UNK N   1      22.318  20.307   2.805  0.00  0.00    -0.116 N 
HETATM   16  O   UNK N   1      22.166  20.692   1.684  0.00  0.00    -0.532 OA
HETATM   17  O   UNK N   1      21.275  20.211   3.603  0.00  0.00    -0.532 OA
ENDBRANCH  12  15
ENDBRANCH   8   9
ENDBRANCH   6   7
BRANCH   1  18
HETATM   18  N   UNK N   1      32.938  16.854   7.583  0.00  0.00    -0.385 N 
HETATM   19  C   UNK N   1      34.080  17.693   7.298  0.00  0.00     0.149 C 
BRANCH  18  20
HETATM   20  C   UNK N   1      33.072  15.592   8.273  0.00  0.00     0.122 C 
BRANCH  20  21
HETATM   21  C   UNK N   1      34.021  14.532   7.790  0.00  0.00     0.020 C 
BRANCH  21  22
HETATM   22  C   UNK N   1      35.011  14.638   8.926  0.00  0.00     0.012 C 
BRANCH  22  23
HETATM   23  C   UNK N   1      34.607  15.365  10.182  0.00  0.00     0.110 C 
BRANCH  23  24
HETATM   24  C   UNK N   1      35.723  16.310  10.548  0.00  0.00     0.139 C 
HETATM   25  O   UNK N   1      35.530  17.513  10.514  0.00  0.00    -0.650 OA
BRANCH  24  26
HETATM   26  O   UNK N   1      36.939  15.845  10.915  0.00  0.00    -0.776 OA
HETATM   27  H   UNK N   1      37.008  15.057  11.415  0.00  0.00     0.167 HD
ENDBRANCH  24  26
ENDBRANCH  23  24
ENDBRANCH  22  23
ENDBRANCH  21  22
ENDBRANCH  20  21
ENDBRANCH  18  20
ENDBRANCH   1  18
TORSDOF 10
ENDMDL
MODEL 2
REMARK VINA RESULT:      -6.9      2.242     11.395
REMARK  10 active torsions:
REMARK  status: ('A' for Active; 'I' for Inactive)
REMARK    1  A    between atoms: C_2  and  O_3 
REMARK    2  A    between atoms: C_2  and  C_4 
REMARK    3  A    between atoms: C_4  and  C_5 
REMARK    4  A    between atoms: C_5  and  C_6 
REMARK    5  A    between atoms: C_6  and  C_7 
REMARK    6  A    between atoms: C_7  and  N_8 
REMARK    7  A    between atoms: N_8  and  C_10 
REMARK    8  A    between atoms: C_15  and  C_16 
REMARK    9  A    between atoms: C_17  and  C_18 
REMARK   10  A    between atoms: C_22  and  N_24 
ROOT
HETATM    1  C   UNK N   1      24.721  16.904   4.440  0.00  0.00     0.029 A 
HETATM    2  C   UNK N   1      25.223  16.094   5.472  0.00  0.00     0.030 A 
HETATM    3  C   UNK N   1      26.461  16.403   6.061  0.00  0.00     0.013 A 
HETATM    4  C   UNK N   1      25.476  18.013   4.018  0.00  0.00     0.030 A 
HETATM    5  C   UNK N   1      26.693  18.315   4.598  0.00  0.00     0.013 A 
HETATM    6  C   UNK N   1      27.196  17.516   5.622  0.00  0.00    -0.036 A 
ENDROOT
BRANCH   6   7
HETATM    7  C   UNK N   1      28.491  17.844   6.233  0.00  0.00     0.012 C 
HETATM    8  C   UNK N   1      29.528  16.997   6.157  0.00  0.00     0.012 C 
BRANCH   8   9
HETATM    9  C   UNK N   1      30.832  17.297   6.757  0.00  0.00    -0.036 A 
HETATM   10  C   UNK N   1      30.938  17.633   8.113  0.00  0.00     0.014 A 
HETATM   11  C   UNK N   1      32.184  17.916   8.669  0.00  0.00     0.037 A 
HETATM   12  C   UNK N   1      33.341  17.865   7.878  0.00  0.00     0.102 A 
HETATM   13  C   UNK N   1      33.232  17.528   6.520  0.00  0.00     0.037 A 
HETATM   14  C   UNK N   1      31.981  17.245   5.963  0.00  0.00     0.014 A 
BRANCH  12  15
HETATM   15  N   UNK N   1      34.611  18.154   8.450  0.00  0.00    -0.116 N 
HETATM   16  O   UNK N   1      35.282  19.038   8.010  0.00  0.00    -0.532 OA
HETATM   17  O   UNK N   1      35.055  17.447   9.468  0.00  0.00    -0.532 OA
ENDBRANCH  12  15
ENDBRANCH   8   9
ENDBRANCH   6   7
BRANCH   1  18
HETATM   18  N   UNK N   1      23.471  16.645   3.801  0.00  0.00    -0.385 N 
HETATM   19  C   UNK N   1      23.225  15.424   3.068  0.00  0.00     0.149 C 
BRANCH  18  20
HETATM   20  C   UNK N   1      22.465  17.674   3.930  0.00  0.00     0.122 C 
BRANCH  20  21
HETATM   21  C   UNK N   1      21.360  17.821   2.923  0.00  0.00     0.020 C 
BRANCH  21  22
HETATM   22  C   UNK N   1      20.829  19.142   3.423  0.00  0.00     0.012 C 
BRANCH  22  23
HETATM   23  C   UNK N   1      20.051  20.022   2.480  0.00  0.00     0.110 C 
BRANCH  23  24
HETATM   24  C   UNK N   1      20.970  20.418   1.352  0.00  0.00     0.139 C 
HETATM   25  O   UNK N   1      22.091  20.823   1.602  0.00  0.00    -0.650 OA
BRANCH  24  26
HETATM   26  O   UNK N   1      20.570  20.330   0.063  0.00  0.00    -0.776 OA
HETATM   27  H   UNK N   1      20.976  20.864  -0.591  0.00  0.00     0.167 HD
ENDBRANCH  24  26
ENDBRANCH  23  24
ENDBRANCH  22  23
ENDBRANCH  21  22
ENDBRANCH  20  21
ENDBRANCH  18  20
ENDBRANCH   1  18
TORSDOF 10
ENDMDL
MODEL 3
REMARK VINA RESULT:      -6.9      2.785     11.563
REMARK  10 active torsions:
REMARK  status: ('A' for Active; 'I' for Inactive)
REMARK    1  A    between atoms: C_2  and  O_3 
REMARK    2  A    between atoms: C_2  and  C_4 
REMARK    3  A    between atoms: C_4  and  C_5 
REMARK    4  A    between atoms: C_5  and  C_6 
REMARK    5  A    between atoms: C_6  and  C_7 
REMARK    6  A    between atoms: C_7  and  N_8 
REMARK    7  A    between atoms: N_8  and  C_10 
REMARK    8  A    between atoms: C_15  and  C_16 
REMARK    9  A    between atoms: C_17  and  C_18 
REMARK   10  A    between atoms: C_22  and  N_24 
ROOT
HETATM    1  C   UNK N   1      23.791  19.308   3.613  0.00  0.00     0.029 A 
HETATM    2  C   UNK N   1      24.681  20.332   3.249  0.00  0.00     0.030 A 
HETATM    3  C   UNK N   1      26.049  20.205   3.550  0.00  0.00     0.013 A 
HETATM    4  C   UNK N   1      24.293  18.173   4.274  0.00  0.00     0.030 A 
HETATM    5  C   UNK N   1      25.637  18.050   4.569  0.00  0.00     0.013 A 
HETATM    6  C   UNK N   1      26.526  19.062   4.211  0.00  0.00    -0.036 A 
ENDROOT
BRANCH   6   7
HETATM    7  C   UNK N   1      27.953  18.923   4.528  0.00  0.00     0.012 C 
HETATM    8  C   UNK N   1      28.462  17.753   4.939  0.00  0.00     0.012 C 
BRANCH   8   9
HETATM    9  C   UNK N   1      29.882  17.585   5.262  0.00  0.00    -0.036 A 
HETATM   10  C   UNK N   1      30.291  17.297   6.570  0.00  0.00     0.014 A 
HETATM   11  C   UNK N   1      31.645  17.140   6.863  0.00  0.00     0.037 A 
HETATM   12  C   UNK N   1      32.608  17.267   5.852  0.00  0.00     0.102 A 
HETATM   13  C   UNK N   1      32.196  17.555   4.541  0.00  0.00     0.037 A 
HETATM   14  C   UNK N   1      30.837  17.713   4.248  0.00  0.00     0.014 A 
BRANCH  12  15
HETATM   15  N   UNK N   1      33.988  17.106   6.154  0.00  0.00    -0.116 N 
HETATM   16  O   UNK N   1      34.624  16.245   5.625  0.00  0.00    -0.532 OA
HETATM   17  O   UNK N   1      34.575  17.907   7.019  0.00  0.00    -0.532 OA
ENDBRANCH  12  15
ENDBRANCH   8   9
ENDBRANCH   6   7
BRANCH   1  18
HETATM   18  N   UNK N   1      22.392  19.376   3.336  0.00  0.00    -0.385 N 
HETATM   19  C   UNK N   1      21.805  20.490   2.627  0.00  0.00     0.149 C 
BRANCH  18  20
HETATM   20  C   UNK N   1      21.597  18.266   3.807  0.00  0.00     0.122 C 
BRANCH  20  21
HETATM   21  C   UNK N   1      20.125  18.177   3.517  0.00  0.00     0.020 C 
BRANCH  21  22
HETATM   22  C   UNK N   1      20.111  16.736   3.068  0.00  0.00     0.012 C 
BRANCH  22  23
HETATM   23  C   UNK N   1      20.936  16.334   1.873  0.00  0.00     0.110 C 
BRANCH  23  24
HETATM   24  C   UNK N   1      20.104  16.568   0.638  0.00  0.00     0.139 C 
HETATM   25  O   UNK N   1      19.247  15.761   0.326  0.00  0.00    -0.650 OA
BRANCH  24  26
HETATM   26  O   UNK N   1      20.293  17.664  -0.133  0.00  0.00    -0.776 OA
HETATM   27  H   UNK N   1      20.200  17.604  -1.063  0.00  0.00     0.167 HD
ENDBRANCH  24  26
ENDBRANCH  23  24
ENDBRANCH  22  23
ENDBRANCH  21  22
ENDBRANCH  20  21
ENDBRANCH  18  20
ENDBRANCH   1  18
TORSDOF 10
ENDMDL
MODEL 4
REMARK VINA RESULT:      -6.8      1.613      2.210
REMARK  10 active torsions:
REMARK  status: ('A' for Active; 'I' for Inactive)
REMARK    1  A    between atoms: C_2  and  O_3 
REMARK    2  A    between atoms: C_2  and  C_4 
REMARK    3  A    between atoms: C_4  and  C_5 
REMARK    4  A    between atoms: C_5  and  C_6 
REMARK    5  A    between atoms: C_6  and  C_7 
REMARK    6  A    between atoms: C_7  and  N_8 
REMARK    7  A    between atoms: N_8  and  C_10 
REMARK    8  A    between atoms: C_15  and  C_16 
REMARK    9  A    between atoms: C_17  and  C_18 
REMARK   10  A    between atoms: C_22  and  N_24 
ROOT
HETATM    1  C   UNK N   1      30.804  16.570   5.820  0.00  0.00     0.029 A 
HETATM    2  C   UNK N   1      30.010  17.136   6.831  0.00  0.00     0.030 A 
HETATM    3  C   UNK N   1      28.827  17.816   6.490  0.00  0.00     0.013 A 
HETATM    4  C   UNK N   1      30.393  16.699   4.481  0.00  0.00     0.030 A 
HETATM    5  C   UNK N   1      29.231  17.367   4.147  0.00  0.00     0.013 A 
HETATM    6  C   UNK N   1      28.439  17.931   5.145  0.00  0.00    -0.036 A 
ENDROOT
BRANCH   6   7
HETATM    7  C   UNK N   1      27.205  18.640   4.783  0.00  0.00     0.012 C 
HETATM    8  C   UNK N   1      26.146  17.981   4.289  0.00  0.00     0.012 C 
BRANCH   8   9
HETATM    9  C   UNK N   1      24.901  18.661   3.919  0.00  0.00    -0.036 A 
HETATM   10  C   UNK N   1      23.657  18.069   4.170  0.00  0.00     0.014 A 
HETATM   11  C   UNK N   1      22.482  18.727   3.812  0.00  0.00     0.037 A 
HETATM   12  C   UNK N   1      22.534  19.987   3.198  0.00  0.00     0.102 A 
HETATM   13  C   UNK N   1      23.782  20.579   2.947  0.00  0.00     0.037 A 
HETATM   14  C   UNK N   1      24.961  19.917   3.306  0.00  0.00     0.014 A 
BRANCH  12  15
HETATM   15  N   UNK N   1      21.334  20.656   2.834  0.00  0.00    -0.116 N 
HETATM   16  O   UNK N   1      21.214  21.128   1.744  0.00  0.00    -0.532 OA
HETATM   17  O   UNK N   1      20.345  20.759   3.698  0.00  0.00    -0.532 OA
ENDBRANCH  12  15
ENDBRANCH   8   9
ENDBRANCH   6   7
BRANCH   1  18
HETATM   18  N   UNK N   1      32.014  15.868   6.100  0.00  0.00    -0.385 N 
HETATM   19  C   UNK N   1      33.087  15.777   5.135  0.00  0.00     0.149 C 
BRANCH  18  20
HETATM   20  C   UNK N   1      32.106  15.253   7.404  0.00  0.00     0.122 C 
BRANCH  20  21
HETATM   21  C   UNK N   1      32.318  16.073   8.644  0.00  0.00     0.020 C 
BRANCH  21  22
HETATM   22  C   UNK N   1      33.827  16.103   8.591  0.00  0.00     0.012 C 
BRANCH  22  23
HETATM   23  C   UNK N   1      34.562  17.219   9.287  0.00  0.00     0.110 C 
BRANCH  23  24
HETATM   24  C   UNK N   1      34.805  18.312   8.278  0.00  0.00     0.139 C 
HETATM   25  O   UNK N   1      35.306  19.363   8.636  0.00  0.00    -0.650 OA
BRANCH  24  26
HETATM   26  O   UNK N   1      34.476  18.146   6.976  0.00  0.00    -0.776 OA
HETATM   27  H   UNK N   1      34.521  17.295   6.586  0.00  0.00     0.167 HD
ENDBRANCH  24  26
ENDBRANCH  23  24
ENDBRANCH  22  23
ENDBRANCH  21  22
ENDBRANCH  20  21
ENDBRANCH  18  20
ENDBRANCH   1  18
TORSDOF 10
ENDMDL
MODEL 5
REMARK VINA RESULT:      -6.7      7.578     14.677
REMARK  10 active torsions:
REMARK  status: ('A' for Active; 'I' for Inactive)
REMARK    1  A    between atoms: C_2  and  O_3 
REMARK    2  A    between atoms: C_2  and  C_4 
REMARK    3  A    between atoms: C_4  and  C_5 
REMARK    4  A    between atoms: C_5  and  C_6 
REMARK    5  A    between atoms: C_6  and  C_7 
REMARK    6  A    between atoms: C_7  and  N_8 
REMARK    7  A    between atoms: N_8  and  C_10 
REMARK    8  A    between atoms: C_15  and  C_16 
REMARK    9  A    between atoms: C_17  and  C_18 
REMARK   10  A    between atoms: C_22  and  N_24 
ROOT
HETATM    1  C   UNK N   1      35.928  13.756  11.903  0.00  0.00     0.029 A 
HETATM    2  C   UNK N   1      35.100  12.645  12.133  0.00  0.00     0.030 A 
HETATM    3  C   UNK N   1      34.821  12.243  13.451  0.00  0.00     0.013 A 
HETATM    4  C   UNK N   1      36.461  14.445  13.007  0.00  0.00     0.030 A 
HETATM    5  C   UNK N   1      36.186  14.050  14.301  0.00  0.00     0.013 A 
HETATM    6  C   UNK N   1      35.366  12.949  14.536  0.00  0.00    -0.036 A 
ENDROOT
BRANCH   6   7
HETATM    7  C   UNK N   1      35.079  12.535  15.915  0.00  0.00     0.012 C 
HETATM    8  C   UNK N   1      35.375  11.299  16.345  0.00  0.00     0.012 C 
BRANCH   8   9
HETATM    9  C   UNK N   1      35.100  10.857  17.715  0.00  0.00    -0.036 A 
HETATM   10  C   UNK N   1      35.375  11.690  18.807  0.00  0.00     0.014 A 
HETATM   11  C   UNK N   1      35.108  11.256  20.105  0.00  0.00     0.037 A 
HETATM   12  C   UNK N   1      34.563   9.984  20.328  0.00  0.00     0.102 A 
HETATM   13  C   UNK N   1      34.288   9.150  19.232  0.00  0.00     0.037 A 
HETATM   14  C   UNK N   1      34.556   9.587  17.931  0.00  0.00     0.014 A 
BRANCH  12  15
HETATM   15  N   UNK N   1      34.292   9.544  21.653  0.00  0.00    -0.116 N 
HETATM   16  O   UNK N   1      34.904   8.634  22.123  0.00  0.00    -0.532 OA
HETATM   17  O   UNK N   1      33.362  10.140  22.371  0.00  0.00    -0.532 OA
ENDBRANCH  12  15
ENDBRANCH   8   9
ENDBRANCH   6   7
BRANCH   1  18
HETATM   18  N   UNK N   1      36.249  14.214  10.590  0.00  0.00    -0.385 N 
HETATM   19  C   UNK N   1      37.583  14.102  10.045  0.00  0.00     0.149 C 
BRANCH  18  20
HETATM   20  C   UNK N   1      35.163  14.797   9.836  0.00  0.00     0.122 C 
BRANCH  20  21
HETATM   21  C   UNK N   1      34.619  16.157  10.169  0.00  0.00     0.020 C 
BRANCH  21  22
HETATM   22  C   UNK N   1      33.674  16.270   8.997  0.00  0.00     0.012 C 
BRANCH  22  23
HETATM   23  C   UNK N   1      33.217  17.635   8.555  0.00  0.00     0.110 C 
BRANCH  23  24
HETATM   24  C   UNK N   1      34.364  18.294   7.831  0.00  0.00     0.139 C 
HETATM   25  O   UNK N   1      34.564  18.039   6.657  0.00  0.00    -0.650 OA
BRANCH  24  26
HETATM   26  O   UNK N   1      35.180  19.168   8.466  0.00  0.00    -0.776 OA
HETATM   27  H   UNK N   1      34.872  19.635   9.217  0.00  0.00     0.167 HD
ENDBRANCH  24  26
ENDBRANCH  23  24
ENDBRANCH  22  23
ENDBRANCH  21  22
ENDBRANCH  20  21
ENDBRANCH  18  20
ENDBRANCH   1  18
TORSDOF 10
ENDMDL
MODEL 6
REMARK VINA RESULT:      -6.7      2.870     11.273
REMARK  10 active torsions:
REMARK  status: ('A' for Active; 'I' for Inactive)
REMARK    1  A    between atoms: C_2  and  O_3 
REMARK    2  A    between atoms: C_2  and  C_4 
REMARK    3  A    between atoms: C_4  and  C_5 
REMARK    4  A    between atoms: C_5  and  C_6 
REMARK    5  A    between atoms: C_6  and  C_7 
REMARK    6  A    between atoms: C_7  and  N_8 
REMARK    7  A    between atoms: N_8  and  C_10 
REMARK    8  A    between atoms: C_15  and  C_16 
REMARK    9  A    between atoms: C_17  and  C_18 
REMARK   10  A    between atoms: C_22  and  N_24 
ROOT
HETATM    1  C   UNK N   1      23.486  16.218   5.418  0.00  0.00     0.029 A 
HETATM    2  C   UNK N   1      24.274  17.216   4.821  0.00  0.00     0.030 A 
HETATM    3  C   UNK N   1      25.648  17.287   5.112  0.00  0.00     0.013 A 
HETATM    4  C   UNK N   1      24.096  15.308   6.299  0.00  0.00     0.030 A 
HETATM    5  C   UNK N   1      25.446  15.378   6.584  0.00  0.00     0.013 A 
HETATM    6  C   UNK N   1      26.233  16.366   5.995  0.00  0.00    -0.036 A 
ENDROOT
BRANCH   6   7
HETATM    7  C   UNK N   1      27.667  16.435   6.303  0.00  0.00     0.012 C 
HETATM    8  C   UNK N   1      28.531  17.019   5.460  0.00  0.00     0.012 C 
BRANCH   8   9
HETATM    9  C   UNK N   1      29.967  17.103   5.740  0.00  0.00    -0.036 A 
HETATM   10  C   UNK N   1      30.451  16.987   7.049  0.00  0.00     0.014 A 
HETATM   11  C   UNK N   1      31.820  17.069   7.301  0.00  0.00     0.037 A 
HETATM   12  C   UNK N   1      32.723  17.267   6.246  0.00  0.00     0.102 A 
HETATM   13  C   UNK N   1      32.236  17.383   4.935  0.00  0.00     0.037 A 
HETATM   14  C   UNK N   1      30.862  17.301   4.684  0.00  0.00     0.014 A 
BRANCH  12  15
HETATM   15  N   UNK N   1      34.118  17.350   6.506  0.00  0.00    -0.116 N 
HETATM   16  O   UNK N   1      34.867  16.545   6.041  0.00  0.00    -0.532 OA
HETATM   17  O   UNK N   1      34.595  18.317   7.262  0.00  0.00    -0.532 OA
ENDBRANCH  12  15
ENDBRANCH   8   9
ENDBRANCH   6   7
BRANCH   1  18
HETATM   18  N   UNK N   1      22.088  16.093   5.164  0.00  0.00    -0.385 N 
HETATM   19  C   UNK N   1      21.411  14.817   5.218  0.00  0.00     0.149 C 
BRANCH  18  20
HETATM   20  C   UNK N   1      21.386  17.315   4.849  0.00  0.00     0.122 C 
BRANCH  20  21
HETATM   21  C   UNK N   1      20.363  17.371   3.750  0.00  0.00     0.020 C 
BRANCH  21  22
HETATM   22  C   UNK N   1      21.009  18.478   2.951  0.00  0.00     0.012 C 
BRANCH  22  23
HETATM   23  C   UNK N   1      20.150  19.601   2.430  0.00  0.00     0.110 C 
BRANCH  23  24
HETATM   24  C   UNK N   1      21.063  20.642   1.833  0.00  0.00     0.139 C 
HETATM   25  O   UNK N   1      21.286  20.632   0.635  0.00  0.00    -0.650 OA
BRANCH  24  26
HETATM   26  O   UNK N   1      21.640  21.590   2.606  0.00  0.00    -0.776 OA
HETATM   27  H   UNK N   1      21.432  22.493   2.474  0.00  0.00     0.167 HD
ENDBRANCH  24  26
ENDBRANCH  23  24
ENDBRANCH  22  23
ENDBRANCH  21  22
ENDBRANCH  20  21
ENDBRANCH  18  20
ENDBRANCH   1  18
TORSDOF 10
ENDMDL
MODEL 7
REMARK VINA RESULT:      -6.7      7.634     11.622
REMARK  10 active torsions:
REMARK  status: ('A' for Active; 'I' for Inactive)
REMARK    1  A    between atoms: C_2  and  O_3 
REMARK    2  A    between atoms: C_2  and  C_4 
REMARK    3  A    between atoms: C_4  and  C_5 
REMARK    4  A    between atoms: C_5  and  C_6 
REMARK    5  A    between atoms: C_6  and  C_7 
REMARK    6  A    between atoms: C_7  and  N_8 
REMARK    7  A    between atoms: N_8  and  C_10 
REMARK    8  A    between atoms: C_15  and  C_16 
REMARK    9  A    between atoms: C_17  and  C_18 
REMARK   10  A    between atoms: C_22  and  N_24 
ROOT
HETATM    1  C   UNK N   1      36.309  10.061  15.198  0.00  0.00     0.029 A 
HETATM    2  C   UNK N   1      35.033   9.956  14.620  0.00  0.00     0.030 A 
HETATM    3  C   UNK N   1      34.659  10.837  13.590  0.00  0.00     0.013 A 
HETATM    4  C   UNK N   1      37.188  11.053  14.728  0.00  0.00     0.030 A 
HETATM    5  C   UNK N   1      36.820  11.919  13.717  0.00  0.00     0.013 A 
HETATM    6  C   UNK N   1      35.555  11.820  13.139  0.00  0.00    -0.036 A 
ENDROOT
BRANCH   6   7
HETATM    7  C   UNK N   1      35.171  12.744  12.064  0.00  0.00     0.012 C 
HETATM    8  C   UNK N   1      35.212  14.072  12.243  0.00  0.00     0.012 C 
BRANCH   8   9
HETATM    9  C   UNK N   1      34.834  15.019  11.189  0.00  0.00    -0.036 A 
HETATM   10  C   UNK N   1      33.810  14.714  10.284  0.00  0.00     0.014 A 
HETATM   11  C   UNK N   1      33.462  15.623   9.287  0.00  0.00     0.037 A 
HETATM   12  C   UNK N   1      34.133  16.851   9.182  0.00  0.00     0.102 A 
HETATM   13  C   UNK N   1      35.159  17.154  10.090  0.00  0.00     0.037 A 
HETATM   14  C   UNK N   1      35.508  16.240  11.090  0.00  0.00     0.014 A 
BRANCH  12  15
HETATM   15  N   UNK N   1      33.776  17.776   8.164  0.00  0.00    -0.116 N 
HETATM   16  O   UNK N   1      32.703  18.300   8.175  0.00  0.00    -0.532 OA
HETATM   17  O   UNK N   1      34.626  18.062   7.200  0.00  0.00    -0.532 OA
ENDBRANCH  12  15
ENDBRANCH   8   9
ENDBRANCH   6   7
BRANCH   1  18
HETATM   18  N   UNK N   1      36.749   9.197  16.245  0.00  0.00    -0.385 N 
HETATM   19  C   UNK N   1      37.874   8.306  16.081  0.00  0.00     0.149 C 
BRANCH  18  20
HETATM   20  C   UNK N   1      36.004   9.266  17.481  0.00  0.00     0.122 C 
BRANCH  20  21
HETATM   21  C   UNK N   1      36.429  10.168  18.604  0.00  0.00     0.020 C 
BRANCH  21  22
HETATM   22  C   UNK N   1      35.193  11.034  18.626  0.00  0.00     0.012 C 
BRANCH  22  23
HETATM   23  C   UNK N   1      35.194  12.329  17.856  0.00  0.00     0.110 C 
BRANCH  23  24
HETATM   24  C   UNK N   1      35.203  13.460  18.854  0.00  0.00     0.139 C 
HETATM   25  O   UNK N   1      35.414  14.598  18.475  0.00  0.00    -0.650 OA
BRANCH  24  26
HETATM   26  O   UNK N   1      34.980  13.231  20.169  0.00  0.00    -0.776 OA
HETATM   27  H   UNK N   1      34.375  12.567  20.433  0.00  0.00     0.167 HD
ENDBRANCH  24  26
ENDBRANCH  23  24
ENDBRANCH  22  23
ENDBRANCH  21  22
ENDBRANCH  20  21
ENDBRANCH  18  20
ENDBRANCH   1  18
TORSDOF 10
ENDMDL
MODEL 8
REMARK VINA RESULT:      -6.6      3.013     11.251
REMARK  10 active torsions:
REMARK  status: ('A' for Active; 'I' for Inactive)
REMARK    1  A    between atoms: C_2  and  O_3 
REMARK    2  A    between atoms: C_2  and  C_4 
REMARK    3  A    between atoms: C_4  and  C_5 
REMARK    4  A    between atoms: C_5  and  C_6 
REMARK    5  A    between atoms: C_6  and  C_7 
REMARK    6  A    between atoms: C_7  and  N_8 
REMARK    7  A    between atoms: N_8  and  C_10 
REMARK    8  A    between atoms: C_15  and  C_16 
REMARK    9  A    between atoms: C_17  and  C_18 
REMARK   10  A    between atoms: C_22  and  N_24 
ROOT
HETATM    1  C   UNK N   1      23.645  19.398   3.651  0.00  0.00     0.029 A 
HETATM    2  C   UNK N   1      24.580  20.275   3.079  0.00  0.00     0.030 A 
HETATM    3  C   UNK N   1      25.950  20.108   3.349  0.00  0.00     0.013 A 
HETATM    4  C   UNK N   1      24.105  18.365   4.487  0.00  0.00     0.030 A 
HETATM    5  C   UNK N   1      25.451  18.201   4.752  0.00  0.00     0.013 A 
HETATM    6  C   UNK N   1      26.384  19.068   4.188  0.00  0.00    -0.036 A 
ENDROOT
BRANCH   6   7
HETATM    7  C   UNK N   1      27.813  18.887   4.474  0.00  0.00     0.012 C 
HETATM    8  C   UNK N   1      28.262  17.790   5.100  0.00  0.00     0.012 C 
BRANCH   8   9
HETATM    9  C   UNK N   1      29.682  17.581   5.399  0.00  0.00    -0.036 A 
HETATM   10  C   UNK N   1      30.108  17.306   6.705  0.00  0.00     0.014 A 
HETATM   11  C   UNK N   1      31.461  17.111   6.974  0.00  0.00     0.037 A 
HETATM   12  C   UNK N   1      32.408  17.187   5.942  0.00  0.00     0.102 A 
HETATM   13  C   UNK N   1      31.979  17.463   4.634  0.00  0.00     0.037 A 
HETATM   14  C   UNK N   1      30.620  17.659   4.365  0.00  0.00     0.014 A 
BRANCH  12  15
HETATM   15  N   UNK N   1      33.787  16.987   6.220  0.00  0.00    -0.116 N 
HETATM   16  O   UNK N   1      34.292  15.922   6.031  0.00  0.00    -0.532 OA
HETATM   17  O   UNK N   1      34.519  17.977   6.690  0.00  0.00    -0.532 OA
ENDBRANCH  12  15
ENDBRANCH   8   9
ENDBRANCH   6   7
BRANCH   1  18
HETATM   18  N   UNK N   1      22.242  19.515   3.417  0.00  0.00    -0.385 N 
HETATM   19  C   UNK N   1      21.698  20.482   2.491  0.00  0.00     0.149 C 
BRANCH  18  20
HETATM   20  C   UNK N   1      21.396  18.608   4.158  0.00  0.00     0.122 C 
BRANCH  20  21
HETATM   21  C   UNK N   1      20.181  17.982   3.534  0.00  0.00     0.020 C 
BRANCH  21  22
HETATM   22  C   UNK N   1      20.614  16.544   3.691  0.00  0.00     0.012 C 
BRANCH  22  23
HETATM   23  C   UNK N   1      19.585  15.507   4.061  0.00  0.00     0.110 C 
BRANCH  23  24
HETATM   24  C   UNK N   1      19.082  15.827   5.445  0.00  0.00     0.139 C 
HETATM   25  O   UNK N   1      17.883  15.885   5.653  0.00  0.00    -0.650 OA
BRANCH  24  26
HETATM   26  O   UNK N   1      19.942  16.053   6.465  0.00  0.00    -0.776 OA
HETATM   27  H   UNK N   1      19.621  16.350   7.293  0.00  0.00     0.167 HD
ENDBRANCH  24  26
ENDBRANCH  23  24
ENDBRANCH  22  23
ENDBRANCH  21  22
ENDBRANCH  20  21
ENDBRANCH  18  20
ENDBRANCH   1  18
TORSDOF 10
ENDMDL
MODEL 9
REMARK VINA RESULT:      -6.4      9.631     14.522
REMARK  10 active torsions:
REMARK  status: ('A' for Active; 'I' for Inactive)
REMARK    1  A    between atoms: C_2  and  O_3 
REMARK    2  A    between atoms: C_2  and  C_4 
REMARK    3  A    between atoms: C_4  and  C_5 
REMARK    4  A    between atoms: C_5  and  C_6 
REMARK    5  A    between atoms: C_6  and  C_7 
REMARK    6  A    between atoms: C_7  and  N_8 
REMARK    7  A    between atoms: N_8  and  C_10 
REMARK    8  A    between atoms: C_15  and  C_16 
REMARK    9  A    between atoms: C_17  and  C_18 
REMARK   10  A    between atoms: C_22  and  N_24 
ROOT
HETATM    1  C   UNK N   1      35.750  10.598  19.157  0.00  0.00     0.029 A 
HETATM    2  C   UNK N   1      36.065  10.099  17.883  0.00  0.00     0.030 A 
HETATM    3  C   UNK N   1      35.933  10.929  16.756  0.00  0.00     0.013 A 
HETATM    4  C   UNK N   1      35.307  11.927  19.276  0.00  0.00     0.030 A 
HETATM    5  C   UNK N   1      35.178  12.743  18.169  0.00  0.00     0.013 A 
HETATM    6  C   UNK N   1      35.489  12.254  16.902  0.00  0.00    -0.036 A 
ENDROOT
BRANCH   6   7
HETATM    7  C   UNK N   1      35.349  13.127  15.729  0.00  0.00     0.012 C 
HETATM    8  C   UNK N   1      35.717  12.712  14.508  0.00  0.00     0.012 C 
BRANCH   8   9
HETATM    9  C   UNK N   1      35.589  13.561  13.319  0.00  0.00    -0.036 A 
HETATM   10  C   UNK N   1      34.886  13.117  12.192  0.00  0.00     0.014 A 
HETATM   11  C   UNK N   1      34.773  13.934  11.069  0.00  0.00     0.037 A 
HETATM   12  C   UNK N   1      35.362  15.207  11.057  0.00  0.00     0.102 A 
HETATM   13  C   UNK N   1      36.066  15.650  12.188  0.00  0.00     0.037 A 
HETATM   14  C   UNK N   1      36.179  14.829  13.315  0.00  0.00     0.014 A 
BRANCH  12  15
HETATM   15  N   UNK N   1      35.245  16.039   9.910  0.00  0.00    -0.116 N 
HETATM   16  O   UNK N   1      35.017  15.561   8.840  0.00  0.00    -0.532 OA
HETATM   17  O   UNK N   1      35.388  17.343  10.020  0.00  0.00    -0.532 OA
ENDBRANCH  12  15
ENDBRANCH   8   9
ENDBRANCH   6   7
BRANCH   1  18
HETATM   18  N   UNK N   1      35.862   9.806  20.340  0.00  0.00    -0.385 N 
HETATM   19  C   UNK N   1      37.016   9.884  21.207  0.00  0.00     0.149 C 
BRANCH  18  20
HETATM   20  C   UNK N   1      34.755   8.921  20.620  0.00  0.00     0.122 C 
BRANCH  20  21
HETATM   21  C   UNK N   1      33.424   9.093  19.946  0.00  0.00     0.020 C 
BRANCH  21  22
HETATM   22  C   UNK N   1      32.606   9.296  21.199  0.00  0.00     0.012 C 
BRANCH  22  23
HETATM   23  C   UNK N   1      32.787  10.563  21.992  0.00  0.00     0.110 C 
BRANCH  23  24
HETATM   24  C   UNK N   1      32.687  10.212  23.455  0.00  0.00     0.139 C 
HETATM   25  O   UNK N   1      31.961   9.299  23.807  0.00  0.00    -0.650 OA
BRANCH  24  26
HETATM   26  O   UNK N   1      33.391  10.895  24.386  0.00  0.00    -0.776 OA
HETATM   27  H   UNK N   1      32.946  11.315  25.095  0.00  0.00     0.167 HD
ENDBRANCH  24  26
ENDBRANCH  23  24
ENDBRANCH  22  23
ENDBRANCH  21  22
ENDBRANCH  20  21
ENDBRANCH  18  20
ENDBRANCH   1  18
TORSDOF 10
ENDMDL
