REMARK  5 active torsions:
REMARK  status: ('A' for Active; 'I' for Inactive)
REMARK    1  A    between atoms: C_2  and  C_3 
REMARK    2  A    between atoms: C_2  and  C_6 
REMARK    3  A    between atoms: C_3  and  O_4 
REMARK    4  A    between atoms: C_7  and  C_8 
REMARK    5  A    between atoms: C_13  and  O_14 
ROOT
HETATM    1  C   UNK N   1       1.460  -2.255   0.001  0.00  0.00    -0.003 A 
HETATM    2  C   UNK N   1       1.533  -3.654  -0.002  0.00  0.00     0.014 A 
HETATM    3  C   UNK N   1       0.368  -4.427  -0.000  0.00  0.00     0.001 A 
HETATM    4  C   UNK N   1      -0.883  -3.808   0.004  0.00  0.00     0.003 A 
HETATM    5  C   UNK N   1      -0.973  -2.416   0.007  0.00  0.00     0.037 A 
HETATM    6  C   UNK N   1       0.184  -1.633   0.006  0.00  0.00     0.075 A 
ENDROOT
BRANCH   1   7
HETATM    7  C   UNK N   1       2.733  -1.495  -0.001  0.00  0.00     0.018 C 
HETATM    8  C   UNK N   1       2.758  -0.161  -0.002  0.00  0.00     0.063 C 
BRANCH   8   9
HETATM    9  C   UNK N   1       3.995   0.638  -0.002  0.00  0.00     0.244 C 
HETATM   10  O   UNK N   1       5.089   0.094  -0.000  0.00  0.00    -0.281 OA
BRANCH   9  11
HETATM   11  C   UNK N   1       3.897   2.110  -0.006  0.00  0.00     0.218 C 
HETATM   12  O   UNK N   1       2.803   2.653  -0.009  0.00  0.00    -0.644 OA
BRANCH  11  13
HETATM   13  O   UNK N   1       5.013   2.864  -0.006  0.00  0.00    -0.770 OA
HETATM   14  H   UNK N   1       5.855   2.454  -0.006  0.00  0.00     0.168 HD
ENDBRANCH  11  13
ENDBRANCH   9  11
ENDBRANCH   8   9
ENDBRANCH   1   7
BRANCH   6  15
HETATM   15  O   UNK N   1       0.056  -0.295   0.009  0.00  0.00    -0.360 OA
HETATM   16  H   UNK N   1       0.820   0.249   0.011  0.00  0.00     0.217 HD
ENDBRANCH   6  15
TORSDOF 5
