MODEL 1
REMARK VINA RESULT:      -5.8      0.000      0.000
REMARK  5 active torsions:
REMARK  status: ('A' for Active; 'I' for Inactive)
REMARK    1  A    between atoms: C_2  and  C_3 
REMARK    2  A    between atoms: C_2  and  C_6 
REMARK    3  A    between atoms: C_3  and  O_4 
REMARK    4  A    between atoms: C_7  and  C_8 
REMARK    5  A    between atoms: C_13  and  O_14 
ROOT
HETATM    1  C   UNK N   1      30.625  17.755   8.261  0.00  0.00    -0.003 A 
HETATM    2  C   UNK N   1      30.342  17.280   6.973  0.00  0.00     0.014 A 
HETATM    3  C   UNK N   1      29.046  17.357   6.455  0.00  0.00     0.001 A 
HETATM    4  C   UNK N   1      28.018  17.911   7.220  0.00  0.00     0.003 A 
HETATM    5  C   UNK N   1      28.283  18.388   8.504  0.00  0.00     0.037 A 
HETATM    6  C   UNK N   1      29.574  18.316   9.033  0.00  0.00     0.075 A 
ENDROOT
BRANCH   1   7
HETATM    7  C   UNK N   1      32.020  17.643   8.749  0.00  0.00     0.018 C 
HETATM    8  C   UNK N   1      33.043  18.193   8.093  0.00  0.00     0.063 C 
BRANCH   8   9
HETATM    9  C   UNK N   1      34.445  18.112   8.539  0.00  0.00     0.244 C 
HETATM   10  O   UNK N   1      35.251  18.974   8.224  0.00  0.00    -0.281 OA
BRANCH   9  11
HETATM   11  C   UNK N   1      34.865  16.971   9.375  0.00  0.00     0.218 C 
HETATM   12  O   UNK N   1      35.107  15.890   8.863  0.00  0.00    -0.644 OA
BRANCH  11  13
HETATM   13  O   UNK N   1      34.985  17.116  10.709  0.00  0.00    -0.770 OA
HETATM   14  H   UNK N   1      34.426  16.633  11.284  0.00  0.00     0.168 HD
ENDBRANCH  11  13
ENDBRANCH   9  11
ENDBRANCH   8   9
ENDBRANCH   1   7
BRANCH   6  15
HETATM   15  O   UNK N   1      29.789  18.786  10.273  0.00  0.00    -0.360 OA
HETATM   16  H   UNK N   1      30.157  18.226  10.929  0.00  0.00     0.217 HD
ENDBRANCH   6  15
TORSDOF 5
ENDMDL
MODEL 2
REMARK VINA RESULT:      -5.8     10.717     12.359
REMARK  5 active torsions:
REMARK  status: ('A' for Active; 'I' for Inactive)
REMARK    1  A    between atoms: C_2  and  C_3 
REMARK    2  A    between atoms: C_2  and  C_6 
REMARK    3  A    between atoms: C_3  and  O_4 
REMARK    4  A    between atoms: C_7  and  C_8 
REMARK    5  A    between atoms: C_13  and  O_14 
ROOT
HETATM    1  C   UNK N   1      21.694  13.539   9.476  0.00  0.00    -0.003 A 
HETATM    2  C   UNK N   1      23.056  13.521   9.149  0.00  0.00     0.014 A 
HETATM    3  C   UNK N   1      23.950  12.719   9.865  0.00  0.00     0.001 A 
HETATM    4  C   UNK N   1      23.489  11.925  10.916  0.00  0.00     0.003 A 
HETATM    5  C   UNK N   1      22.136  11.931  11.255  0.00  0.00     0.037 A 
HETATM    6  C   UNK N   1      21.234  12.729  10.547  0.00  0.00     0.075 A 
ENDROOT
BRANCH   1   7
HETATM    7  C   UNK N   1      20.801  14.412   8.677  0.00  0.00     0.018 C 
HETATM    8  C   UNK N   1      20.588  15.688   9.001  0.00  0.00     0.063 C 
BRANCH   8   9
HETATM    9  C   UNK N   1      19.713  16.595   8.239  0.00  0.00     0.244 C 
HETATM   10  O   UNK N   1      19.041  16.177   7.308  0.00  0.00    -0.281 OA
BRANCH   9  11
HETATM   11  C   UNK N   1      19.655  18.020   8.617  0.00  0.00     0.218 C 
HETATM   12  O   UNK N   1      20.412  18.825   8.097  0.00  0.00    -0.644 OA
BRANCH  11  13
HETATM   13  O   UNK N   1      18.766  18.442   9.537  0.00  0.00    -0.770 OA
HETATM   14  H   UNK N   1      18.461  19.328   9.521  0.00  0.00     0.168 HD
ENDBRANCH  11  13
ENDBRANCH   9  11
ENDBRANCH   8   9
ENDBRANCH   1   7
BRANCH   6  15
HETATM   15  O   UNK N   1      19.938  12.708  10.903  0.00  0.00    -0.360 OA
HETATM   16  H   UNK N   1      19.294  13.110  10.353  0.00  0.00     0.217 HD
ENDBRANCH   6  15
TORSDOF 5
ENDMDL
MODEL 3
REMARK VINA RESULT:      -5.7     13.922     15.245
REMARK  5 active torsions:
REMARK  status: ('A' for Active; 'I' for Inactive)
REMARK    1  A    between atoms: C_2  and  C_3 
REMARK    2  A    between atoms: C_2  and  C_6 
REMARK    3  A    between atoms: C_3  and  O_4 
REMARK    4  A    between atoms: C_7  and  C_8 
REMARK    5  A    between atoms: C_13  and  O_14 
ROOT
HETATM    1  C   UNK N   1      26.325  25.650  -4.271  0.00  0.00    -0.003 A 
HETATM    2  C   UNK N   1      26.398  26.795  -3.467  0.00  0.00     0.014 A 
HETATM    3  C   UNK N   1      25.693  27.952  -3.811  0.00  0.00     0.001 A 
HETATM    4  C   UNK N   1      24.906  27.976  -4.963  0.00  0.00     0.003 A 
HETATM    5  C   UNK N   1      24.823  26.845  -5.775  0.00  0.00     0.037 A 
HETATM    6  C   UNK N   1      25.524  25.683  -5.442  0.00  0.00     0.075 A 
ENDROOT
BRANCH   1   7
HETATM    7  C   UNK N   1      27.098  24.457  -3.850  0.00  0.00     0.018 C 
HETATM    8  C   UNK N   1      28.432  24.452  -3.827  0.00  0.00     0.063 C 
BRANCH   8   9
HETATM    9  C   UNK N   1      29.243  23.294  -3.415  0.00  0.00     0.244 C 
HETATM   10  O   UNK N   1      29.769  22.573  -4.249  0.00  0.00    -0.281 OA
BRANCH   9  11
HETATM   11  C   UNK N   1      29.415  23.016  -1.977  0.00  0.00     0.218 C 
HETATM   12  O   UNK N   1      30.535  22.926  -1.498  0.00  0.00    -0.644 OA
BRANCH  11  13
HETATM   13  O   UNK N   1      28.338  22.859  -1.183  0.00  0.00    -0.770 OA
HETATM   14  H   UNK N   1      28.029  21.999  -0.979  0.00  0.00     0.168 HD
ENDBRANCH  11  13
ENDBRANCH   9  11
ENDBRANCH   8   9
ENDBRANCH   1   7
BRANCH   6  15
HETATM   15  O   UNK N   1      25.418  24.613  -6.250  0.00  0.00    -0.360 OA
HETATM   16  H   UNK N   1      25.440  24.725  -7.181  0.00  0.00     0.217 HD
ENDBRANCH   6  15
TORSDOF 5
ENDMDL
MODEL 4
REMARK VINA RESULT:      -5.6     13.649     14.988
REMARK  5 active torsions:
REMARK  status: ('A' for Active; 'I' for Inactive)
REMARK    1  A    between atoms: C_2  and  C_3 
REMARK    2  A    between atoms: C_2  and  C_6 
REMARK    3  A    between atoms: C_3  and  O_4 
REMARK    4  A    between atoms: C_7  and  C_8 
REMARK    5  A    between atoms: C_13  and  O_14 
ROOT
HETATM    1  C   UNK N   1      26.269  25.518  -4.162  0.00  0.00    -0.003 A 
HETATM    2  C   UNK N   1      26.070  25.019  -5.455  0.00  0.00     0.014 A 
HETATM    3  C   UNK N   1      25.498  25.821  -6.447  0.00  0.00     0.001 A 
HETATM    4  C   UNK N   1      25.121  27.133  -6.155  0.00  0.00     0.003 A 
HETATM    5  C   UNK N   1      25.312  27.645  -4.872  0.00  0.00     0.037 A 
HETATM    6  C   UNK N   1      25.881  26.852  -3.872  0.00  0.00     0.075 A 
ENDROOT
BRANCH   1   7
HETATM    7  C   UNK N   1      26.879  24.614  -3.157  0.00  0.00     0.018 C 
HETATM    8  C   UNK N   1      28.110  24.122  -3.307  0.00  0.00     0.063 C 
BRANCH   8   9
HETATM    9  C   UNK N   1      28.760  23.223  -2.338  0.00  0.00     0.244 C 
HETATM   10  O   UNK N   1      28.183  22.889  -1.314  0.00  0.00    -0.281 OA
BRANCH   9  11
HETATM   11  C   UNK N   1      30.121  22.729  -2.620  0.00  0.00     0.218 C 
HETATM   12  O   UNK N   1      30.985  22.784  -1.759  0.00  0.00    -0.644 OA
BRANCH  11  13
HETATM   13  O   UNK N   1      30.418  22.214  -3.828  0.00  0.00    -0.770 OA
HETATM   14  H   UNK N   1      30.098  22.627  -4.605  0.00  0.00     0.168 HD
ENDBRANCH  11  13
ENDBRANCH   9  11
ENDBRANCH   8   9
ENDBRANCH   1   7
BRANCH   6  15
HETATM   15  O   UNK N   1      26.049  27.381  -2.648  0.00  0.00    -0.360 OA
HETATM   16  H   UNK N   1      26.866  27.276  -2.200  0.00  0.00     0.217 HD
ENDBRANCH   6  15
TORSDOF 5
ENDMDL
MODEL 5
REMARK VINA RESULT:      -5.5      8.039     11.447
REMARK  5 active torsions:
REMARK  status: ('A' for Active; 'I' for Inactive)
REMARK    1  A    between atoms: C_2  and  C_3 
REMARK    2  A    between atoms: C_2  and  C_6 
REMARK    3  A    between atoms: C_3  and  O_4 
REMARK    4  A    between atoms: C_7  and  C_8 
REMARK    5  A    between atoms: C_13  and  O_14 
ROOT
HETATM    1  C   UNK N   1      24.716  19.319   3.979  0.00  0.00    -0.003 A 
HETATM    2  C   UNK N   1      25.541  20.260   3.349  0.00  0.00     0.014 A 
HETATM    3  C   UNK N   1      26.929  20.210   3.510  0.00  0.00     0.001 A 
HETATM    4  C   UNK N   1      27.507  19.217   4.303  0.00  0.00     0.003 A 
HETATM    5  C   UNK N   1      26.699  18.273   4.937  0.00  0.00     0.037 A 
HETATM    6  C   UNK N   1      25.311  18.313   4.784  0.00  0.00     0.075 A 
ENDROOT
BRANCH   1   7
HETATM    7  C   UNK N   1      23.253  19.429   3.767  0.00  0.00     0.018 C 
HETATM    8  C   UNK N   1      22.725  20.349   2.958  0.00  0.00     0.063 C 
BRANCH   8   9
HETATM    9  C   UNK N   1      21.280  20.497   2.714  0.00  0.00     0.244 C 
HETATM   10  O   UNK N   1      20.489  20.518   3.644  0.00  0.00    -0.281 OA
BRANCH   9  11
HETATM   11  C   UNK N   1      20.798  20.621   1.325  0.00  0.00     0.218 C 
HETATM   12  O   UNK N   1      20.617  21.724   0.833  0.00  0.00    -0.644 OA
BRANCH  11  13
HETATM   13  O   UNK N   1      20.553  19.518   0.591  0.00  0.00    -0.770 OA
HETATM   14  H   UNK N   1      20.719  18.670   0.951  0.00  0.00     0.168 HD
ENDBRANCH  11  13
ENDBRANCH   9  11
ENDBRANCH   8   9
ENDBRANCH   1   7
BRANCH   6  15
HETATM   15  O   UNK N   1      24.567  17.386   5.411  0.00  0.00    -0.360 OA
HETATM   16  H   UNK N   1      23.861  16.967   4.959  0.00  0.00     0.217 HD
ENDBRANCH   6  15
TORSDOF 5
ENDMDL
MODEL 6
REMARK VINA RESULT:      -5.5     15.785     17.440
REMARK  5 active torsions:
REMARK  status: ('A' for Active; 'I' for Inactive)
REMARK    1  A    between atoms: C_2  and  C_3 
REMARK    2  A    between atoms: C_2  and  C_6 
REMARK    3  A    between atoms: C_3  and  O_4 
REMARK    4  A    between atoms: C_7  and  C_8 
REMARK    5  A    between atoms: C_13  and  O_14 
ROOT
HETATM    1  C   UNK N   1      25.824  25.270  -4.959  0.00  0.00    -0.003 A 
HETATM    2  C   UNK N   1      25.213  26.271  -5.726  0.00  0.00     0.014 A 
HETATM    3  C   UNK N   1      25.114  27.578  -5.241  0.00  0.00     0.001 A 
HETATM    4  C   UNK N   1      25.627  27.899  -3.983  0.00  0.00     0.003 A 
HETATM    5  C   UNK N   1      26.238  26.914  -3.207  0.00  0.00     0.037 A 
HETATM    6  C   UNK N   1      26.342  25.604  -3.681  0.00  0.00     0.075 A 
ENDROOT
BRANCH   1   7
HETATM    7  C   UNK N   1      25.895  23.905  -5.533  0.00  0.00     0.018 C 
HETATM    8  C   UNK N   1      26.147  23.695  -6.826  0.00  0.00     0.063 C 
BRANCH   8   9
HETATM    9  C   UNK N   1      26.230  22.360  -7.442  0.00  0.00     0.244 C 
HETATM   10  O   UNK N   1      27.301  21.777  -7.526  0.00  0.00    -0.281 OA
BRANCH   9  11
HETATM   11  C   UNK N   1      24.999  21.731  -7.956  0.00  0.00     0.218 C 
HETATM   12  O   UNK N   1      24.018  21.621  -7.237  0.00  0.00    -0.644 OA
BRANCH  11  13
HETATM   13  O   UNK N   1      24.949  21.274  -9.222  0.00  0.00    -0.770 OA
HETATM   14  H   UNK N   1      25.616  21.515  -9.834  0.00  0.00     0.168 HD
ENDBRANCH  11  13
ENDBRANCH   9  11
ENDBRANCH   8   9
ENDBRANCH   1   7
BRANCH   6  15
HETATM   15  O   UNK N   1      26.938  24.683  -2.903  0.00  0.00    -0.360 OA
HETATM   16  H   UNK N   1      26.762  24.662  -1.983  0.00  0.00     0.217 HD
ENDBRANCH   6  15
TORSDOF 5
ENDMDL
MODEL 7
REMARK VINA RESULT:      -5.4      5.360      8.249
REMARK  5 active torsions:
REMARK  status: ('A' for Active; 'I' for Inactive)
REMARK    1  A    between atoms: C_2  and  C_3 
REMARK    2  A    between atoms: C_2  and  C_6 
REMARK    3  A    between atoms: C_3  and  O_4 
REMARK    4  A    between atoms: C_7  and  C_8 
REMARK    5  A    between atoms: C_13  and  O_14 
ROOT
HETATM    1  C   UNK N   1      35.945  13.647  14.109  0.00  0.00    -0.003 A 
HETATM    2  C   UNK N   1      34.881  12.749  13.958  0.00  0.00     0.014 A 
HETATM    3  C   UNK N   1      34.391  12.035  15.056  0.00  0.00     0.001 A 
HETATM    4  C   UNK N   1      34.961  12.213  16.318  0.00  0.00     0.003 A 
HETATM    5  C   UNK N   1      36.022  13.104  16.485  0.00  0.00     0.037 A 
HETATM    6  C   UNK N   1      36.520  13.822  15.395  0.00  0.00     0.075 A 
ENDROOT
BRANCH   1   7
HETATM    7  C   UNK N   1      36.416  14.371  12.904  0.00  0.00     0.018 C 
HETATM    8  C   UNK N   1      35.568  14.859  11.998  0.00  0.00     0.063 C 
BRANCH   8   9
HETATM    9  C   UNK N   1      35.986  15.586  10.788  0.00  0.00     0.244 C 
HETATM   10  O   UNK N   1      37.024  15.295  10.213  0.00  0.00    -0.281 OA
BRANCH   9  11
HETATM   11  C   UNK N   1      35.132  16.674  10.274  0.00  0.00     0.218 C 
HETATM   12  O   UNK N   1      35.593  17.794  10.116  0.00  0.00    -0.644 OA
BRANCH  11  13
HETATM   13  O   UNK N   1      33.840  16.439   9.977  0.00  0.00    -0.770 OA
HETATM   14  H   UNK N   1      33.579  15.600   9.654  0.00  0.00     0.168 HD
ENDBRANCH  11  13
ENDBRANCH   9  11
ENDBRANCH   8   9
ENDBRANCH   1   7
BRANCH   6  15
HETATM   15  O   UNK N   1      37.543  14.670  15.596  0.00  0.00    -0.360 OA
HETATM   16  H   UNK N   1      37.438  15.403  16.171  0.00  0.00     0.217 HD
ENDBRANCH   6  15
TORSDOF 5
ENDMDL
MODEL 8
REMARK VINA RESULT:      -5.4      8.337     10.647
REMARK  5 active torsions:
REMARK  status: ('A' for Active; 'I' for Inactive)
REMARK    1  A    between atoms: C_2  and  C_3 
REMARK    2  A    between atoms: C_2  and  C_6 
REMARK    3  A    between atoms: C_3  and  O_4 
REMARK    4  A    between atoms: C_7  and  C_8 
REMARK    5  A    between atoms: C_13  and  O_14 
ROOT
HETATM    1  C   UNK N   1      35.282  12.617  17.233  0.00  0.00    -0.003 A 
HETATM    2  C   UNK N   1      35.282  11.217  17.293  0.00  0.00     0.014 A 
HETATM    3  C   UNK N   1      35.255  10.559  18.526  0.00  0.00     0.001 A 
HETATM    4  C   UNK N   1      35.225  11.294  19.712  0.00  0.00     0.003 A 
HETATM    5  C   UNK N   1      35.224  12.688  19.669  0.00  0.00     0.037 A 
HETATM    6  C   UNK N   1      35.253  13.357  18.443  0.00  0.00     0.075 A 
ENDROOT
BRANCH   1   7
HETATM    7  C   UNK N   1      35.312  13.252  15.893  0.00  0.00     0.018 C 
HETATM    8  C   UNK N   1      36.407  13.239  15.131  0.00  0.00     0.063 C 
BRANCH   8   9
HETATM    9  C   UNK N   1      36.487  13.853  13.795  0.00  0.00     0.244 C 
HETATM   10  O   UNK N   1      36.325  15.056  13.651  0.00  0.00    -0.281 OA
BRANCH   9  11
HETATM   11  C   UNK N   1      36.766  12.996  12.628  0.00  0.00     0.218 C 
HETATM   12  O   UNK N   1      36.132  11.965  12.456  0.00  0.00    -0.644 OA
BRANCH  11  13
HETATM   13  O   UNK N   1      37.720  13.343  11.743  0.00  0.00    -0.770 OA
HETATM   14  H   UNK N   1      38.264  14.087  11.910  0.00  0.00     0.168 HD
ENDBRANCH  11  13
ENDBRANCH   9  11
ENDBRANCH   8   9
ENDBRANCH   1   7
BRANCH   6  15
HETATM   15  O   UNK N   1      35.251  14.702  18.443  0.00  0.00    -0.360 OA
HETATM   16  H   UNK N   1      35.071  15.170  19.235  0.00  0.00     0.217 HD
ENDBRANCH   6  15
TORSDOF 5
ENDMDL
MODEL 9
REMARK VINA RESULT:      -5.3     13.310     14.608
REMARK  5 active torsions:
REMARK  status: ('A' for Active; 'I' for Inactive)
REMARK    1  A    between atoms: C_2  and  C_3 
REMARK    2  A    between atoms: C_2  and  C_6 
REMARK    3  A    between atoms: C_3  and  O_4 
REMARK    4  A    between atoms: C_7  and  C_8 
REMARK    5  A    between atoms: C_13  and  O_14 
ROOT
HETATM    1  C   UNK N   1      26.911  24.841  -3.935  0.00  0.00    -0.003 A 
HETATM    2  C   UNK N   1      26.699  26.098  -3.353  0.00  0.00     0.014 A 
HETATM    3  C   UNK N   1      25.919  27.060  -4.002  0.00  0.00     0.001 A 
HETATM    4  C   UNK N   1      25.342  26.774  -5.240  0.00  0.00     0.003 A 
HETATM    5  C   UNK N   1      25.543  25.527  -5.833  0.00  0.00     0.037 A 
HETATM    6  C   UNK N   1      26.322  24.558  -5.195  0.00  0.00     0.075 A 
ENDROOT
BRANCH   1   7
HETATM    7  C   UNK N   1      27.749  23.867  -3.194  0.00  0.00     0.018 C 
HETATM    8  C   UNK N   1      29.082  23.915  -3.227  0.00  0.00     0.063 C 
BRANCH   8   9
HETATM    9  C   UNK N   1      29.956  22.973  -2.508  0.00  0.00     0.244 C 
HETATM   10  O   UNK N   1      30.177  23.113  -1.315  0.00  0.00    -0.281 OA
BRANCH   9  11
HETATM   11  C   UNK N   1      30.563  21.851  -3.249  0.00  0.00     0.218 C 
HETATM   12  O   UNK N   1      30.138  21.540  -4.351  0.00  0.00    -0.644 OA
BRANCH  11  13
HETATM   13  O   UNK N   1      31.591  21.163  -2.716  0.00  0.00    -0.770 OA
HETATM   14  H   UNK N   1      31.869  20.359  -3.106  0.00  0.00     0.168 HD
ENDBRANCH  11  13
ENDBRANCH   9  11
ENDBRANCH   8   9
ENDBRANCH   1   7
BRANCH   6  15
HETATM   15  O   UNK N   1      26.492  23.369  -5.798  0.00  0.00    -0.360 OA
HETATM   16  H   UNK N   1      27.055  22.725  -5.413  0.00  0.00     0.217 HD
ENDBRANCH   6  15
TORSDOF 5
ENDMDL
