MODEL 1
REMARK VINA RESULT:      -6.6      0.000      0.000
REMARK  9 active torsions:
REMARK  status: ('A' for Active; 'I' for Inactive)
REMARK    1  A    between atoms: C_1  and  C_2 
REMARK    2  A    between atoms: C_2  and  C_3 
REMARK    3  A    between atoms: C_2  and  C_5 
REMARK    4  A    between atoms: C_3  and  C_4 
REMARK    5  A    between atoms: C_3  and  C_10 
REMARK    6  A    between atoms: C_4  and  O_8 
REMARK    7  A    between atoms: C_10  and  N_11 
REMARK    8  A    between atoms: N_11  and  S_14 
REMARK    9  A    between atoms: S_14  and  C_15 
ROOT
HETATM    1  N   UNK N   1      31.223  17.084   9.118  0.00  0.00    -0.315 N 
HETATM    2  H   UNK N   1      31.471  16.179   9.519  0.00  0.00     0.172 HD
ENDROOT
BRANCH   1   3
HETATM    3  C   UNK N   1      32.146  17.942   8.385  0.00  0.00     0.148 C 
BRANCH   3   4
HETATM    4  C   UNK N   1      33.494  17.265   8.040  0.00  0.00     0.112 C 
BRANCH   4   5
HETATM    5  C   UNK N   1      33.704  17.078   6.502  0.00  0.00     0.062 C 
BRANCH   5   6
HETATM    6  C   UNK N   1      34.370  15.763   6.177  0.00  0.00     0.236 C 
HETATM    7  O   UNK N   1      35.573  15.700   5.977  0.00  0.00    -0.306 OA
ENDBRANCH   5   6
BRANCH   5   8
HETATM    8  C   UNK N   1      32.430  17.281   5.664  0.00  0.00     0.008 C 
HETATM    9  C   UNK N   1      32.651  17.647   4.206  0.00  0.00     0.006 C 
ENDBRANCH   5   8
ENDBRANCH   4   5
BRANCH   4  10
HETATM   10  C   UNK N   1      34.638  17.967   8.752  0.00  0.00     0.146 C 
HETATM   11  O   UNK N   1      35.178  17.445   9.713  0.00  0.00    -0.650 OA
BRANCH  10  12
HETATM   12  O   UNK N   1      35.037  19.195   8.368  0.00  0.00    -0.776 OA
HETATM   13  H   UNK N   1      35.198  19.943   8.909  0.00  0.00     0.167 HD
ENDBRANCH  10  12
ENDBRANCH   4  10
ENDBRANCH   3   4
ENDBRANCH   1   3
BRANCH   1  14
HETATM   14  S   UNK N   1      29.615  17.819   9.219  0.00  0.00     0.258 S 
HETATM   15  O   UNK N   1      29.769  18.998  10.189  0.00  0.00    -0.201 OA
HETATM   16  O   UNK N   1      28.722  16.844  10.004  0.00  0.00    -0.201 OA
BRANCH  14  17
HETATM   17  C   UNK N   1      28.900  18.309   7.659  0.00  0.00     0.079 A 
HETATM   18  C   UNK N   1      29.103  17.530   6.516  0.00  0.00     0.026 A 
HETATM   19  C   UNK N   1      28.548  17.923   5.295  0.00  0.00     0.008 A 
HETATM   20  C   UNK N   1      27.791  19.097   5.216  0.00  0.00    -0.062 A 
HETATM   21  C   UNK N   1      27.590  19.877   6.359  0.00  0.00     0.008 A 
HETATM   22  C   UNK N   1      27.200  19.513   3.919  0.00  0.00     0.048 C 
HETATM   23  C   UNK N   1      28.145  19.484   7.580  0.00  0.00     0.026 A 
ENDBRANCH  14  17
ENDBRANCH   1  14
TORSDOF 9
ENDMDL
MODEL 2
REMARK VINA RESULT:      -6.4      3.266      5.062
REMARK  9 active torsions:
REMARK  status: ('A' for Active; 'I' for Inactive)
REMARK    1  A    between atoms: C_1  and  C_2 
REMARK    2  A    between atoms: C_2  and  C_3 
REMARK    3  A    between atoms: C_2  and  C_5 
REMARK    4  A    between atoms: C_3  and  C_4 
REMARK    5  A    between atoms: C_3  and  C_10 
REMARK    6  A    between atoms: C_4  and  O_8 
REMARK    7  A    between atoms: C_10  and  N_11 
REMARK    8  A    between atoms: N_11  and  S_14 
REMARK    9  A    between atoms: S_14  and  C_15 
ROOT
HETATM    1  N   UNK N   1      34.874  15.992   8.002  0.00  0.00    -0.315 N 
HETATM    2  H   UNK N   1      35.810  15.681   7.741  0.00  0.00     0.172 HD
ENDROOT
BRANCH   1   3
HETATM    3  C   UNK N   1      34.041  15.346   9.008  0.00  0.00     0.148 C 
BRANCH   3   4
HETATM    4  C   UNK N   1      34.755  15.117  10.362  0.00  0.00     0.112 C 
BRANCH   4   5
HETATM    5  C   UNK N   1      35.283  13.655  10.532  0.00  0.00     0.062 C 
BRANCH   5   6
HETATM    6  C   UNK N   1      35.243  13.202  11.971  0.00  0.00     0.236 C 
HETATM    7  O   UNK N   1      34.630  13.840  12.813  0.00  0.00    -0.306 OA
ENDBRANCH   5   6
BRANCH   5   8
HETATM    8  C   UNK N   1      34.607  12.631   9.604  0.00  0.00     0.008 C 
HETATM    9  C   UNK N   1      34.409  11.243  10.188  0.00  0.00     0.006 C 
ENDBRANCH   5   8
ENDBRANCH   4   5
BRANCH   4  10
HETATM   10  C   UNK N   1      35.797  16.197  10.601  0.00  0.00     0.146 C 
HETATM   11  O   UNK N   1      35.467  17.369  10.662  0.00  0.00    -0.650 OA
BRANCH  10  12
HETATM   12  O   UNK N   1      37.104  15.881  10.695  0.00  0.00    -0.776 OA
HETATM   13  H   UNK N   1      37.611  15.755  11.473  0.00  0.00     0.167 HD
ENDBRANCH  10  12
ENDBRANCH   4  10
ENDBRANCH   3   4
ENDBRANCH   1   3
BRANCH   1  14
HETATM   14  S   UNK N   1      34.047  17.387   7.292  0.00  0.00     0.258 S 
HETATM   15  O   UNK N   1      34.361  17.323   5.790  0.00  0.00    -0.201 OA
HETATM   16  O   UNK N   1      34.808  18.643   7.748  0.00  0.00    -0.201 OA
BRANCH  14  17
HETATM   17  C   UNK N   1      32.295  17.484   7.617  0.00  0.00     0.079 A 
HETATM   18  C   UNK N   1      31.817  18.266   8.672  0.00  0.00     0.026 A 
HETATM   19  C   UNK N   1      30.445  18.332   8.929  0.00  0.00     0.008 A 
HETATM   20  C   UNK N   1      29.549  17.612   8.130  0.00  0.00    -0.062 A 
HETATM   21  C   UNK N   1      30.027  16.828   7.077  0.00  0.00     0.008 A 
HETATM   22  C   UNK N   1      28.091  17.683   8.403  0.00  0.00     0.048 C 
HETATM   23  C   UNK N   1      31.399  16.762   6.820  0.00  0.00     0.026 A 
ENDBRANCH  14  17
ENDBRANCH   1  14
TORSDOF 9
ENDMDL
MODEL 3
REMARK VINA RESULT:      -6.3      5.846      8.762
REMARK  9 active torsions:
REMARK  status: ('A' for Active; 'I' for Inactive)
REMARK    1  A    between atoms: C_1  and  C_2 
REMARK    2  A    between atoms: C_2  and  C_3 
REMARK    3  A    between atoms: C_2  and  C_5 
REMARK    4  A    between atoms: C_3  and  C_4 
REMARK    5  A    between atoms: C_3  and  C_10 
REMARK    6  A    between atoms: C_4  and  O_8 
REMARK    7  A    between atoms: C_10  and  N_11 
REMARK    8  A    between atoms: N_11  and  S_14 
REMARK    9  A    between atoms: S_14  and  C_15 
ROOT
HETATM    1  N   UNK N   1      34.301  14.028  11.004  0.00  0.00    -0.315 N 
HETATM    2  H   UNK N   1      33.601  14.571  11.510  0.00  0.00     0.172 HD
ENDROOT
BRANCH   1   3
HETATM    3  C   UNK N   1      34.607  14.191   9.588  0.00  0.00     0.148 C 
BRANCH   3   4
HETATM    4  C   UNK N   1      35.103  15.608   9.213  0.00  0.00     0.112 C 
BRANCH   4   5
HETATM    5  C   UNK N   1      34.016  16.457   8.475  0.00  0.00     0.062 C 
BRANCH   5   6
HETATM    6  C   UNK N   1      34.350  16.660   7.017  0.00  0.00     0.236 C 
HETATM    7  O   UNK N   1      34.476  17.782   6.552  0.00  0.00    -0.306 OA
ENDBRANCH   5   6
BRANCH   5   8
HETATM    8  C   UNK N   1      32.581  15.931   8.652  0.00  0.00     0.008 C 
HETATM    9  C   UNK N   1      31.477  16.961   8.485  0.00  0.00     0.006 C 
ENDBRANCH   5   8
ENDBRANCH   4   5
BRANCH   4  10
HETATM   10  C   UNK N   1      35.723  16.290  10.420  0.00  0.00     0.146 C 
HETATM   11  O   UNK N   1      35.128  17.185  10.996  0.00  0.00    -0.650 OA
BRANCH  10  12
HETATM   12  O   UNK N   1      36.959  15.955  10.839  0.00  0.00    -0.776 OA
HETATM   13  H   UNK N   1      37.430  16.296  11.574  0.00  0.00     0.167 HD
ENDBRANCH  10  12
ENDBRANCH   4  10
ENDBRANCH   3   4
ENDBRANCH   1   3
BRANCH   1  14
HETATM   14  S   UNK N   1      35.303  12.760  11.729  0.00  0.00     0.258 S 
HETATM   15  O   UNK N   1      36.715  12.993  11.174  0.00  0.00    -0.201 OA
HETATM   16  O   UNK N   1      34.893  11.431  11.073  0.00  0.00    -0.201 OA
BRANCH  14  17
HETATM   17  C   UNK N   1      35.275  12.689  13.511  0.00  0.00     0.079 A 
HETATM   18  C   UNK N   1      34.382  11.837  14.168  0.00  0.00     0.026 A 
HETATM   19  C   UNK N   1      34.358  11.792  15.565  0.00  0.00     0.008 A 
HETATM   20  C   UNK N   1      35.226  12.602  16.306  0.00  0.00    -0.062 A 
HETATM   21  C   UNK N   1      36.116  13.456  15.649  0.00  0.00     0.008 A 
HETATM   22  C   UNK N   1      35.200  12.553  17.790  0.00  0.00     0.048 C 
HETATM   23  C   UNK N   1      36.140  13.501  14.253  0.00  0.00     0.026 A 
ENDBRANCH  14  17
ENDBRANCH   1  14
TORSDOF 9
ENDMDL
MODEL 4
REMARK VINA RESULT:      -6.3      1.919      5.621
REMARK  9 active torsions:
REMARK  status: ('A' for Active; 'I' for Inactive)
REMARK    1  A    between atoms: C_1  and  C_2 
REMARK    2  A    between atoms: C_2  and  C_3 
REMARK    3  A    between atoms: C_2  and  C_5 
REMARK    4  A    between atoms: C_3  and  C_4 
REMARK    5  A    between atoms: C_3  and  C_10 
REMARK    6  A    between atoms: C_4  and  O_8 
REMARK    7  A    between atoms: C_10  and  N_11 
REMARK    8  A    between atoms: N_11  and  S_14 
REMARK    9  A    between atoms: S_14  and  C_15 
ROOT
HETATM    1  N   UNK N   1      32.204  18.067   9.019  0.00  0.00    -0.315 N 
HETATM    2  H   UNK N   1      32.076  18.809   9.708  0.00  0.00     0.172 HD
ENDROOT
BRANCH   1   3
HETATM    3  C   UNK N   1      31.139  17.195   8.538  0.00  0.00     0.148 C 
BRANCH   3   4
HETATM    4  C   UNK N   1      29.864  17.950   8.090  0.00  0.00     0.112 C 
BRANCH   4   5
HETATM    5  C   UNK N   1      29.087  17.210   6.952  0.00  0.00     0.062 C 
BRANCH   5   6
HETATM    6  C   UNK N   1      28.457  18.174   5.977  0.00  0.00     0.236 C 
HETATM    7  O   UNK N   1      27.427  18.768   6.259  0.00  0.00    -0.306 OA
ENDBRANCH   5   6
BRANCH   5   8
HETATM    8  C   UNK N   1      29.915  16.137   6.222  0.00  0.00     0.008 C 
HETATM    9  C   UNK N   1      29.124  15.172   5.355  0.00  0.00     0.006 C 
ENDBRANCH   5   8
ENDBRANCH   4   5
BRANCH   4  10
HETATM   10  C   UNK N   1      29.016  18.321   9.295  0.00  0.00     0.146 C 
HETATM   11  O   UNK N   1      29.539  18.756  10.306  0.00  0.00    -0.650 OA
BRANCH  10  12
HETATM   12  O   UNK N   1      27.683  18.124   9.283  0.00  0.00    -0.776 OA
HETATM   13  H   UNK N   1      27.006  18.771   9.237  0.00  0.00     0.167 HD
ENDBRANCH  10  12
ENDBRANCH   4  10
ENDBRANCH   3   4
ENDBRANCH   1   3
BRANCH   1  14
HETATM   14  S   UNK N   1      33.748  17.668   8.250  0.00  0.00     0.258 S 
HETATM   15  O   UNK N   1      34.494  16.795   9.269  0.00  0.00    -0.201 OA
HETATM   16  O   UNK N   1      34.587  18.957   8.226  0.00  0.00    -0.201 OA
BRANCH  14  17
HETATM   17  C   UNK N   1      33.626  16.891   6.649  0.00  0.00     0.079 A 
HETATM   18  C   UNK N   1      33.954  15.541   6.494  0.00  0.00     0.026 A 
HETATM   19  C   UNK N   1      33.866  14.939   5.236  0.00  0.00     0.008 A 
HETATM   20  C   UNK N   1      33.451  15.689   4.130  0.00  0.00    -0.062 A 
HETATM   21  C   UNK N   1      33.125  17.039   4.284  0.00  0.00     0.008 A 
HETATM   22  C   UNK N   1      33.356  15.049   2.793  0.00  0.00     0.048 C 
HETATM   23  C   UNK N   1      33.214  17.641   5.542  0.00  0.00     0.026 A 
ENDBRANCH  14  17
ENDBRANCH   1  14
TORSDOF 9
ENDMDL
MODEL 5
REMARK VINA RESULT:      -6.2     12.877     14.788
REMARK  9 active torsions:
REMARK  status: ('A' for Active; 'I' for Inactive)
REMARK    1  A    between atoms: C_1  and  C_2 
REMARK    2  A    between atoms: C_2  and  C_3 
REMARK    3  A    between atoms: C_2  and  C_5 
REMARK    4  A    between atoms: C_3  and  C_4 
REMARK    5  A    between atoms: C_3  and  C_10 
REMARK    6  A    between atoms: C_4  and  O_8 
REMARK    7  A    between atoms: C_10  and  N_11 
REMARK    8  A    between atoms: N_11  and  S_14 
REMARK    9  A    between atoms: S_14  and  C_15 
ROOT
HETATM    1  N   UNK N   1      27.430  23.955  -5.203  0.00  0.00    -0.315 N 
HETATM    2  H   UNK N   1      27.721  23.087  -5.653  0.00  0.00     0.172 HD
ENDROOT
BRANCH   1   3
HETATM    3  C   UNK N   1      27.939  24.432  -3.923  0.00  0.00     0.148 C 
BRANCH   3   4
HETATM    4  C   UNK N   1      29.315  23.840  -3.535  0.00  0.00     0.112 C 
BRANCH   4   5
HETATM    5  C   UNK N   1      30.492  24.851  -3.737  0.00  0.00     0.062 C 
BRANCH   5   6
HETATM    6  C   UNK N   1      31.664  24.220  -4.448  0.00  0.00     0.236 C 
HETATM    7  O   UNK N   1      32.201  23.217  -4.006  0.00  0.00    -0.306 OA
ENDBRANCH   5   6
BRANCH   5   8
HETATM    8  C   UNK N   1      30.076  26.173  -4.406  0.00  0.00     0.008 C 
HETATM    9  C   UNK N   1      30.147  27.408  -3.524  0.00  0.00     0.006 C 
ENDBRANCH   5   8
ENDBRANCH   4   5
BRANCH   4  10
HETATM   10  C   UNK N   1      29.252  23.213  -2.153  0.00  0.00     0.146 C 
HETATM   11  O   UNK N   1      28.176  22.971  -1.634  0.00  0.00    -0.650 OA
BRANCH  10  12
HETATM   12  O   UNK N   1      30.381  22.964  -1.459  0.00  0.00    -0.776 OA
HETATM   13  H   UNK N   1      30.582  23.215  -0.579  0.00  0.00     0.167 HD
ENDBRANCH  10  12
ENDBRANCH   4  10
ENDBRANCH   3   4
ENDBRANCH   1   3
BRANCH   1  14
HETATM   14  S   UNK N   1      26.238  25.082  -5.872  0.00  0.00     0.258 S 
HETATM   15  O   UNK N   1      24.873  24.535  -5.434  0.00  0.00    -0.201 OA
HETATM   16  O   UNK N   1      26.220  24.866  -7.395  0.00  0.00    -0.201 OA
BRANCH  14  17
HETATM   17  C   UNK N   1      26.465  26.792  -5.418  0.00  0.00     0.079 A 
HETATM   18  C   UNK N   1      27.274  27.626  -6.195  0.00  0.00     0.026 A 
HETATM   19  C   UNK N   1      27.455  28.963  -5.830  0.00  0.00     0.008 A 
HETATM   20  C   UNK N   1      26.828  29.466  -4.685  0.00  0.00    -0.062 A 
HETATM   21  C   UNK N   1      26.021  28.632  -3.906  0.00  0.00     0.008 A 
HETATM   22  C   UNK N   1      27.020  30.887  -4.298  0.00  0.00     0.048 C 
HETATM   23  C   UNK N   1      25.840  27.295  -4.271  0.00  0.00     0.026 A 
ENDBRANCH  14  17
ENDBRANCH   1  14
TORSDOF 9
ENDMDL
MODEL 6
REMARK VINA RESULT:      -6.2      9.832     11.730
REMARK  9 active torsions:
REMARK  status: ('A' for Active; 'I' for Inactive)
REMARK    1  A    between atoms: C_1  and  C_2 
REMARK    2  A    between atoms: C_2  and  C_3 
REMARK    3  A    between atoms: C_2  and  C_5 
REMARK    4  A    between atoms: C_3  and  C_4 
REMARK    5  A    between atoms: C_3  and  C_10 
REMARK    6  A    between atoms: C_4  and  O_8 
REMARK    7  A    between atoms: C_10  and  N_11 
REMARK    8  A    between atoms: N_11  and  S_14 
REMARK    9  A    between atoms: S_14  and  C_15 
ROOT
HETATM    1  N   UNK N   1      21.443  16.666   5.671  0.00  0.00    -0.315 N 
HETATM    2  H   UNK N   1      21.854  15.937   5.089  0.00  0.00     0.172 HD
ENDROOT
BRANCH   1   3
HETATM    3  C   UNK N   1      21.556  18.096   5.406  0.00  0.00     0.148 C 
BRANCH   3   4
HETATM    4  C   UNK N   1      20.911  18.539   4.071  0.00  0.00     0.112 C 
BRANCH   4   5
HETATM    5  C   UNK N   1      21.916  19.271   3.123  0.00  0.00     0.062 C 
BRANCH   5   6
HETATM    6  C   UNK N   1      21.407  20.626   2.695  0.00  0.00     0.236 C 
HETATM    7  O   UNK N   1      21.198  20.875   1.518  0.00  0.00    -0.306 OA
ENDBRANCH   5   6
BRANCH   5   8
HETATM    8  C   UNK N   1      23.349  19.361   3.677  0.00  0.00     0.008 C 
HETATM    9  C   UNK N   1      24.187  20.515   3.152  0.00  0.00     0.006 C 
ENDBRANCH   5   8
ENDBRANCH   4   5
BRANCH   4  10
HETATM   10  C   UNK N   1      20.170  17.378   3.429  0.00  0.00     0.146 C 
HETATM   11  O   UNK N   1      20.677  16.755   2.512  0.00  0.00    -0.650 OA
BRANCH  10  12
HETATM   12  O   UNK N   1      18.922  17.055   3.825  0.00  0.00    -0.776 OA
HETATM   13  H   UNK N   1      18.342  16.427   3.443  0.00  0.00     0.167 HD
ENDBRANCH  10  12
ENDBRANCH   4  10
ENDBRANCH   3   4
ENDBRANCH   1   3
BRANCH   1  14
HETATM   14  S   UNK N   1      20.499  16.365   7.139  0.00  0.00     0.258 S 
HETATM   15  O   UNK N   1      19.058  16.148   6.656  0.00  0.00    -0.201 OA
HETATM   16  O   UNK N   1      20.408  17.699   7.899  0.00  0.00    -0.201 OA
BRANCH  14  17
HETATM   17  C   UNK N   1      21.083  15.024   8.161  0.00  0.00     0.079 A 
HETATM   18  C   UNK N   1      20.351  14.624   9.283  0.00  0.00     0.026 A 
HETATM   19  C   UNK N   1      20.817  13.580  10.086  0.00  0.00     0.008 A 
HETATM   20  C   UNK N   1      22.018  12.935   9.768  0.00  0.00    -0.062 A 
HETATM   21  C   UNK N   1      22.751  13.338   8.648  0.00  0.00     0.008 A 
HETATM   22  C   UNK N   1      22.513  11.825  10.621  0.00  0.00     0.048 C 
HETATM   23  C   UNK N   1      22.285  14.382   7.845  0.00  0.00     0.026 A 
ENDBRANCH  14  17
ENDBRANCH   1  14
TORSDOF 9
ENDMDL
MODEL 7
REMARK VINA RESULT:      -6.0     12.115     14.847
REMARK  9 active torsions:
REMARK  status: ('A' for Active; 'I' for Inactive)
REMARK    1  A    between atoms: C_1  and  C_2 
REMARK    2  A    between atoms: C_2  and  C_3 
REMARK    3  A    between atoms: C_2  and  C_5 
REMARK    4  A    between atoms: C_3  and  C_4 
REMARK    5  A    between atoms: C_3  and  C_10 
REMARK    6  A    between atoms: C_4  and  O_8 
REMARK    7  A    between atoms: C_10  and  N_11 
REMARK    8  A    between atoms: N_11  and  S_14 
REMARK    9  A    between atoms: S_14  and  C_15 
ROOT
HETATM    1  N   UNK N   1      28.359  23.568  -3.017  0.00  0.00    -0.315 N 
HETATM    2  H   UNK N   1      27.706  22.903  -2.603  0.00  0.00     0.172 HD
ENDROOT
BRANCH   1   3
HETATM    3  C   UNK N   1      27.965  24.725  -3.812  0.00  0.00     0.148 C 
BRANCH   3   4
HETATM    4  C   UNK N   1      26.502  24.674  -4.312  0.00  0.00     0.112 C 
BRANCH   4   5
HETATM    5  C   UNK N   1      25.873  26.094  -4.498  0.00  0.00     0.062 C 
BRANCH   5   6
HETATM    6  C   UNK N   1      26.272  27.040  -3.391  0.00  0.00     0.236 C 
HETATM    7  O   UNK N   1      25.472  27.838  -2.929  0.00  0.00    -0.306 OA
ENDBRANCH   5   6
BRANCH   5   8
HETATM    8  C   UNK N   1      26.125  26.716  -5.883  0.00  0.00     0.008 C 
HETATM    9  C   UNK N   1      27.236  27.750  -5.948  0.00  0.00     0.006 C 
ENDBRANCH   5   8
ENDBRANCH   4   5
BRANCH   4  10
HETATM   10  C   UNK N   1      26.386  23.769  -5.526  0.00  0.00     0.146 C 
HETATM   11  O   UNK N   1      25.291  23.423  -5.935  0.00  0.00    -0.650 OA
BRANCH  10  12
HETATM   12  O   UNK N   1      27.490  23.294  -6.137  0.00  0.00    -0.776 OA
HETATM   13  H   UNK N   1      28.015  23.717  -6.788  0.00  0.00     0.167 HD
ENDBRANCH  10  12
ENDBRANCH   4  10
ENDBRANCH   3   4
ENDBRANCH   1   3
BRANCH   1  14
HETATM   14  S   UNK N   1      30.121  23.471  -2.866  0.00  0.00     0.258 S 
HETATM   15  O   UNK N   1      30.381  23.072  -1.406  0.00  0.00    -0.201 OA
HETATM   16  O   UNK N   1      30.659  24.911  -2.928  0.00  0.00    -0.201 OA
BRANCH  14  17
HETATM   17  C   UNK N   1      30.928  22.380  -4.024  0.00  0.00     0.079 A 
HETATM   18  C   UNK N   1      32.315  22.433  -4.191  0.00  0.00     0.026 A 
HETATM   19  C   UNK N   1      32.942  21.583  -5.106  0.00  0.00     0.008 A 
HETATM   20  C   UNK N   1      32.181  20.680  -5.857  0.00  0.00    -0.062 A 
HETATM   21  C   UNK N   1      30.794  20.629  -5.692  0.00  0.00     0.008 A 
HETATM   22  C   UNK N   1      32.848  19.776  -6.829  0.00  0.00     0.048 C 
HETATM   23  C   UNK N   1      30.167  21.479  -4.777  0.00  0.00     0.026 A 
ENDBRANCH  14  17
ENDBRANCH   1  14
TORSDOF 9
ENDMDL
MODEL 8
REMARK VINA RESULT:      -5.9      3.416      7.015
REMARK  9 active torsions:
REMARK  status: ('A' for Active; 'I' for Inactive)
REMARK    1  A    between atoms: C_1  and  C_2 
REMARK    2  A    between atoms: C_2  and  C_3 
REMARK    3  A    between atoms: C_2  and  C_5 
REMARK    4  A    between atoms: C_3  and  C_4 
REMARK    5  A    between atoms: C_3  and  C_10 
REMARK    6  A    between atoms: C_4  and  O_8 
REMARK    7  A    between atoms: C_10  and  N_11 
REMARK    8  A    between atoms: N_11  and  S_14 
REMARK    9  A    between atoms: S_14  and  C_15 
ROOT
HETATM    1  N   UNK N   1      27.295  18.940   7.230  0.00  0.00    -0.315 N 
HETATM    2  H   UNK N   1      26.949  19.730   7.775  0.00  0.00     0.172 HD
ENDROOT
BRANCH   1   3
HETATM    3  C   UNK N   1      27.151  18.809   5.785  0.00  0.00     0.148 C 
BRANCH   3   4
HETATM    4  C   UNK N   1      26.862  20.145   5.059  0.00  0.00     0.112 C 
BRANCH   4   5
HETATM    5  C   UNK N   1      25.582  20.085   4.162  0.00  0.00     0.062 C 
BRANCH   5   6
HETATM    6  C   UNK N   1      25.809  20.717   2.810  0.00  0.00     0.236 C 
HETATM    7  O   UNK N   1      24.918  20.752   1.976  0.00  0.00    -0.306 OA
ENDBRANCH   5   6
BRANCH   5   8
HETATM    8  C   UNK N   1      24.975  18.678   4.027  0.00  0.00     0.008 C 
HETATM    9  C   UNK N   1      23.552  18.522   4.536  0.00  0.00     0.006 C 
ENDBRANCH   5   8
ENDBRANCH   4   5
BRANCH   4  10
HETATM   10  C   UNK N   1      26.888  21.300   6.045  0.00  0.00     0.146 C 
HETATM   11  O   UNK N   1      25.850  21.728   6.520  0.00  0.00    -0.650 OA
BRANCH  10  12
HETATM   12  O   UNK N   1      28.049  21.904   6.366  0.00  0.00    -0.776 OA
HETATM   13  H   UNK N   1      28.782  21.537   6.819  0.00  0.00     0.167 HD
ENDBRANCH  10  12
ENDBRANCH   4  10
ENDBRANCH   3   4
ENDBRANCH   1   3
BRANCH   1  14
HETATM   14  S   UNK N   1      28.147  17.546   7.913  0.00  0.00     0.258 S 
HETATM   15  O   UNK N   1      27.441  16.314   7.331  0.00  0.00    -0.201 OA
HETATM   16  O   UNK N   1      27.780  17.480   9.405  0.00  0.00    -0.201 OA
BRANCH  14  17
HETATM   17  C   UNK N   1      29.909  17.516   7.632  0.00  0.00     0.079 A 
HETATM   18  C   UNK N   1      30.419  17.097   6.400  0.00  0.00     0.026 A 
HETATM   19  C   UNK N   1      31.800  17.066   6.188  0.00  0.00     0.008 A 
HETATM   20  C   UNK N   1      32.673  17.453   7.211  0.00  0.00    -0.062 A 
HETATM   21  C   UNK N   1      32.164  17.869   8.444  0.00  0.00     0.008 A 
HETATM   22  C   UNK N   1      34.141  17.422   6.985  0.00  0.00     0.048 C 
HETATM   23  C   UNK N   1      30.783  17.900   8.656  0.00  0.00     0.026 A 
ENDBRANCH  14  17
ENDBRANCH   1  14
TORSDOF 9
ENDMDL
MODEL 9
REMARK VINA RESULT:      -5.9     11.826     14.578
REMARK  9 active torsions:
REMARK  status: ('A' for Active; 'I' for Inactive)
REMARK    1  A    between atoms: C_1  and  C_2 
REMARK    2  A    between atoms: C_2  and  C_3 
REMARK    3  A    between atoms: C_2  and  C_5 
REMARK    4  A    between atoms: C_3  and  C_4 
REMARK    5  A    between atoms: C_3  and  C_10 
REMARK    6  A    between atoms: C_4  and  O_8 
REMARK    7  A    between atoms: C_10  and  N_11 
REMARK    8  A    between atoms: N_11  and  S_14 
REMARK    9  A    between atoms: S_14  and  C_15 
ROOT
HETATM    1  N   UNK N   1      28.958  23.833  -4.566  0.00  0.00    -0.315 N 
HETATM    2  H   UNK N   1      28.567  23.206  -5.270  0.00  0.00     0.172 HD
ENDROOT
BRANCH   1   3
HETATM    3  C   UNK N   1      28.749  25.276  -4.540  0.00  0.00     0.148 C 
BRANCH   3   4
HETATM    4  C   UNK N   1      27.338  25.697  -4.063  0.00  0.00     0.112 C 
BRANCH   4   5
HETATM    5  C   UNK N   1      26.764  26.913  -4.862  0.00  0.00     0.062 C 
BRANCH   5   6
HETATM    6  C   UNK N   1      25.719  27.666  -4.074  0.00  0.00     0.236 C 
HETATM    7  O   UNK N   1      25.758  27.701  -2.854  0.00  0.00    -0.306 OA
ENDBRANCH   5   6
BRANCH   5   8
HETATM    8  C   UNK N   1      27.839  27.864  -5.417  0.00  0.00     0.008 C 
HETATM    9  C   UNK N   1      27.441  29.327  -5.506  0.00  0.00     0.006 C 
ENDBRANCH   5   8
ENDBRANCH   4   5
BRANCH   4  10
HETATM   10  C   UNK N   1      26.417  24.491  -4.002  0.00  0.00     0.146 C 
HETATM   11  O   UNK N   1      25.699  24.215  -4.948  0.00  0.00    -0.650 OA
BRANCH  10  12
HETATM   12  O   UNK N   1      26.339  23.741  -2.884  0.00  0.00    -0.776 OA
HETATM   13  H   UNK N   1      26.638  22.862  -2.759  0.00  0.00     0.167 HD
ENDBRANCH  10  12
ENDBRANCH   4  10
ENDBRANCH   3   4
ENDBRANCH   1   3
BRANCH   1  14
HETATM   14  S   UNK N   1      29.978  23.314  -3.215  0.00  0.00     0.258 S 
HETATM   15  O   UNK N   1      29.003  22.938  -2.092  0.00  0.00    -0.201 OA
HETATM   16  O   UNK N   1      30.669  24.572  -2.663  0.00  0.00    -0.201 OA
BRANCH  14  17
HETATM   17  C   UNK N   1      31.128  22.001  -3.587  0.00  0.00     0.079 A 
HETATM   18  C   UNK N   1      30.806  21.033  -4.544  0.00  0.00     0.026 A 
HETATM   19  C   UNK N   1      31.706  20.001  -4.825  0.00  0.00     0.008 A 
HETATM   20  C   UNK N   1      32.928  19.935  -4.147  0.00  0.00    -0.062 A 
HETATM   21  C   UNK N   1      33.249  20.901  -3.188  0.00  0.00     0.008 A 
HETATM   22  C   UNK N   1      33.884  18.839  -4.447  0.00  0.00     0.048 C 
HETATM   23  C   UNK N   1      32.349  21.933  -2.907  0.00  0.00     0.026 A 
ENDBRANCH  14  17
ENDBRANCH   1  14
TORSDOF 9
ENDMDL
