MODEL 1
REMARK VINA RESULT:      -6.5      0.000      0.000
REMARK  10 active torsions:
REMARK  status: ('A' for Active; 'I' for Inactive)
REMARK    1  A    between atoms: C_1  and  C_2 
REMARK    2  A    between atoms: C_2  and  C_3 
REMARK    3  A    between atoms: C_2  and  C_5 
REMARK    4  A    between atoms: C_3  and  C_4 
REMARK    5  A    between atoms: C_3  and  C_14 
REMARK    6  A    between atoms: C_4  and  O_8 
REMARK    7  A    between atoms: S_12  and  N_13 
REMARK    8  A    between atoms: S_12  and  C_15 
REMARK    9  A    between atoms: N_13  and  C_14 
REMARK   10  A    between atoms: C_20  and  N_21 
ROOT
HETATM    1  N   UNK N   1      34.022  16.062  10.512  0.00  0.00    -0.315 N 
HETATM    2  H   UNK N   1      33.416  16.442  11.239  0.00  0.00     0.172 HD
ENDROOT
BRANCH   1   3
HETATM    3  S   UNK N   1      35.530  15.167  10.834  0.00  0.00     0.258 S 
HETATM    4  O   UNK N   1      36.642  16.227  10.797  0.00  0.00    -0.201 OA
HETATM    5  O   UNK N   1      35.845  14.334   9.581  0.00  0.00    -0.201 OA
BRANCH   3   6
HETATM    6  C   UNK N   1      35.706  14.251  12.353  0.00  0.00     0.079 A 
HETATM    7  C   UNK N   1      36.399  14.803  13.433  0.00  0.00     0.028 A 
HETATM    8  C   UNK N   1      36.440  14.128  14.655  0.00  0.00     0.037 A 
HETATM    9  C   UNK N   1      35.775  12.901  14.809  0.00  0.00     0.102 A 
HETATM   10  C   UNK N   1      35.083  12.352  13.718  0.00  0.00     0.037 A 
HETATM   11  C   UNK N   1      35.044  13.029  12.498  0.00  0.00     0.028 A 
BRANCH   9  12
HETATM   12  N   UNK N   1      35.792  12.230  16.063  0.00  0.00    -0.116 N 
HETATM   13  O   UNK N   1      35.102  12.705  17.078  0.00  0.00    -0.532 OA
HETATM   14  O   UNK N   1      36.412  11.217  16.197  0.00  0.00    -0.532 OA
ENDBRANCH   9  12
ENDBRANCH   3   6
ENDBRANCH   1   3
BRANCH   1  15
HETATM   15  C   UNK N   1      33.760  16.185   9.073  0.00  0.00     0.148 C 
BRANCH  15  16
HETATM   16  C   UNK N   1      33.273  17.589   8.648  0.00  0.00     0.112 C 
BRANCH  16  17
HETATM   17  C   UNK N   1      31.890  17.590   7.925  0.00  0.00     0.062 C 
BRANCH  17  18
HETATM   18  C   UNK N   1      30.789  18.087   8.820  0.00  0.00     0.236 C 
HETATM   19  O   UNK N   1      29.920  17.333   9.229  0.00  0.00    -0.306 OA
ENDBRANCH  17  18
BRANCH  17  20
HETATM   20  C   UNK N   1      31.511  16.197   7.404  0.00  0.00     0.008 C 
HETATM   21  C   UNK N   1      30.907  16.269   6.007  0.00  0.00     0.006 C 
ENDBRANCH  17  20
ENDBRANCH  16  17
BRANCH  16  22
HETATM   22  C   UNK N   1      34.378  18.253   7.853  0.00  0.00     0.146 C 
HETATM   23  O   UNK N   1      34.516  18.043   6.659  0.00  0.00    -0.650 OA
BRANCH  22  24
HETATM   24  O   UNK N   1      35.212  19.114   8.470  0.00  0.00    -0.776 OA
HETATM   25  H   UNK N   1      34.865  19.811   8.991  0.00  0.00     0.167 HD
ENDBRANCH  22  24
ENDBRANCH  16  22
ENDBRANCH  15  16
ENDBRANCH   1  15
TORSDOF 10
ENDMDL
MODEL 2
REMARK VINA RESULT:      -6.5      5.415      8.137
REMARK  10 active torsions:
REMARK  status: ('A' for Active; 'I' for Inactive)
REMARK    1  A    between atoms: C_1  and  C_2 
REMARK    2  A    between atoms: C_2  and  C_3 
REMARK    3  A    between atoms: C_2  and  C_5 
REMARK    4  A    between atoms: C_3  and  C_4 
REMARK    5  A    between atoms: C_3  and  C_14 
REMARK    6  A    between atoms: C_4  and  O_8 
REMARK    7  A    between atoms: S_12  and  N_13 
REMARK    8  A    between atoms: S_12  and  C_15 
REMARK    9  A    between atoms: N_13  and  C_14 
REMARK   10  A    between atoms: C_20  and  N_21 
ROOT
HETATM    1  N   UNK N   1      28.583  16.735   5.943  0.00  0.00    -0.315 N 
HETATM    2  H   UNK N   1      27.814  16.166   6.297  0.00  0.00     0.172 HD
ENDROOT
BRANCH   1   3
HETATM    3  S   UNK N   1      30.201  16.098   5.549  0.00  0.00     0.258 S 
HETATM    4  O   UNK N   1      30.454  16.516   4.093  0.00  0.00    -0.201 OA
HETATM    5  O   UNK N   1      30.074  14.571   5.423  0.00  0.00    -0.201 OA
BRANCH   3   6
HETATM    6  C   UNK N   1      31.610  16.610   6.513  0.00  0.00     0.079 A 
HETATM    7  C   UNK N   1      32.819  16.922   5.885  0.00  0.00     0.028 A 
HETATM    8  C   UNK N   1      33.885  17.426   6.632  0.00  0.00     0.037 A 
HETATM    9  C   UNK N   1      33.745  17.636   8.014  0.00  0.00     0.102 A 
HETATM   10  C   UNK N   1      32.528  17.318   8.637  0.00  0.00     0.037 A 
HETATM   11  C   UNK N   1      31.465  16.813   7.888  0.00  0.00     0.028 A 
BRANCH   9  12
HETATM   12  N   UNK N   1      34.821  18.179   8.768  0.00  0.00    -0.116 N 
HETATM   13  O   UNK N   1      35.349  19.336   8.430  0.00  0.00    -0.532 OA
HETATM   14  O   UNK N   1      35.237  17.601   9.728  0.00  0.00    -0.532 OA
ENDBRANCH   9  12
ENDBRANCH   3   6
ENDBRANCH   1   3
BRANCH   1  15
HETATM   15  C   UNK N   1      28.494  18.180   5.698  0.00  0.00     0.148 C 
BRANCH  15  16
HETATM   16  C   UNK N   1      27.648  18.549   4.458  0.00  0.00     0.112 C 
BRANCH  16  17
HETATM   17  C   UNK N   1      26.679  19.751   4.683  0.00  0.00     0.062 C 
BRANCH  17  18
HETATM   18  C   UNK N   1      26.130  20.280   3.388  0.00  0.00     0.236 C 
HETATM   19  O   UNK N   1      24.954  20.593   3.282  0.00  0.00    -0.306 OA
ENDBRANCH  17  18
BRANCH  17  20
HETATM   20  C   UNK N   1      27.356  20.903   5.439  0.00  0.00     0.008 C 
HETATM   21  C   UNK N   1      26.543  21.326   6.655  0.00  0.00     0.006 C 
ENDBRANCH  17  20
ENDBRANCH  16  17
BRANCH  16  22
HETATM   22  C   UNK N   1      26.960  17.294   3.963  0.00  0.00     0.146 C 
HETATM   23  O   UNK N   1      25.852  16.976   4.365  0.00  0.00    -0.650 OA
BRANCH  22  24
HETATM   24  O   UNK N   1      27.570  16.523   3.041  0.00  0.00    -0.776 OA
HETATM   25  H   UNK N   1      28.503  16.547   2.954  0.00  0.00     0.167 HD
ENDBRANCH  22  24
ENDBRANCH  16  22
ENDBRANCH  15  16
ENDBRANCH   1  15
TORSDOF 10
ENDMDL
MODEL 3
REMARK VINA RESULT:      -6.5      2.741      8.388
REMARK  10 active torsions:
REMARK  status: ('A' for Active; 'I' for Inactive)
REMARK    1  A    between atoms: C_1  and  C_2 
REMARK    2  A    between atoms: C_2  and  C_3 
REMARK    3  A    between atoms: C_2  and  C_5 
REMARK    4  A    between atoms: C_3  and  C_4 
REMARK    5  A    between atoms: C_3  and  C_14 
REMARK    6  A    between atoms: C_4  and  O_8 
REMARK    7  A    between atoms: S_12  and  N_13 
REMARK    8  A    between atoms: S_12  and  C_15 
REMARK    9  A    between atoms: N_13  and  C_14 
REMARK   10  A    between atoms: C_20  and  N_21 
ROOT
HETATM    1  N   UNK N   1      37.084  13.301  12.882  0.00  0.00    -0.315 N 
HETATM    2  H   UNK N   1      37.744  14.067  13.022  0.00  0.00     0.172 HD
ENDROOT
BRANCH   1   3
HETATM    3  S   UNK N   1      35.642  13.401  11.839  0.00  0.00     0.258 S 
HETATM    4  O   UNK N   1      34.446  13.373  12.802  0.00  0.00    -0.201 OA
HETATM    5  O   UNK N   1      35.502  12.050  11.120  0.00  0.00    -0.201 OA
BRANCH   3   6
HETATM    6  C   UNK N   1      35.433  14.801  10.754  0.00  0.00     0.079 A 
HETATM    7  C   UNK N   1      35.029  14.613   9.430  0.00  0.00     0.028 A 
HETATM    8  C   UNK N   1      34.761  15.717   8.618  0.00  0.00     0.037 A 
HETATM    9  C   UNK N   1      34.883  17.019   9.130  0.00  0.00     0.102 A 
HETATM   10  C   UNK N   1      35.292  17.199  10.460  0.00  0.00     0.037 A 
HETATM   11  C   UNK N   1      35.559  16.093  11.270  0.00  0.00     0.028 A 
BRANCH   9  12
HETATM   12  N   UNK N   1      34.580  18.141   8.311  0.00  0.00    -0.116 N 
HETATM   13  O   UNK N   1      35.254  19.263   8.449  0.00  0.00    -0.532 OA
HETATM   14  O   UNK N   1      33.729  18.066   7.475  0.00  0.00    -0.532 OA
ENDBRANCH   9  12
ENDBRANCH   3   6
ENDBRANCH   1   3
BRANCH   1  15
HETATM   15  C   UNK N   1      37.207  11.982  13.515  0.00  0.00     0.148 C 
BRANCH  15  16
HETATM   16  C   UNK N   1      37.037  12.011  15.050  0.00  0.00     0.112 C 
BRANCH  16  17
HETATM   17  C   UNK N   1      36.051  10.934  15.602  0.00  0.00     0.062 C 
BRANCH  17  18
HETATM   18  C   UNK N   1      36.775   9.808  16.285  0.00  0.00     0.236 C 
HETATM   19  O   UNK N   1      37.665   9.193  15.717  0.00  0.00    -0.306 OA
ENDBRANCH  17  18
BRANCH  17  20
HETATM   20  C   UNK N   1      35.161  10.349  14.496  0.00  0.00     0.008 C 
HETATM   21  C   UNK N   1      33.694  10.690  14.724  0.00  0.00     0.006 C 
ENDBRANCH  17  20
ENDBRANCH  16  17
BRANCH  16  22
HETATM   22  C   UNK N   1      36.687  13.426  15.462  0.00  0.00     0.146 C 
HETATM   23  O   UNK N   1      35.553  13.729  15.797  0.00  0.00    -0.650 OA
BRANCH  22  24
HETATM   24  O   UNK N   1      37.652  14.368  15.484  0.00  0.00    -0.776 OA
HETATM   25  H   UNK N   1      38.549  14.117  15.585  0.00  0.00     0.167 HD
ENDBRANCH  22  24
ENDBRANCH  16  22
ENDBRANCH  15  16
ENDBRANCH   1  15
TORSDOF 10
ENDMDL
MODEL 4
REMARK VINA RESULT:      -6.5     12.252     15.740
REMARK  10 active torsions:
REMARK  status: ('A' for Active; 'I' for Inactive)
REMARK    1  A    between atoms: C_1  and  C_2 
REMARK    2  A    between atoms: C_2  and  C_3 
REMARK    3  A    between atoms: C_2  and  C_5 
REMARK    4  A    between atoms: C_3  and  C_4 
REMARK    5  A    between atoms: C_3  and  C_14 
REMARK    6  A    between atoms: C_4  and  O_8 
REMARK    7  A    between atoms: S_12  and  N_13 
REMARK    8  A    between atoms: S_12  and  C_15 
REMARK    9  A    between atoms: N_13  and  C_14 
REMARK   10  A    between atoms: C_20  and  N_21 
ROOT
HETATM    1  N   UNK N   1      20.042  18.867   1.917  0.00  0.00    -0.315 N 
HETATM    2  H   UNK N   1      19.428  19.004   1.113  0.00  0.00     0.172 HD
ENDROOT
BRANCH   1   3
HETATM    3  S   UNK N   1      21.049  20.151   2.635  0.00  0.00     0.258 S 
HETATM    4  O   UNK N   1      20.268  20.634   3.866  0.00  0.00    -0.201 OA
HETATM    5  O   UNK N   1      20.966  21.373   1.707  0.00  0.00    -0.201 OA
BRANCH   3   6
HETATM    6  C   UNK N   1      22.712  19.777   3.161  0.00  0.00     0.079 A 
HETATM    7  C   UNK N   1      23.775  20.592   2.765  0.00  0.00     0.028 A 
HETATM    8  C   UNK N   1      25.057  20.359   3.267  0.00  0.00     0.037 A 
HETATM    9  C   UNK N   1      25.282  19.316   4.181  0.00  0.00     0.102 A 
HETATM   10  C   UNK N   1      24.208  18.501   4.571  0.00  0.00     0.037 A 
HETATM   11  C   UNK N   1      22.927  18.735   4.066  0.00  0.00     0.028 A 
BRANCH   9  12
HETATM   12  N   UNK N   1      26.582  19.099   4.715  0.00  0.00    -0.116 N 
HETATM   13  O   UNK N   1      27.603  19.804   4.278  0.00  0.00    -0.532 OA
HETATM   14  O   UNK N   1      26.752  18.293   5.581  0.00  0.00    -0.532 OA
ENDBRANCH   9  12
ENDBRANCH   3   6
ENDBRANCH   1   3
BRANCH   1  15
HETATM   15  C   UNK N   1      20.203  17.590   2.622  0.00  0.00     0.148 C 
BRANCH  15  16
HETATM   16  C   UNK N   1      20.072  16.353   1.706  0.00  0.00     0.112 C 
BRANCH  16  17
HETATM   17  C   UNK N   1      21.350  15.458   1.658  0.00  0.00     0.062 C 
BRANCH  17  18
HETATM   18  C   UNK N   1      21.075  14.120   1.031  0.00  0.00     0.236 C 
HETATM   19  O   UNK N   1      20.060  13.494   1.299  0.00  0.00    -0.306 OA
ENDBRANCH  17  18
BRANCH  17  20
HETATM   20  C   UNK N   1      21.949  15.235   3.053  0.00  0.00     0.008 C 
HETATM   21  C   UNK N   1      23.462  15.066   2.989  0.00  0.00     0.006 C 
ENDBRANCH  17  20
ENDBRANCH  16  17
BRANCH  16  22
HETATM   22  C   UNK N   1      19.602  16.819   0.343  0.00  0.00     0.146 C 
HETATM   23  O   UNK N   1      20.376  17.310  -0.462  0.00  0.00    -0.650 OA
BRANCH  22  24
HETATM   24  O   UNK N   1      18.307  16.667   0.002  0.00  0.00    -0.776 OA
HETATM   25  H   UNK N   1      17.771  16.049   0.459  0.00  0.00     0.167 HD
ENDBRANCH  22  24
ENDBRANCH  16  22
ENDBRANCH  15  16
ENDBRANCH   1  15
TORSDOF 10
ENDMDL
MODEL 5
REMARK VINA RESULT:      -6.3      2.720      8.146
REMARK  10 active torsions:
REMARK  status: ('A' for Active; 'I' for Inactive)
REMARK    1  A    between atoms: C_1  and  C_2 
REMARK    2  A    between atoms: C_2  and  C_3 
REMARK    3  A    between atoms: C_2  and  C_5 
REMARK    4  A    between atoms: C_3  and  C_4 
REMARK    5  A    between atoms: C_3  and  C_14 
REMARK    6  A    between atoms: C_4  and  O_8 
REMARK    7  A    between atoms: S_12  and  N_13 
REMARK    8  A    between atoms: S_12  and  C_15 
REMARK    9  A    between atoms: N_13  and  C_14 
REMARK   10  A    between atoms: C_20  and  N_21 
ROOT
HETATM    1  N   UNK N   1      34.627  12.753  12.518  0.00  0.00    -0.315 N 
HETATM    2  H   UNK N   1      34.120  13.463  13.046  0.00  0.00     0.172 HD
ENDROOT
BRANCH   1   3
HETATM    3  S   UNK N   1      35.019  12.884  10.784  0.00  0.00     0.258 S 
HETATM    4  O   UNK N   1      34.122  11.850  10.089  0.00  0.00    -0.201 OA
HETATM    5  O   UNK N   1      36.417  12.278  10.583  0.00  0.00    -0.201 OA
BRANCH   3   6
HETATM    6  C   UNK N   1      34.800  14.443   9.945  0.00  0.00     0.079 A 
HETATM    7  C   UNK N   1      35.019  15.645  10.623  0.00  0.00     0.028 A 
HETATM    8  C   UNK N   1      34.953  16.857   9.933  0.00  0.00     0.037 A 
HETATM    9  C   UNK N   1      34.680  16.875   8.556  0.00  0.00     0.102 A 
HETATM   10  C   UNK N   1      34.458  15.663   7.884  0.00  0.00     0.037 A 
HETATM   11  C   UNK N   1      34.525  14.452   8.576  0.00  0.00     0.028 A 
BRANCH   9  12
HETATM   12  N   UNK N   1      34.643  18.108   7.849  0.00  0.00    -0.116 N 
HETATM   13  O   UNK N   1      35.041  19.218   8.433  0.00  0.00    -0.532 OA
HETATM   14  O   UNK N   1      34.273  18.142   6.713  0.00  0.00    -0.532 OA
ENDBRANCH   9  12
ENDBRANCH   3   6
ENDBRANCH   1   3
BRANCH   1  15
HETATM   15  C   UNK N   1      35.122  11.496  13.093  0.00  0.00     0.148 C 
BRANCH  15  16
HETATM   16  C   UNK N   1      35.933  11.685  14.395  0.00  0.00     0.112 C 
BRANCH  16  17
HETATM   17  C   UNK N   1      35.505  12.928  15.237  0.00  0.00     0.062 C 
BRANCH  17  18
HETATM   18  C   UNK N   1      36.626  13.919  15.385  0.00  0.00     0.236 C 
HETATM   19  O   UNK N   1      36.787  14.814  14.570  0.00  0.00    -0.306 OA
ENDBRANCH  17  18
BRANCH  17  20
HETATM   20  C   UNK N   1      35.009  12.532  16.634  0.00  0.00     0.008 C 
HETATM   21  C   UNK N   1      35.230  13.653  17.642  0.00  0.00     0.006 C 
ENDBRANCH  17  20
ENDBRANCH  16  17
BRANCH  16  22
HETATM   22  C   UNK N   1      37.407  11.665  14.042  0.00  0.00     0.146 C 
HETATM   23  O   UNK N   1      38.203  10.992  14.677  0.00  0.00    -0.650 OA
BRANCH  22  24
HETATM   24  O   UNK N   1      37.846  12.387  12.992  0.00  0.00    -0.776 OA
HETATM   25  H   UNK N   1      38.232  11.954  12.255  0.00  0.00     0.167 HD
ENDBRANCH  22  24
ENDBRANCH  16  22
ENDBRANCH  15  16
ENDBRANCH   1  15
TORSDOF 10
ENDMDL
MODEL 6
REMARK VINA RESULT:      -6.3      7.187     12.704
REMARK  10 active torsions:
REMARK  status: ('A' for Active; 'I' for Inactive)
REMARK    1  A    between atoms: C_1  and  C_2 
REMARK    2  A    between atoms: C_2  and  C_3 
REMARK    3  A    between atoms: C_2  and  C_5 
REMARK    4  A    between atoms: C_3  and  C_4 
REMARK    5  A    between atoms: C_3  and  C_14 
REMARK    6  A    between atoms: C_4  and  O_8 
REMARK    7  A    between atoms: S_12  and  N_13 
REMARK    8  A    between atoms: S_12  and  C_15 
REMARK    9  A    between atoms: N_13  and  C_14 
REMARK   10  A    between atoms: C_20  and  N_21 
ROOT
HETATM    1  N   UNK N   1      27.128  18.669   6.668  0.00  0.00    -0.315 N 
HETATM    2  H   UNK N   1      26.599  19.131   7.408  0.00  0.00     0.172 HD
ENDROOT
BRANCH   1   3
HETATM    3  S   UNK N   1      26.949  19.035   4.932  0.00  0.00     0.258 S 
HETATM    4  O   UNK N   1      27.615  17.859   4.203  0.00  0.00    -0.201 OA
HETATM    5  O   UNK N   1      27.906  20.193   4.606  0.00  0.00    -0.201 OA
BRANCH   3   6
HETATM    6  C   UNK N   1      25.321  19.251   4.239  0.00  0.00     0.079 A 
HETATM    7  C   UNK N   1      24.268  18.426   4.644  0.00  0.00     0.028 A 
HETATM    8  C   UNK N   1      22.973  18.670   4.181  0.00  0.00     0.037 A 
HETATM    9  C   UNK N   1      22.719  19.749   3.319  0.00  0.00     0.102 A 
HETATM   10  C   UNK N   1      23.784  20.571   2.916  0.00  0.00     0.037 A 
HETATM   11  C   UNK N   1      25.077  20.325   3.380  0.00  0.00     0.028 A 
BRANCH   9  12
HETATM   12  N   UNK N   1      21.396  20.014   2.873  0.00  0.00    -0.116 N 
HETATM   13  O   UNK N   1      20.876  19.313   1.888  0.00  0.00    -0.532 OA
HETATM   14  O   UNK N   1      20.736  20.857   3.406  0.00  0.00    -0.532 OA
ENDBRANCH   9  12
ENDBRANCH   3   6
ENDBRANCH   1   3
BRANCH   1  15
HETATM   15  C   UNK N   1      28.130  17.622   6.902  0.00  0.00     0.148 C 
BRANCH  15  16
HETATM   16  C   UNK N   1      29.298  18.071   7.808  0.00  0.00     0.112 C 
BRANCH  16  17
HETATM   17  C   UNK N   1      30.544  17.132   7.752  0.00  0.00     0.062 C 
BRANCH  17  18
HETATM   18  C   UNK N   1      31.817  17.870   8.059  0.00  0.00     0.236 C 
HETATM   19  O   UNK N   1      32.654  17.397   8.813  0.00  0.00    -0.306 OA
ENDBRANCH  17  18
BRANCH  17  20
HETATM   20  C   UNK N   1      30.688  16.449   6.385  0.00  0.00     0.008 C 
HETATM   21  C   UNK N   1      31.331  15.074   6.515  0.00  0.00     0.006 C 
ENDBRANCH  17  20
ENDBRANCH  16  17
BRANCH  16  22
HETATM   22  C   UNK N   1      28.759  18.285   9.208  0.00  0.00     0.146 C 
HETATM   23  O   UNK N   1      29.459  18.743  10.096  0.00  0.00    -0.650 OA
BRANCH  22  24
HETATM   24  O   UNK N   1      27.471  17.987   9.474  0.00  0.00    -0.776 OA
HETATM   25  H   UNK N   1      27.061  18.328  10.245  0.00  0.00     0.167 HD
ENDBRANCH  22  24
ENDBRANCH  16  22
ENDBRANCH  15  16
ENDBRANCH   1  15
TORSDOF 10
ENDMDL
MODEL 7
REMARK VINA RESULT:      -6.3      2.717      4.024
REMARK  10 active torsions:
REMARK  status: ('A' for Active; 'I' for Inactive)
REMARK    1  A    between atoms: C_1  and  C_2 
REMARK    2  A    between atoms: C_2  and  C_3 
REMARK    3  A    between atoms: C_2  and  C_5 
REMARK    4  A    between atoms: C_3  and  C_4 
REMARK    5  A    between atoms: C_3  and  C_14 
REMARK    6  A    between atoms: C_4  and  O_8 
REMARK    7  A    between atoms: S_12  and  N_13 
REMARK    8  A    between atoms: S_12  and  C_15 
REMARK    9  A    between atoms: N_13  and  C_14 
REMARK   10  A    between atoms: C_20  and  N_21 
ROOT
HETATM    1  N   UNK N   1      32.466  18.246   8.100  0.00  0.00    -0.315 N 
HETATM    2  H   UNK N   1      32.119  19.167   7.833  0.00  0.00     0.172 HD
ENDROOT
BRANCH   1   3
HETATM    3  S   UNK N   1      34.190  17.791   8.114  0.00  0.00     0.258 S 
HETATM    4  O   UNK N   1      34.948  19.095   8.404  0.00  0.00    -0.201 OA
HETATM    5  O   UNK N   1      34.600  17.503   6.660  0.00  0.00    -0.201 OA
BRANCH   3   6
HETATM    6  C   UNK N   1      34.769  16.560   9.266  0.00  0.00     0.079 A 
HETATM    7  C   UNK N   1      35.236  16.939  10.527  0.00  0.00     0.028 A 
HETATM    8  C   UNK N   1      35.585  15.965  11.464  0.00  0.00     0.037 A 
HETATM    9  C   UNK N   1      35.456  14.602  11.152  0.00  0.00     0.102 A 
HETATM   10  C   UNK N   1      34.988  14.230   9.882  0.00  0.00     0.037 A 
HETATM   11  C   UNK N   1      34.640  15.206   8.946  0.00  0.00     0.028 A 
BRANCH   9  12
HETATM   12  N   UNK N   1      35.782  13.611  12.118  0.00  0.00    -0.116 N 
HETATM   13  O   UNK N   1      34.980  13.391  13.138  0.00  0.00    -0.532 OA
HETATM   14  O   UNK N   1      36.774  12.954  11.998  0.00  0.00    -0.532 OA
ENDBRANCH   9  12
ENDBRANCH   3   6
ENDBRANCH   1   3
BRANCH   1  15
HETATM   15  C   UNK N   1      31.607  17.132   8.520  0.00  0.00     0.148 C 
BRANCH  15  16
HETATM   16  C   UNK N   1      30.117  17.326   8.160  0.00  0.00     0.112 C 
BRANCH  16  17
HETATM   17  C   UNK N   1      29.858  17.590   6.644  0.00  0.00     0.062 C 
BRANCH  17  18
HETATM   18  C   UNK N   1      28.405  17.442   6.288  0.00  0.00     0.236 C 
HETATM   19  O   UNK N   1      27.700  16.618   6.849  0.00  0.00    -0.306 OA
ENDBRANCH  17  18
BRANCH  17  20
HETATM   20  C   UNK N   1      30.683  16.656   5.748  0.00  0.00     0.008 C 
HETATM   21  C   UNK N   1      31.417  17.431   4.661  0.00  0.00     0.006 C 
ENDBRANCH  17  20
ENDBRANCH  16  17
BRANCH  16  22
HETATM   22  C   UNK N   1      29.543  18.391   9.072  0.00  0.00     0.146 C 
HETATM   23  O   UNK N   1      30.237  19.294   9.510  0.00  0.00    -0.650 OA
BRANCH  22  24
HETATM   24  O   UNK N   1      28.233  18.356   9.389  0.00  0.00    -0.776 OA
HETATM   25  H   UNK N   1      27.874  17.603   9.815  0.00  0.00     0.167 HD
ENDBRANCH  22  24
ENDBRANCH  16  22
ENDBRANCH  15  16
ENDBRANCH   1  15
TORSDOF 10
ENDMDL
MODEL 8
REMARK VINA RESULT:      -6.2     17.195     20.007
REMARK  10 active torsions:
REMARK  status: ('A' for Active; 'I' for Inactive)
REMARK    1  A    between atoms: C_1  and  C_2 
REMARK    2  A    between atoms: C_2  and  C_3 
REMARK    3  A    between atoms: C_2  and  C_5 
REMARK    4  A    between atoms: C_3  and  C_4 
REMARK    5  A    between atoms: C_3  and  C_14 
REMARK    6  A    between atoms: C_4  and  O_8 
REMARK    7  A    between atoms: S_12  and  N_13 
REMARK    8  A    between atoms: S_12  and  C_15 
REMARK    9  A    between atoms: N_13  and  C_14 
REMARK   10  A    between atoms: C_20  and  N_21 
ROOT
HETATM    1  N   UNK N   1      26.222  27.368  -5.842  0.00  0.00    -0.315 N 
HETATM    2  H   UNK N   1      25.378  27.937  -5.902  0.00  0.00     0.172 HD
ENDROOT
BRANCH   1   3
HETATM    3  S   UNK N   1      26.233  25.586  -5.893  0.00  0.00     0.258 S 
HETATM    4  O   UNK N   1      26.456  25.227  -7.369  0.00  0.00    -0.201 OA
HETATM    5  O   UNK N   1      24.788  25.112  -5.666  0.00  0.00    -0.201 OA
BRANCH   3   6
HETATM    6  C   UNK N   1      27.431  24.683  -4.928  0.00  0.00     0.079 A 
HETATM    7  C   UNK N   1      28.595  24.195  -5.528  0.00  0.00     0.028 A 
HETATM    8  C   UNK N   1      29.579  23.585  -4.747  0.00  0.00     0.037 A 
HETATM    9  C   UNK N   1      29.412  23.471  -3.357  0.00  0.00     0.102 A 
HETATM   10  C   UNK N   1      28.238  23.962  -2.764  0.00  0.00     0.037 A 
HETATM   11  C   UNK N   1      27.255  24.571  -3.547  0.00  0.00     0.028 A 
BRANCH   9  12
HETATM   12  N   UNK N   1      30.428  22.878  -2.560  0.00  0.00    -0.116 N 
HETATM   13  O   UNK N   1      31.453  22.281  -3.130  0.00  0.00    -0.532 OA
HETATM   14  O   UNK N   1      30.373  22.938  -1.367  0.00  0.00    -0.532 OA
ENDBRANCH   9  12
ENDBRANCH   3   6
ENDBRANCH   1   3
BRANCH   1  15
HETATM   15  C   UNK N   1      27.577  27.916  -5.704  0.00  0.00     0.148 C 
BRANCH  15  16
HETATM   16  C   UNK N   1      27.812  28.665  -4.373  0.00  0.00     0.112 C 
BRANCH  16  17
HETATM   17  C   UNK N   1      28.946  28.056  -3.491  0.00  0.00     0.062 C 
BRANCH  17  18
HETATM   18  C   UNK N   1      29.643  29.104  -2.670  0.00  0.00     0.236 C 
HETATM   19  O   UNK N   1      29.483  30.294  -2.898  0.00  0.00    -0.306 OA
ENDBRANCH  17  18
BRANCH  17  20
HETATM   20  C   UNK N   1      29.993  27.313  -4.333  0.00  0.00     0.008 C 
HETATM   21  C   UNK N   1      31.102  26.738  -3.461  0.00  0.00     0.006 C 
ENDBRANCH  17  20
ENDBRANCH  16  17
BRANCH  16  22
HETATM   22  C   UNK N   1      26.482  28.789  -3.657  0.00  0.00     0.146 C 
HETATM   23  O   UNK N   1      26.056  27.891  -2.949  0.00  0.00    -0.650 OA
BRANCH  22  24
HETATM   24  O   UNK N   1      25.764  29.923  -3.785  0.00  0.00    -0.776 OA
HETATM   25  H   UNK N   1      25.922  30.645  -3.208  0.00  0.00     0.167 HD
ENDBRANCH  22  24
ENDBRANCH  16  22
ENDBRANCH  15  16
ENDBRANCH   1  15
TORSDOF 10
ENDMDL
MODEL 9
REMARK VINA RESULT:      -6.2      3.454      7.713
REMARK  10 active torsions:
REMARK  status: ('A' for Active; 'I' for Inactive)
REMARK    1  A    between atoms: C_1  and  C_2 
REMARK    2  A    between atoms: C_2  and  C_3 
REMARK    3  A    between atoms: C_2  and  C_5 
REMARK    4  A    between atoms: C_3  and  C_4 
REMARK    5  A    between atoms: C_3  and  C_14 
REMARK    6  A    between atoms: C_4  and  O_8 
REMARK    7  A    between atoms: S_12  and  N_13 
REMARK    8  A    between atoms: S_12  and  C_15 
REMARK    9  A    between atoms: N_13  and  C_14 
REMARK   10  A    between atoms: C_20  and  N_21 
ROOT
HETATM    1  N   UNK N   1      34.906  16.365   9.084  0.00  0.00    -0.315 N 
HETATM    2  H   UNK N   1      35.000  16.796  10.004  0.00  0.00     0.172 HD
ENDROOT
BRANCH   1   3
HETATM    3  S   UNK N   1      34.237  17.192   7.654  0.00  0.00     0.258 S 
HETATM    4  O   UNK N   1      34.926  16.534   6.450  0.00  0.00    -0.201 OA
HETATM    5  O   UNK N   1      34.832  18.609   7.624  0.00  0.00    -0.201 OA
BRANCH   3   6
HETATM    6  C   UNK N   1      32.479  17.160   7.358  0.00  0.00     0.079 A 
HETATM    7  C   UNK N   1      31.583  17.288   8.422  0.00  0.00     0.028 A 
HETATM    8  C   UNK N   1      30.211  17.372   8.173  0.00  0.00     0.037 A 
HETATM    9  C   UNK N   1      29.727  17.341   6.855  0.00  0.00     0.102 A 
HETATM   10  C   UNK N   1      30.634  17.209   5.792  0.00  0.00     0.037 A 
HETATM   11  C   UNK N   1      32.005  17.125   6.044  0.00  0.00     0.028 A 
BRANCH   9  12
HETATM   12  N   UNK N   1      28.332  17.458   6.602  0.00  0.00    -0.116 N 
HETATM   13  O   UNK N   1      27.898  18.235   5.633  0.00  0.00    -0.532 OA
HETATM   14  O   UNK N   1      27.547  16.832   7.250  0.00  0.00    -0.532 OA
ENDBRANCH   9  12
ENDBRANCH   3   6
ENDBRANCH   1   3
BRANCH   1  15
HETATM   15  C   UNK N   1      35.304  14.985   8.777  0.00  0.00     0.148 C 
BRANCH  15  16
HETATM   16  C   UNK N   1      34.527  13.920   9.582  0.00  0.00     0.112 C 
BRANCH  16  17
HETATM   17  C   UNK N   1      33.444  13.160   8.753  0.00  0.00     0.062 C 
BRANCH  17  18
HETATM   18  C   UNK N   1      33.306  11.728   9.189  0.00  0.00     0.236 C 
HETATM   19  O   UNK N   1      32.209  11.198   9.275  0.00  0.00    -0.306 OA
ENDBRANCH  17  18
BRANCH  17  20
HETATM   20  C   UNK N   1      33.746  13.191   7.249  0.00  0.00     0.008 C 
HETATM   21  C   UNK N   1      32.512  13.574   6.441  0.00  0.00     0.006 C 
ENDBRANCH  17  20
ENDBRANCH  16  17
BRANCH  16  22
HETATM   22  C   UNK N   1      33.987  14.574  10.837  0.00  0.00     0.146 C 
HETATM   23  O   UNK N   1      34.675  14.692  11.839  0.00  0.00    -0.650 OA
BRANCH  22  24
HETATM   24  O   UNK N   1      32.729  15.058  10.843  0.00  0.00    -0.776 OA
HETATM   25  H   UNK N   1      32.295  15.245  10.034  0.00  0.00     0.167 HD
ENDBRANCH  22  24
ENDBRANCH  16  22
ENDBRANCH  15  16
ENDBRANCH   1  15
TORSDOF 10
ENDMDL
