MODEL 1
REMARK VINA RESULT:      -6.5      0.000      0.000
REMARK  7 active torsions:
REMARK  status: ('A' for Active; 'I' for Inactive)
REMARK       I    between atoms: C_1  and  N_20 
REMARK    1  A    between atoms: C_2  and  N_23 
REMARK    2  A    between atoms: C_5  and  C_9 
REMARK    3  A    between atoms: C_9  and  N_24 
REMARK    4  A    between atoms: C_10  and  N_24 
REMARK    5  A    between atoms: C_12  and  O_25 
REMARK    6  A    between atoms: C_14  and  O_26 
REMARK    7  A    between atoms: C_16  and  O_27 
ROOT
HETATM    1  C   UNK N   1      23.305  11.648  12.364  0.00  0.00     0.283 A 
HETATM    2  C   UNK N   1      21.358  12.235  11.025  0.00  0.00     0.105 A 
HETATM    3  C   UNK N   1      22.205  12.436   9.835  0.00  0.00     0.008 A 
HETATM    4  C   UNK N   1      21.644  12.901   8.517  0.00  0.00     0.050 C 
HETATM    5  C   UNK N   1      22.464  14.118   8.072  0.00  0.00     0.008 C 
HETATM    6  C   UNK N   1      23.992  13.856   8.078  0.00  0.00     0.012 C 
HETATM    7  C   UNK N   1      24.394  12.528   8.745  0.00  0.00     0.058 C 
HETATM    8  C   UNK N   1      23.526  12.260   9.938  0.00  0.00     0.018 A 
HETATM    9  N   UNK N   1      24.100  11.869  11.170  0.00  0.00    -0.356 N 
HETATM   10  N   UNK N   1      23.779  12.529  13.416  0.00  0.00    -0.395 N 
HETATM   11  N   UNK N   1      21.880  11.880  12.153  0.00  0.00    -0.339 N 
ATOM     12  HN  UNK N   1      21.254  11.752  12.948  1.00  0.00     0.165 HD
HETATM   13  H   UNK N   1      25.075  11.743  11.220  0.00  0.00     0.163 HD
HETATM   14  H   UNK N   1      23.462  13.277  14.033  0.00  0.00     0.153 HD
HETATM   15  H   UNK N   1      24.763  12.336  13.597  0.00  0.00     0.153 HD
ENDROOT
BRANCH   5  16
HETATM   16  C   UNK N   1      21.992  14.678   6.735  0.00  0.00     0.127 C 
BRANCH  16  17
HETATM   17  N   UNK N   1      21.405  16.009   6.762  0.00  0.00    -0.385 N 
HETATM   18  C   UNK N   1      20.046  16.170   7.228  0.00  0.00     0.149 C 
BRANCH  17  19
HETATM   19  C   UNK N   1      21.974  17.003   5.914  0.00  0.00     0.035 A 
HETATM   20  C   UNK N   1      23.272  16.855   5.420  0.00  0.00     0.069 A 
HETATM   21  C   UNK N   1      23.809  17.752   4.496  0.00  0.00     0.106 A 
HETATM   22  C   UNK N   1      23.002  18.816   4.000  0.00  0.00     0.135 A 
HETATM   23  C   UNK N   1      21.681  18.974   4.507  0.00  0.00     0.106 A 
HETATM   24  C   UNK N   1      21.198  18.075   5.469  0.00  0.00     0.069 A 
BRANCH  21  25
HETATM   25  O   UNK N   1      25.092  17.532   4.099  0.00  0.00    -0.353 OA
HETATM   26  C   UNK N   1      26.183  17.400   4.927  0.00  0.00     0.210 C 
ENDBRANCH  21  25
BRANCH  22  27
HETATM   27  O   UNK N   1      23.515  19.641   3.044  0.00  0.00    -0.351 OA
HETATM   28  C   UNK N   1      24.324  20.732   3.266  0.00  0.00     0.210 C 
ENDBRANCH  22  27
BRANCH  23  29
HETATM   29  O   UNK N   1      20.882  19.972   4.054  0.00  0.00    -0.353 OA
HETATM   30  C   UNK N   1      20.008  19.829   2.998  0.00  0.00     0.210 C 
ENDBRANCH  23  29
ENDBRANCH  17  19
ENDBRANCH  16  17
ENDBRANCH   5  16
BRANCH   2  31
HETATM   31  N   UNK N   1      19.963  12.450  10.943  0.00  0.00    -0.385 N 
HETATM   32  H   UNK N   1      19.539  12.597  10.068  0.00  0.00     0.157 HD
HETATM   33  H   UNK N   1      19.417  12.452  11.762  0.00  0.00     0.157 HD
ENDBRANCH   2  31
TORSDOF 7
ENDMDL
MODEL 2
REMARK VINA RESULT:      -6.5      6.131      9.242
REMARK  7 active torsions:
REMARK  status: ('A' for Active; 'I' for Inactive)
REMARK       I    between atoms: C_1  and  N_20 
REMARK    1  A    between atoms: C_2  and  N_23 
REMARK    2  A    between atoms: C_5  and  C_9 
REMARK    3  A    between atoms: C_9  and  N_24 
REMARK    4  A    between atoms: C_10  and  N_24 
REMARK    5  A    between atoms: C_12  and  O_25 
REMARK    6  A    between atoms: C_14  and  O_26 
REMARK    7  A    between atoms: C_16  and  O_27 
ROOT
HETATM    1  C   UNK N   1      20.395  18.940   2.177  0.00  0.00     0.283 A 
HETATM    2  C   UNK N   1      21.631  17.852   3.971  0.00  0.00     0.105 A 
HETATM    3  C   UNK N   1      22.677  18.890   3.913  0.00  0.00     0.008 A 
HETATM    4  C   UNK N   1      23.905  18.842   4.784  0.00  0.00     0.050 C 
HETATM    5  C   UNK N   1      25.126  18.977   3.865  0.00  0.00     0.008 C 
HETATM    6  C   UNK N   1      25.041  20.201   2.917  0.00  0.00     0.012 C 
HETATM    7  C   UNK N   1      23.665  20.894   2.916  0.00  0.00     0.058 C 
HETATM    8  C   UNK N   1      22.569  19.876   3.019  0.00  0.00     0.018 A 
HETATM    9  N   UNK N   1      21.455  19.931   2.149  0.00  0.00    -0.356 N 
HETATM   10  N   UNK N   1      20.289  18.326   0.866  0.00  0.00    -0.395 N 
HETATM   11  N   UNK N   1      20.613  17.899   3.176  0.00  0.00    -0.339 N 
ATOM     12  HN  UNK N   1      19.914  17.160   3.252  1.00  0.00     0.165 HD
HETATM   13  H   UNK N   1      21.396  20.669   1.500  0.00  0.00     0.163 HD
HETATM   14  H   UNK N   1      20.348  17.419   0.403  0.00  0.00     0.153 HD
HETATM   15  H   UNK N   1      20.091  19.046   0.173  0.00  0.00     0.153 HD
ENDROOT
BRANCH   5  16
HETATM   16  C   UNK N   1      26.439  18.952   4.638  0.00  0.00     0.127 C 
BRANCH  16  17
HETATM   17  N   UNK N   1      27.362  17.877   4.309  0.00  0.00    -0.385 N 
HETATM   18  C   UNK N   1      26.909  16.789   3.471  0.00  0.00     0.149 C 
BRANCH  17  19
HETATM   19  C   UNK N   1      28.479  17.673   5.171  0.00  0.00     0.035 A 
HETATM   20  C   UNK N   1      28.307  17.636   6.556  0.00  0.00     0.069 A 
HETATM   21  C   UNK N   1      29.361  17.322   7.416  0.00  0.00     0.106 A 
HETATM   22  C   UNK N   1      30.632  16.979   6.872  0.00  0.00     0.135 A 
HETATM   23  C   UNK N   1      30.813  17.023   5.460  0.00  0.00     0.106 A 
HETATM   24  C   UNK N   1      29.737  17.388   4.637  0.00  0.00     0.069 A 
BRANCH  21  25
HETATM   25  O   UNK N   1      29.093  17.339   8.750  0.00  0.00    -0.353 OA
HETATM   26  C   UNK N   1      29.181  18.434   9.578  0.00  0.00     0.210 C 
ENDBRANCH  21  25
BRANCH  22  27
HETATM   27  O   UNK N   1      31.631  16.603   7.719  0.00  0.00    -0.351 OA
HETATM   28  C   UNK N   1      32.563  17.439   8.291  0.00  0.00     0.210 C 
ENDBRANCH  22  27
BRANCH  23  29
HETATM   29  O   UNK N   1      32.007  16.697   4.906  0.00  0.00    -0.353 OA
HETATM   30  C   UNK N   1      32.807  17.596   4.234  0.00  0.00     0.210 C 
ENDBRANCH  23  29
ENDBRANCH  17  19
ENDBRANCH  16  17
ENDBRANCH   5  16
BRANCH   2  31
HETATM   31  N   UNK N   1      21.746  16.783   4.888  0.00  0.00    -0.385 N 
HETATM   32  H   UNK N   1      22.609  16.325   5.003  0.00  0.00     0.157 HD
HETATM   33  H   UNK N   1      20.963  16.497   5.411  0.00  0.00     0.157 HD
ENDBRANCH   2  31
TORSDOF 7
ENDMDL
MODEL 3
REMARK VINA RESULT:      -6.5      2.699      3.681
REMARK  7 active torsions:
REMARK  status: ('A' for Active; 'I' for Inactive)
REMARK       I    between atoms: C_1  and  N_20 
REMARK    1  A    between atoms: C_2  and  N_23 
REMARK    2  A    between atoms: C_5  and  C_9 
REMARK    3  A    between atoms: C_9  and  N_24 
REMARK    4  A    between atoms: C_10  and  N_24 
REMARK    5  A    between atoms: C_12  and  O_25 
REMARK    6  A    between atoms: C_14  and  O_26 
REMARK    7  A    between atoms: C_16  and  O_27 
ROOT
HETATM    1  C   UNK N   1      23.915  11.870  10.473  0.00  0.00     0.283 A 
HETATM    2  C   UNK N   1      21.604  12.621  10.318  0.00  0.00     0.105 A 
HETATM    3  C   UNK N   1      21.834  13.126   8.951  0.00  0.00     0.008 A 
HETATM    4  C   UNK N   1      20.762  13.834   8.165  0.00  0.00     0.050 C 
HETATM    5  C   UNK N   1      21.351  15.164   7.680  0.00  0.00     0.008 C 
HETATM    6  C   UNK N   1      22.704  14.997   6.941  0.00  0.00     0.012 C 
HETATM    7  C   UNK N   1      23.300  13.581   7.045  0.00  0.00     0.058 C 
HETATM    8  C   UNK N   1      23.049  13.008   8.408  0.00  0.00     0.018 A 
HETATM    9  N   UNK N   1      24.098  12.393   9.132  0.00  0.00    -0.356 N 
HETATM   10  N   UNK N   1      24.853  12.526  11.366  0.00  0.00    -0.395 N 
HETATM   11  N   UNK N   1      22.561  12.059  10.981  0.00  0.00    -0.339 N 
ATOM     12  HN  UNK N   1      22.355  11.725  11.923  1.00  0.00     0.165 HD
HETATM   13  H   UNK N   1      24.984  12.315   8.709  0.00  0.00     0.163 HD
HETATM   14  H   UNK N   1      24.885  13.102  12.207  0.00  0.00     0.153 HD
HETATM   15  H   UNK N   1      25.804  12.356  11.038  0.00  0.00     0.153 HD
ENDROOT
BRANCH   5  16
HETATM   16  C   UNK N   1      20.355  15.974   6.857  0.00  0.00     0.127 C 
BRANCH  16  17
HETATM   17  N   UNK N   1      20.919  16.958   5.946  0.00  0.00    -0.385 N 
HETATM   18  C   UNK N   1      21.321  18.248   6.462  0.00  0.00     0.149 C 
BRANCH  17  19
HETATM   19  C   UNK N   1      20.624  16.824   4.559  0.00  0.00     0.035 A 
HETATM   20  C   UNK N   1      20.557  17.949   3.735  0.00  0.00     0.069 A 
HETATM   21  C   UNK N   1      20.387  17.837   2.355  0.00  0.00     0.106 A 
HETATM   22  C   UNK N   1      20.332  16.545   1.757  0.00  0.00     0.135 A 
HETATM   23  C   UNK N   1      20.392  15.394   2.595  0.00  0.00     0.106 A 
HETATM   24  C   UNK N   1      20.518  15.556   3.982  0.00  0.00     0.069 A 
BRANCH  21  25
HETATM   25  O   UNK N   1      20.308  18.996   1.647  0.00  0.00    -0.353 OA
HETATM   26  C   UNK N   1      21.119  20.096   1.806  0.00  0.00     0.210 C 
ENDBRANCH  21  25
BRANCH  22  27
HETATM   27  O   UNK N   1      20.239  16.449   0.401  0.00  0.00    -0.351 OA
HETATM   28  C   UNK N   1      19.074  16.350  -0.325  0.00  0.00     0.210 C 
ENDBRANCH  22  27
BRANCH  23  29
HETATM   29  O   UNK N   1      20.349  14.148   2.061  0.00  0.00    -0.353 OA
HETATM   30  C   UNK N   1      19.191  13.410   1.939  0.00  0.00     0.210 C 
ENDBRANCH  23  29
ENDBRANCH  17  19
ENDBRANCH  16  17
ENDBRANCH   5  16
BRANCH   2  31
HETATM   31  N   UNK N   1      20.335  12.767  10.920  0.00  0.00    -0.385 N 
HETATM   32  H   UNK N   1      20.151  12.344  11.789  0.00  0.00     0.157 HD
HETATM   33  H   UNK N   1      19.634  13.293  10.470  0.00  0.00     0.157 HD
ENDBRANCH   2  31
TORSDOF 7
ENDMDL
MODEL 4
REMARK VINA RESULT:      -6.4      6.502      9.117
REMARK  7 active torsions:
REMARK  status: ('A' for Active; 'I' for Inactive)
REMARK       I    between atoms: C_1  and  N_20 
REMARK    1  A    between atoms: C_2  and  N_23 
REMARK    2  A    between atoms: C_5  and  C_9 
REMARK    3  A    between atoms: C_9  and  N_24 
REMARK    4  A    between atoms: C_10  and  N_24 
REMARK    5  A    between atoms: C_12  and  O_25 
REMARK    6  A    between atoms: C_14  and  O_26 
REMARK    7  A    between atoms: C_16  and  O_27 
ROOT
HETATM    1  C   UNK N   1      34.681  15.519   9.519  0.00  0.00     0.283 A 
HETATM    2  C   UNK N   1      34.680  15.767   7.096  0.00  0.00     0.105 A 
HETATM    3  C   UNK N   1      33.528  16.686   7.166  0.00  0.00     0.008 A 
HETATM    4  C   UNK N   1      32.883  17.261   5.933  0.00  0.00     0.050 C 
HETATM    5  C   UNK N   1      31.380  16.969   6.022  0.00  0.00     0.008 C 
HETATM    6  C   UNK N   1      30.751  17.425   7.364  0.00  0.00     0.012 C 
HETATM    7  C   UNK N   1      31.784  17.855   8.422  0.00  0.00     0.058 C 
HETATM    8  C   UNK N   1      32.996  16.974   8.357  0.00  0.00     0.018 A 
HETATM    9  N   UNK N   1      33.541  16.417   9.537  0.00  0.00    -0.356 N 
HETATM   10  N   UNK N   1      34.301  14.263  10.139  0.00  0.00    -0.395 N 
HETATM   11  N   UNK N   1      35.180  15.255   8.173  0.00  0.00    -0.339 N 
ATOM     12  HN  UNK N   1      35.977  14.626   8.076  1.00  0.00     0.165 HD
HETATM   13  H   UNK N   1      33.133  16.647  10.403  0.00  0.00     0.163 HD
HETATM   14  H   UNK N   1      34.234  13.264   9.943  0.00  0.00     0.153 HD
HETATM   15  H   UNK N   1      33.996  14.439  11.096  0.00  0.00     0.153 HD
ENDROOT
BRANCH   5  16
HETATM   16  C   UNK N   1      30.611  17.515   4.824  0.00  0.00     0.127 C 
BRANCH  16  17
HETATM   17  N   UNK N   1      29.387  16.815   4.468  0.00  0.00    -0.385 N 
HETATM   18  C   UNK N   1      29.474  15.503   3.866  0.00  0.00     0.149 C 
BRANCH  17  19
HETATM   19  C   UNK N   1      28.209  17.594   4.275  0.00  0.00     0.035 A 
HETATM   20  C   UNK N   1      27.017  16.988   3.873  0.00  0.00     0.069 A 
HETATM   21  C   UNK N   1      25.823  17.706   3.791  0.00  0.00     0.106 A 
HETATM   22  C   UNK N   1      25.801  19.079   4.174  0.00  0.00     0.135 A 
HETATM   23  C   UNK N   1      27.017  19.701   4.577  0.00  0.00     0.106 A 
HETATM   24  C   UNK N   1      28.202  18.951   4.602  0.00  0.00     0.069 A 
BRANCH  21  25
HETATM   25  O   UNK N   1      24.724  17.028   3.364  0.00  0.00    -0.353 OA
HETATM   26  C   UNK N   1      24.085  16.016   4.042  0.00  0.00     0.210 C 
ENDBRANCH  21  25
BRANCH  22  27
HETATM   27  O   UNK N   1      24.615  19.748   4.159  0.00  0.00    -0.351 OA
HETATM   28  C   UNK N   1      24.107  20.470   3.103  0.00  0.00     0.210 C 
ENDBRANCH  22  27
BRANCH  23  29
HETATM   29  O   UNK N   1      27.034  21.004   4.956  0.00  0.00    -0.353 OA
HETATM   30  C   UNK N   1      27.335  21.423   6.233  0.00  0.00     0.210 C 
ENDBRANCH  23  29
ENDBRANCH  17  19
ENDBRANCH  16  17
ENDBRANCH   5  16
BRANCH   2  31
HETATM   31  N   UNK N   1      35.235  15.424   5.843  0.00  0.00    -0.385 N 
HETATM   32  H   UNK N   1      35.369  16.118   5.158  0.00  0.00     0.157 HD
HETATM   33  H   UNK N   1      35.487  14.491   5.655  0.00  0.00     0.157 HD
ENDBRANCH   2  31
TORSDOF 7
ENDMDL
MODEL 5
REMARK VINA RESULT:      -6.3     11.440     14.943
REMARK  7 active torsions:
REMARK  status: ('A' for Active; 'I' for Inactive)
REMARK       I    between atoms: C_1  and  N_20 
REMARK    1  A    between atoms: C_2  and  N_23 
REMARK    2  A    between atoms: C_5  and  C_9 
REMARK    3  A    between atoms: C_9  and  N_24 
REMARK    4  A    between atoms: C_10  and  N_24 
REMARK    5  A    between atoms: C_12  and  O_25 
REMARK    6  A    between atoms: C_14  and  O_26 
REMARK    7  A    between atoms: C_16  and  O_27 
ROOT
HETATM    1  C   UNK N   1      31.617  16.080   5.302  0.00  0.00     0.283 A 
HETATM    2  C   UNK N   1      32.275  14.612   7.130  0.00  0.00     0.105 A 
HETATM    3  C   UNK N   1      32.704  15.770   7.938  0.00  0.00     0.008 A 
HETATM    4  C   UNK N   1      33.326  15.613   9.301  0.00  0.00     0.050 C 
HETATM    5  C   UNK N   1      34.644  16.396   9.298  0.00  0.00     0.008 C 
HETATM    6  C   UNK N   1      34.480  17.861   8.817  0.00  0.00     0.012 C 
HETATM    7  C   UNK N   1      33.095  18.169   8.219  0.00  0.00     0.058 C 
HETATM    8  C   UNK N   1      32.597  16.999   7.424  0.00  0.00     0.018 A 
HETATM    9  N   UNK N   1      32.064  17.187   6.128  0.00  0.00    -0.356 N 
HETATM   10  N   UNK N   1      32.359  16.094   4.054  0.00  0.00    -0.395 N 
HETATM   11  N   UNK N   1      31.789  14.781   5.944  0.00  0.00    -0.339 N 
ATOM     12  HN  UNK N   1      31.505  13.952   5.423  1.00  0.00     0.165 HD
HETATM   13  H   UNK N   1      31.992  18.102   5.773  0.00  0.00     0.163 HD
HETATM   14  H   UNK N   1      32.984  15.518   3.491  0.00  0.00     0.153 HD
HETATM   15  H   UNK N   1      32.203  16.984   3.581  0.00  0.00     0.153 HD
ENDROOT
BRANCH   5  16
HETATM   16  C   UNK N   1      35.367  16.320  10.638  0.00  0.00     0.127 C 
BRANCH  16  17
HETATM   17  N   UNK N   1      36.130  15.107  10.892  0.00  0.00    -0.385 N 
HETATM   18  C   UNK N   1      36.699  14.384   9.777  0.00  0.00     0.149 C 
BRANCH  17  19
HETATM   19  C   UNK N   1      35.899  14.424  12.122  0.00  0.00     0.035 A 
HETATM   20  C   UNK N   1      35.134  13.256  12.150  0.00  0.00     0.069 A 
HETATM   21  C   UNK N   1      34.990  12.504  13.317  0.00  0.00     0.106 A 
HETATM   22  C   UNK N   1      35.680  12.903  14.498  0.00  0.00     0.135 A 
HETATM   23  C   UNK N   1      36.455  14.098  14.475  0.00  0.00     0.106 A 
HETATM   24  C   UNK N   1      36.534  14.846  13.291  0.00  0.00     0.069 A 
BRANCH  21  25
HETATM   25  O   UNK N   1      34.202  11.398  13.244  0.00  0.00    -0.353 OA
HETATM   26  C   UNK N   1      34.182  10.487  12.213  0.00  0.00     0.210 C 
ENDBRANCH  21  25
BRANCH  22  27
HETATM   27  O   UNK N   1      35.589  12.120  15.610  0.00  0.00    -0.351 OA
HETATM   28  C   UNK N   1      36.310  10.972  15.852  0.00  0.00     0.210 C 
ENDBRANCH  22  27
BRANCH  23  29
HETATM   29  O   UNK N   1      37.130  14.505  15.578  0.00  0.00    -0.353 OA
HETATM   30  C   UNK N   1      37.356  15.828  15.889  0.00  0.00     0.210 C 
ENDBRANCH  23  29
ENDBRANCH  17  19
ENDBRANCH  16  17
ENDBRANCH   5  16
BRANCH   2  31
HETATM   31  N   UNK N   1      32.413  13.303   7.644  0.00  0.00    -0.385 N 
HETATM   32  H   UNK N   1      33.274  13.010   8.017  0.00  0.00     0.157 HD
HETATM   33  H   UNK N   1      31.646  12.685   7.628  0.00  0.00     0.157 HD
ENDBRANCH   2  31
TORSDOF 7
ENDMDL
MODEL 6
REMARK VINA RESULT:      -6.3      4.095      8.568
REMARK  7 active torsions:
REMARK  status: ('A' for Active; 'I' for Inactive)
REMARK       I    between atoms: C_1  and  N_20 
REMARK    1  A    between atoms: C_2  and  N_23 
REMARK    2  A    between atoms: C_5  and  C_9 
REMARK    3  A    between atoms: C_9  and  N_24 
REMARK    4  A    between atoms: C_10  and  N_24 
REMARK    5  A    between atoms: C_12  and  O_25 
REMARK    6  A    between atoms: C_14  and  O_26 
REMARK    7  A    between atoms: C_16  and  O_27 
ROOT
HETATM    1  C   UNK N   1      19.493  16.302   0.132  0.00  0.00     0.283 A 
HETATM    2  C   UNK N   1      19.769  17.948   1.905  0.00  0.00     0.105 A 
HETATM    3  C   UNK N   1      20.624  17.019   2.668  0.00  0.00     0.008 A 
HETATM    4  C   UNK N   1      21.178  17.367   4.025  0.00  0.00     0.050 C 
HETATM    5  C   UNK N   1      20.805  16.226   4.979  0.00  0.00     0.008 C 
HETATM    6  C   UNK N   1      21.211  14.828   4.444  0.00  0.00     0.012 C 
HETATM    7  C   UNK N   1      21.684  14.836   2.979  0.00  0.00     0.058 C 
HETATM    8  C   UNK N   1      20.870  15.803   2.172  0.00  0.00     0.018 A 
HETATM    9  N   UNK N   1      20.329  15.419   0.923  0.00  0.00    -0.356 N 
HETATM   10  N   UNK N   1      18.211  15.660  -0.096  0.00  0.00    -0.395 N 
HETATM   11  N   UNK N   1      19.271  17.598   0.764  0.00  0.00    -0.339 N 
ATOM     12  HN  UNK N   1      18.686  18.274   0.273  1.00  0.00     0.165 HD
HETATM   13  H   UNK N   1      20.527  14.518   0.577  0.00  0.00     0.163 HD
HETATM   14  H   UNK N   1      17.213  15.792   0.066  0.00  0.00     0.153 HD
HETATM   15  H   UNK N   1      18.360  14.775  -0.580  0.00  0.00     0.153 HD
ENDROOT
BRANCH   5  16
HETATM   16  C   UNK N   1      21.324  16.460   6.394  0.00  0.00     0.127 C 
BRANCH  16  17
HETATM   17  N   UNK N   1      20.654  15.728   7.457  0.00  0.00    -0.385 N 
HETATM   18  C   UNK N   1      19.571  16.361   8.176  0.00  0.00     0.149 C 
BRANCH  17  19
HETATM   19  C   UNK N   1      21.360  14.650   8.067  0.00  0.00     0.035 A 
HETATM   20  C   UNK N   1      22.532  14.155   7.492  0.00  0.00     0.069 A 
HETATM   21  C   UNK N   1      23.305  13.183   8.129  0.00  0.00     0.106 A 
HETATM   22  C   UNK N   1      22.923  12.718   9.420  0.00  0.00     0.135 A 
HETATM   23  C   UNK N   1      21.725  13.215  10.006  0.00  0.00     0.106 A 
HETATM   24  C   UNK N   1      20.956  14.159   9.310  0.00  0.00     0.069 A 
BRANCH  21  25
HETATM   25  O   UNK N   1      24.414  12.750   7.470  0.00  0.00    -0.353 OA
HETATM   26  C   UNK N   1      25.496  13.522   7.114  0.00  0.00     0.210 C 
ENDBRANCH  21  25
BRANCH  22  27
HETATM   27  O   UNK N   1      23.726  11.823  10.062  0.00  0.00    -0.351 OA
HETATM   28  C   UNK N   1      24.786  12.132  10.885  0.00  0.00     0.210 C 
ENDBRANCH  22  27
BRANCH  23  29
HETATM   29  O   UNK N   1      21.333  12.800  11.237  0.00  0.00    -0.353 OA
HETATM   30  C   UNK N   1      20.158  12.121  11.475  0.00  0.00     0.210 C 
ENDBRANCH  23  29
ENDBRANCH  17  19
ENDBRANCH  16  17
ENDBRANCH   5  16
BRANCH   2  31
HETATM   31  N   UNK N   1      19.470  19.225   2.430  0.00  0.00    -0.385 N 
HETATM   32  H   UNK N   1      18.706  19.341   3.039  0.00  0.00     0.157 HD
HETATM   33  H   UNK N   1      20.027  20.000   2.187  0.00  0.00     0.157 HD
ENDBRANCH   2  31
TORSDOF 7
ENDMDL
MODEL 7
REMARK VINA RESULT:      -6.3      5.763      7.607
REMARK  7 active torsions:
REMARK  status: ('A' for Active; 'I' for Inactive)
REMARK       I    between atoms: C_1  and  N_20 
REMARK    1  A    between atoms: C_2  and  N_23 
REMARK    2  A    between atoms: C_5  and  C_9 
REMARK    3  A    between atoms: C_9  and  N_24 
REMARK    4  A    between atoms: C_10  and  N_24 
REMARK    5  A    between atoms: C_12  and  O_25 
REMARK    6  A    between atoms: C_14  and  O_26 
REMARK    7  A    between atoms: C_16  and  O_27 
ROOT
HETATM    1  C   UNK N   1      32.158  16.749   8.020  0.00  0.00     0.283 A 
HETATM    2  C   UNK N   1      30.262  17.969   8.939  0.00  0.00     0.105 A 
HETATM    3  C   UNK N   1      29.507  17.791   7.684  0.00  0.00     0.008 A 
HETATM    4  C   UNK N   1      28.136  18.380   7.480  0.00  0.00     0.050 C 
HETATM    5  C   UNK N   1      28.171  19.183   6.173  0.00  0.00     0.008 C 
HETATM    6  C   UNK N   1      28.720  18.368   4.974  0.00  0.00     0.012 C 
HETATM    7  C   UNK N   1      29.336  17.013   5.370  0.00  0.00     0.058 C 
HETATM    8  C   UNK N   1      30.077  17.137   6.668  0.00  0.00     0.018 A 
HETATM    9  N   UNK N   1      31.383  16.610   6.801  0.00  0.00    -0.356 N 
HETATM   10  N   UNK N   1      33.403  17.430   7.711  0.00  0.00    -0.395 N 
HETATM   11  N   UNK N   1      31.456  17.490   9.062  0.00  0.00    -0.339 N 
ATOM     12  HN  UNK N   1      31.939  17.638   9.949  1.00  0.00     0.165 HD
HETATM   13  H   UNK N   1      31.781  16.129   6.039  0.00  0.00     0.163 HD
HETATM   14  H   UNK N   1      33.936  18.266   7.951  0.00  0.00     0.153 HD
HETATM   15  H   UNK N   1      33.918  16.890   7.016  0.00  0.00     0.153 HD
ENDROOT
BRANCH   5  16
HETATM   16  C   UNK N   1      26.826  19.825   5.851  0.00  0.00     0.127 C 
BRANCH  16  17
HETATM   17  N   UNK N   1      26.298  19.584   4.517  0.00  0.00    -0.385 N 
HETATM   18  C   UNK N   1      26.677  20.468   3.438  0.00  0.00     0.149 C 
BRANCH  17  19
HETATM   19  C   UNK N   1      25.099  18.822   4.406  0.00  0.00     0.035 A 
HETATM   20  C   UNK N   1      23.899  19.438   4.043  0.00  0.00     0.069 A 
HETATM   21  C   UNK N   1      22.738  18.698   3.812  0.00  0.00     0.106 A 
HETATM   22  C   UNK N   1      22.783  17.277   3.897  0.00  0.00     0.135 A 
HETATM   23  C   UNK N   1      24.002  16.646   4.275  0.00  0.00     0.106 A 
HETATM   24  C   UNK N   1      25.133  17.433   4.540  0.00  0.00     0.069 A 
BRANCH  21  25
HETATM   25  O   UNK N   1      21.617  19.398   3.489  0.00  0.00    -0.353 OA
HETATM   26  C   UNK N   1      21.497  20.302   2.459  0.00  0.00     0.210 C 
ENDBRANCH  21  25
BRANCH  22  27
HETATM   27  O   UNK N   1      21.661  16.564   3.598  0.00  0.00    -0.351 OA
HETATM   28  C   UNK N   1      21.298  16.112   2.349  0.00  0.00     0.210 C 
ENDBRANCH  22  27
BRANCH  23  29
HETATM   29  O   UNK N   1      24.084  15.295   4.359  0.00  0.00    -0.353 OA
HETATM   30  C   UNK N   1      24.543  14.493   3.337  0.00  0.00     0.210 C 
ENDBRANCH  23  29
ENDBRANCH  17  19
ENDBRANCH  16  17
ENDBRANCH   5  16
BRANCH   2  31
HETATM   31  N   UNK N   1      29.688  18.688  10.012  0.00  0.00    -0.385 N 
HETATM   32  H   UNK N   1      29.108  19.461   9.831  0.00  0.00     0.157 HD
HETATM   33  H   UNK N   1      29.868  18.413  10.940  0.00  0.00     0.157 HD
ENDBRANCH   2  31
TORSDOF 7
ENDMDL
MODEL 8
REMARK VINA RESULT:      -6.2      9.533     13.073
REMARK  7 active torsions:
REMARK  status: ('A' for Active; 'I' for Inactive)
REMARK       I    between atoms: C_1  and  N_20 
REMARK    1  A    between atoms: C_2  and  N_23 
REMARK    2  A    between atoms: C_5  and  C_9 
REMARK    3  A    between atoms: C_9  and  N_24 
REMARK    4  A    between atoms: C_10  and  N_24 
REMARK    5  A    between atoms: C_12  and  O_25 
REMARK    6  A    between atoms: C_14  and  O_26 
REMARK    7  A    between atoms: C_16  and  O_27 
ROOT
HETATM    1  C   UNK N   1      27.891  17.347   7.007  0.00  0.00     0.283 A 
HETATM    2  C   UNK N   1      29.686  17.789   8.592  0.00  0.00     0.105 A 
HETATM    3  C   UNK N   1      30.669  17.157   7.693  0.00  0.00     0.008 A 
HETATM    4  C   UNK N   1      32.120  17.005   8.069  0.00  0.00     0.050 C 
HETATM    5  C   UNK N   1      32.492  15.529   7.878  0.00  0.00     0.008 C 
HETATM    6  C   UNK N   1      32.117  14.984   6.476  0.00  0.00     0.012 C 
HETATM    7  C   UNK N   1      31.244  15.944   5.647  0.00  0.00     0.058 C 
HETATM    8  C   UNK N   1      30.256  16.645   6.531  0.00  0.00     0.018 A 
HETATM    9  N   UNK N   1      28.892  16.723   6.161  0.00  0.00    -0.356 N 
HETATM   10  N   UNK N   1      26.856  16.374   7.306  0.00  0.00    -0.395 N 
HETATM   11  N   UNK N   1      28.439  17.860   8.257  0.00  0.00    -0.339 N 
ATOM     12  HN  UNK N   1      27.795  18.307   8.911  1.00  0.00     0.165 HD
HETATM   13  H   UNK N   1      28.612  16.342   5.298  0.00  0.00     0.163 HD
HETATM   14  H   UNK N   1      26.405  15.905   8.091  0.00  0.00     0.153 HD
HETATM   15  H   UNK N   1      26.439  16.048   6.434  0.00  0.00     0.153 HD
ENDROOT
BRANCH   5  16
HETATM   16  C   UNK N   1      33.951  15.250   8.221  0.00  0.00     0.127 C 
BRANCH  16  17
HETATM   17  N   UNK N   1      34.346  15.479   9.602  0.00  0.00    -0.385 N 
HETATM   18  C   UNK N   1      34.903  16.760   9.974  0.00  0.00     0.149 C 
BRANCH  17  19
HETATM   19  C   UNK N   1      34.621  14.338  10.411  0.00  0.00     0.035 A 
HETATM   20  C   UNK N   1      34.890  14.483  11.773  0.00  0.00     0.069 A 
HETATM   21  C   UNK N   1      35.045  13.376  12.610  0.00  0.00     0.106 A 
HETATM   22  C   UNK N   1      34.875  12.065  12.079  0.00  0.00     0.135 A 
HETATM   23  C   UNK N   1      34.608  11.914  10.689  0.00  0.00     0.106 A 
HETATM   24  C   UNK N   1      34.504  13.053   9.877  0.00  0.00     0.069 A 
BRANCH  21  25
HETATM   25  O   UNK N   1      35.331  13.628  13.916  0.00  0.00    -0.353 OA
HETATM   26  C   UNK N   1      36.589  13.735  14.462  0.00  0.00     0.210 C 
ENDBRANCH  21  25
BRANCH  22  27
HETATM   27  O   UNK N   1      34.957  10.998  12.922  0.00  0.00    -0.351 OA
HETATM   28  C   UNK N   1      33.924  10.474  13.666  0.00  0.00     0.210 C 
ENDBRANCH  22  27
BRANCH  23  29
HETATM   29  O   UNK N   1      34.434  10.681  10.149  0.00  0.00    -0.353 OA
HETATM   30  C   UNK N   1      33.198  10.134   9.882  0.00  0.00     0.210 C 
ENDBRANCH  23  29
ENDBRANCH  17  19
ENDBRANCH  16  17
ENDBRANCH   5  16
BRANCH   2  31
HETATM   31  N   UNK N   1      30.100  18.305   9.841  0.00  0.00    -0.385 N 
HETATM   32  H   UNK N   1      30.708  17.784  10.411  0.00  0.00     0.157 HD
HETATM   33  H   UNK N   1      29.779  19.187  10.139  0.00  0.00     0.157 HD
ENDBRANCH   2  31
TORSDOF 7
ENDMDL
MODEL 9
REMARK VINA RESULT:      -6.1     12.554     16.119
REMARK  7 active torsions:
REMARK  status: ('A' for Active; 'I' for Inactive)
REMARK       I    between atoms: C_1  and  N_20 
REMARK    1  A    between atoms: C_2  and  N_23 
REMARK    2  A    between atoms: C_5  and  C_9 
REMARK    3  A    between atoms: C_9  and  N_24 
REMARK    4  A    between atoms: C_10  and  N_24 
REMARK    5  A    between atoms: C_12  and  O_25 
REMARK    6  A    between atoms: C_14  and  O_26 
REMARK    7  A    between atoms: C_16  and  O_27 
ROOT
HETATM    1  C   UNK N   1      32.838  15.239   6.812  0.00  0.00     0.283 A 
HETATM    2  C   UNK N   1      32.849  13.776   8.759  0.00  0.00     0.105 A 
HETATM    3  C   UNK N   1      33.555  14.799   9.554  0.00  0.00     0.008 A 
HETATM    4  C   UNK N   1      33.982  14.556  10.978  0.00  0.00     0.050 C 
HETATM    5  C   UNK N   1      35.476  14.889  11.073  0.00  0.00     0.008 C 
HETATM    6  C   UNK N   1      35.822  16.294  10.515  0.00  0.00     0.012 C 
HETATM    7  C   UNK N   1      34.658  16.972   9.769  0.00  0.00     0.058 C 
HETATM    8  C   UNK N   1      33.883  15.959   8.980  0.00  0.00     0.018 A 
HETATM    9  N   UNK N   1      33.543  16.209   7.630  0.00  0.00    -0.356 N 
HETATM   10  N   UNK N   1      33.646  14.932   5.645  0.00  0.00    -0.395 N 
HETATM   11  N   UNK N   1      32.539  14.001   7.524  0.00  0.00    -0.339 N 
ATOM     12  HN  UNK N   1      32.051  13.265   7.014  1.00  0.00     0.165 HD
HETATM   13  H   UNK N   1      33.793  17.073   7.230  0.00  0.00     0.163 HD
HETATM   14  H   UNK N   1      34.101  14.151   5.173  0.00  0.00     0.153 HD
HETATM   15  H   UNK N   1      33.817  15.789   5.121  0.00  0.00     0.153 HD
ENDROOT
BRANCH   5  16
HETATM   16  C   UNK N   1      36.027  14.690  12.480  0.00  0.00     0.127 C 
BRANCH  16  17
HETATM   17  N   UNK N   1      36.776  13.465  12.713  0.00  0.00    -0.385 N 
HETATM   18  C   UNK N   1      37.392  12.790  11.593  0.00  0.00     0.149 C 
BRANCH  17  19
HETATM   19  C   UNK N   1      36.491  12.728  13.900  0.00  0.00     0.035 A 
HETATM   20  C   UNK N   1      37.126  11.509  14.147  0.00  0.00     0.069 A 
HETATM   21  C   UNK N   1      36.954  10.827  15.353  0.00  0.00     0.106 A 
HETATM   22  C   UNK N   1      36.155  11.407  16.380  0.00  0.00     0.135 A 
HETATM   23  C   UNK N   1      35.500  12.646  16.128  0.00  0.00     0.106 A 
HETATM   24  C   UNK N   1      35.666  13.274  14.885  0.00  0.00     0.069 A 
BRANCH  21  25
HETATM   25  O   UNK N   1      37.597   9.635  15.482  0.00  0.00    -0.353 OA
HETATM   26  C   UNK N   1      37.104   8.406  15.108  0.00  0.00     0.210 C 
ENDBRANCH  21  25
BRANCH  22  27
HETATM   27  O   UNK N   1      36.055  10.765  17.578  0.00  0.00    -0.351 OA
HETATM   28  C   UNK N   1      35.071   9.871  17.937  0.00  0.00     0.210 C 
ENDBRANCH  22  27
BRANCH  23  29
HETATM   29  O   UNK N   1      34.736  13.231  17.084  0.00  0.00    -0.353 OA
HETATM   30  C   UNK N   1      35.240  14.067  18.057  0.00  0.00     0.210 C 
ENDBRANCH  23  29
ENDBRANCH  17  19
ENDBRANCH  16  17
ENDBRANCH   5  16
BRANCH   2  31
HETATM   31  N   UNK N   1      32.525  12.530   9.340  0.00  0.00    -0.385 N 
HETATM   32  H   UNK N   1      31.583  12.261   9.435  0.00  0.00     0.157 HD
HETATM   33  H   UNK N   1      33.242  11.930   9.650  0.00  0.00     0.157 HD
ENDBRANCH   2  31
TORSDOF 7
ENDMDL
