REMARK  7 active torsions:
REMARK  status: ('A' for Active; 'I' for Inactive)
REMARK       I    between atoms: C_1  and  N_20 
REMARK    1  A    between atoms: C_2  and  N_23 
REMARK    2  A    between atoms: C_5  and  C_9 
REMARK    3  A    between atoms: C_9  and  N_24 
REMARK    4  A    between atoms: C_10  and  N_24 
REMARK    5  A    between atoms: C_12  and  O_25 
REMARK    6  A    between atoms: C_14  and  O_26 
REMARK    7  A    between atoms: C_16  and  O_27 
ROOT
HETATM    1  C   UNK N   1      -6.323  -1.334  -0.553  0.00  0.00     0.283 A 
HETATM    2  C   UNK N   1      -4.657   0.441  -0.494  0.00  0.00     0.105 A 
HETATM    3  C   UNK N   1      -3.574  -0.547  -0.331  0.00  0.00     0.008 A 
HETATM    4  C   UNK N   1      -2.134  -0.140  -0.160  0.00  0.00     0.050 C 
HETATM    5  C   UNK N   1      -1.605  -0.840   1.098  0.00  0.00     0.008 C 
HETATM    6  C   UNK N   1      -1.858  -2.370   1.094  0.00  0.00     0.012 C 
HETATM    7  C   UNK N   1      -2.786  -2.845  -0.039  0.00  0.00     0.058 C 
HETATM    8  C   UNK N   1      -3.880  -1.846  -0.271  0.00  0.00     0.018 A 
HETATM    9  N   UNK N   1      -5.226  -2.268  -0.379  0.00  0.00    -0.356 N 
HETATM   10  N   UNK N   1      -7.266  -1.507   0.537  0.00  0.00    -0.395 N 
HETATM   11  N   UNK N   1      -5.888   0.058  -0.591  0.00  0.00    -0.339 N 
ATOM     12  HN  UNK N   1      -6.603   0.777  -0.703  1.00  0.00     0.165 HD
HETATM   13  H   UNK N   1      -5.426  -3.231  -0.335  0.00  0.00     0.163 HD
HETATM   14  H   UNK N   1      -7.702  -0.995   1.304  0.00  0.00     0.153 HD
HETATM   15  H   UNK N   1      -7.607  -2.468   0.537  0.00  0.00     0.153 HD
ENDROOT
BRANCH   5  16
HETATM   16  C   UNK N   1      -0.142  -0.511   1.373  0.00  0.00     0.127 C 
BRANCH  16  17
HETATM   17  N   UNK N   1       0.823  -0.991   0.396  0.00  0.00    -0.385 N 
HETATM   18  C   UNK N   1       0.924  -2.411   0.143  0.00  0.00     0.149 C 
BRANCH  17  19
HETATM   19  C   UNK N   1       1.929  -0.147   0.086  0.00  0.00     0.035 A 
HETATM   20  C   UNK N   1       1.798   1.242   0.141  0.00  0.00     0.069 A 
HETATM   21  C   UNK N   1       2.893   2.088  -0.042  0.00  0.00     0.106 A 
HETATM   22  C   UNK N   1       4.188   1.527  -0.238  0.00  0.00     0.135 A 
HETATM   23  C   UNK N   1       4.324   0.111  -0.302  0.00  0.00     0.106 A 
HETATM   24  C   UNK N   1       3.188  -0.699  -0.157  0.00  0.00     0.069 A 
BRANCH  21  25
HETATM   25  O   UNK N   1       2.652   3.426   0.005  0.00  0.00    -0.353 OA
HETATM   26  C   UNK N   1       3.581   4.422  -0.190  0.00  0.00     0.210 C 
ENDBRANCH  21  25
BRANCH  22  27
HETATM   27  O   UNK N   1       5.259   2.363  -0.342  0.00  0.00    -0.351 OA
HETATM   28  C   UNK N   1       6.583   1.986  -0.336  0.00  0.00     0.210 C 
ENDBRANCH  22  27
BRANCH  23  29
HETATM   29  O   UNK N   1       5.542  -0.459  -0.481  0.00  0.00    -0.353 OA
HETATM   30  C   UNK N   1       5.756  -1.820  -0.469  0.00  0.00     0.210 C 
ENDBRANCH  23  29
ENDBRANCH  17  19
ENDBRANCH  16  17
ENDBRANCH   5  16
BRANCH   2  31
HETATM   31  N   UNK N   1      -4.355   1.821  -0.525  0.00  0.00    -0.385 N 
HETATM   32  H   UNK N   1      -3.418   2.119  -0.547  0.00  0.00     0.157 HD
HETATM   33  H   UNK N   1      -5.083   2.484  -0.525  0.00  0.00     0.157 HD
ENDBRANCH   2  31
TORSDOF 7
