REMARK  13 active torsions:
REMARK  status: ('A' for Active; 'I' for Inactive)
REMARK    1  A    between atoms: C_2  and  N_1 
REMARK    2  A    between atoms: N_1  and  C_17 
REMARK    3  A    between atoms: C_2  and  C_3 
REMARK    4  A    between atoms: C_2  and  C_18 
REMARK       I    between atoms: C_3  and  N_20 
REMARK    5  A    between atoms: C_5  and  C_16 
REMARK    6  A    between atoms: C_11  and  C_17 
REMARK    7  A    between atoms: C_18  and  S_19 
REMARK    8  A    between atoms: N_20  and  C_21 
REMARK    9  A    between atoms: C_21  and  C_22 
REMARK       I    between atoms: C_22  and  N_24 
REMARK   10  A    between atoms: C_25  and  N_24 
REMARK   11  A    between atoms: C_25  and  C_26 
REMARK   12  A    between atoms: C_25  and  C_29 
REMARK   13  A    between atoms: C_29  and  O_31 
ROOT
HETATM    1  C   UNK N   1       0.328   1.448  -0.691  0.00  0.00     0.178 C 
ENDROOT
BRANCH   1   2
HETATM    2  N   UNK N   1       1.563   2.127  -0.252  0.00  0.00    -0.405 N 
HETATM    3  H   UNK N   1       2.073   2.781  -0.845  0.00  0.00     0.154 HD
BRANCH   2   4
HETATM    4  C   UNK N   1       1.997   1.785   1.107  0.00  0.00     0.153 C 
BRANCH   4   5
HETATM    5  C   UNK N   1       3.164   0.863   1.021  0.00  0.00    -0.041 A 
HETATM    6  C   UNK N   1       4.323   1.255   0.341  0.00  0.00     0.009 A 
HETATM    7  C   UNK N   1       5.353   0.338   0.127  0.00  0.00     0.013 A 
HETATM    8  C   UNK N   1       5.229  -0.986   0.579  0.00  0.00    -0.026 A 
HETATM    9  C   UNK N   1       4.081  -1.359   1.296  0.00  0.00     0.013 A 
HETATM   10  C   UNK N   1       3.058  -0.437   1.521  0.00  0.00     0.009 A 
BRANCH   8  11
HETATM   11  C   UNK N   1       6.261  -1.994   0.242  0.00  0.00    -0.026 A 
HETATM   12  C   UNK N   1       7.423  -1.621  -0.455  0.00  0.00     0.012 A 
HETATM   13  C   UNK N   1       8.369  -2.583  -0.818  0.00  0.00     0.001 A 
HETATM   14  C   UNK N   1       8.157  -3.927  -0.501  0.00  0.00     0.000 A 
HETATM   15  C   UNK N   1       7.004  -4.310   0.188  0.00  0.00     0.001 A 
HETATM   16  C   UNK N   1       6.060  -3.348   0.559  0.00  0.00     0.012 A 
ENDBRANCH   8  11
ENDBRANCH   4   5
ENDBRANCH   2   4
ENDBRANCH   1   2
BRANCH   1  17
HETATM   17  C   UNK N   1       0.328  -0.062  -0.395  0.00  0.00     0.241 C 
HETATM   18  O   UNK N   1       1.320  -0.698  -0.708  0.00  0.00    -0.271 OA
HETATM   19  N   UNK N   1      -0.726  -0.752   0.126  0.00  0.00    -0.351 N 
HETATM   20  H   UNK N   1      -0.560  -1.684   0.398  0.00  0.00     0.163 HD
BRANCH  19  21
HETATM   21  C   UNK N   1      -2.062  -0.243   0.317  0.00  0.00     0.225 C 
BRANCH  21  22
HETATM   22  C   UNK N   1      -2.812  -0.212  -0.997  0.00  0.00     0.236 C 
HETATM   23  O   UNK N   1      -2.244  -0.560  -2.023  0.00  0.00    -0.272 OA
HETATM   24  N   UNK N   1      -4.109   0.177  -1.073  0.00  0.00    -0.345 N 
HETATM   25  H   UNK N   1      -4.535   0.163  -1.960  0.00  0.00     0.163 HD
BRANCH  24  26
HETATM   26  C   UNK N   1      -4.920   0.612   0.050  0.00  0.00     0.187 C 
BRANCH  26  27
HETATM   27  C   UNK N   1      -5.408   2.052  -0.204  0.00  0.00     0.010 C 
HETATM   28  C   UNK N   1      -6.143   2.602   1.010  0.00  0.00     0.012 C 
HETATM   29  C   UNK N   1      -4.252   2.991  -0.507  0.00  0.00     0.012 C 
ENDBRANCH  26  27
BRANCH  26  30
HETATM   30  C   UNK N   1      -5.998  -0.450   0.260  0.00  0.00     0.281 C 
HETATM   31  O   UNK N   1      -5.631  -1.553   0.633  0.00  0.00    -0.263 OA
BRANCH  30  32
HETATM   32  O   UNK N   1      -7.330  -0.269   0.035  0.00  0.00    -0.325 OA
HETATM   33  C   UNK N   1      -7.900   0.770  -0.660  0.00  0.00     0.213 C 
ENDBRANCH  30  32
ENDBRANCH  26  30
ENDBRANCH  24  26
ENDBRANCH  21  22
ENDBRANCH  19  21
ENDBRANCH   1  17
BRANCH   1  34
HETATM   34  C   UNK N   1      -0.897   2.282  -0.293  0.00  0.00     0.105 C 
BRANCH  34  35
HETATM   35  S   UNK N   1      -1.054   2.584   1.499  0.00  0.00    -0.180 SA
HETATM   36  H   UNK N   1      -0.918   2.799   2.835  0.00  0.00     0.101 HD
ENDBRANCH  34  35
ENDBRANCH   1  34
TORSDOF 13
