MODEL 1
REMARK VINA RESULT:      -6.6      0.000      0.000
REMARK  10 active torsions:
REMARK  status: ('A' for Active; 'I' for Inactive)
REMARK    1  A    between atoms: C_2  and  C_3 
REMARK    2  A    between atoms: C_3  and  C_4 
REMARK    3  A    between atoms: C_6  and  C_3 
REMARK       I    between atoms: N_7  and  C_16 
REMARK    4  A    between atoms: C_10  and  N_11 
REMARK    5  A    between atoms: N_11  and  S_12 
REMARK    6  A    between atoms: C_16  and  C_18 
REMARK    7  A    between atoms: C_18  and  C_19 
REMARK    8  A    between atoms: C_18  and  N_22 
REMARK       I    between atoms: N_22  and  C_23 
REMARK    9  A    between atoms: C_23  and  O_25 
REMARK   10  A    between atoms: O_25  and  C_26 
ROOT
HETATM    1  C   UNK N   1      34.451  15.907   8.027  0.00  0.00     0.121 C 
HETATM    2  N   UNK N   1      34.830  14.838   8.952  0.00  0.00    -0.343 N 
HETATM    3  C   UNK N   1      34.322  13.559   8.540  0.00  0.00     0.128 C 
HETATM    4  C   UNK N   1      34.097  13.731   7.061  0.00  0.00     0.048 C 
HETATM    5  C   UNK N   1      33.589  15.157   6.977  0.00  0.00     0.118 C 
HETATM    6  C   UNK N   1      35.742  14.982   9.982  0.00  0.00     0.243 C 
HETATM    7  O   UNK N   1      36.219  16.083  10.200  0.00  0.00    -0.271 OA
ENDROOT
BRANCH   1   8
HETATM    8  C   UNK N   1      33.655  17.100   8.667  0.00  0.00     0.072 C 
BRANCH   8   9
HETATM    9  C   UNK N   1      33.939  18.422   8.012  0.00  0.00     0.237 C 
HETATM   10  O   UNK N   1      34.894  19.101   8.353  0.00  0.00    -0.306 OA
ENDBRANCH   8   9
BRANCH   8  11
HETATM   11  C   UNK N   1      32.132  16.894   8.626  0.00  0.00     0.009 C 
HETATM   12  C   UNK N   1      31.336  18.190   8.569  0.00  0.00     0.006 C 
ENDBRANCH   8  11
ENDBRANCH   1   8
BRANCH   6  13
HETATM   13  C   UNK N   1      36.278  13.819  10.848  0.00  0.00     0.182 C 
BRANCH  13  14
HETATM   14  C   UNK N   1      37.757  13.497  10.540  0.00  0.00     0.009 C 
HETATM   15  C   UNK N   1      38.034  13.350   9.053  0.00  0.00     0.012 C 
HETATM   16  C   UNK N   1      38.192  12.207  11.220  0.00  0.00     0.012 C 
ENDBRANCH  13  14
BRANCH  13  17
HETATM   17  N   UNK N   1      36.159  14.064  12.276  0.00  0.00    -0.323 N 
HETATM   18  C   UNK N   1      35.268  13.436  13.089  0.00  0.00     0.362 C 
HETATM   19  O   UNK N   1      34.484  12.620  12.632  0.00  0.00    -0.238 OA
HETATM   20  H   UNK N   1      36.763  14.728  12.682  0.00  0.00     0.165 HD
BRANCH  18  21
HETATM   21  O   UNK N   1      35.264  13.753  14.418  0.00  0.00    -0.294 OA
BRANCH  21  22
HETATM   22  C   UNK N   1      36.152  13.380  15.424  0.00  0.00     0.061 C 
HETATM   23  C   UNK N   1      37.003  12.153  15.125  0.00  0.00     0.046 C 
HETATM   24  C   UNK N   1      35.360  13.101  16.684  0.00  0.00     0.046 C 
HETATM   25  C   UNK N   1      37.083  14.543  15.698  0.00  0.00     0.046 C 
ENDBRANCH  21  22
ENDBRANCH  18  21
ENDBRANCH  13  17
ENDBRANCH   6  13
BRANCH   5  26
HETATM   26  N   UNK N   1      33.761  15.757   5.633  0.00  0.00    -0.313 N 
HETATM   27  H   UNK N   1      34.685  16.067   5.328  0.00  0.00     0.172 HD
BRANCH  26  28
HETATM   28  S   UNK N   1      32.342  15.942   4.533  0.00  0.00     0.223 S 
HETATM   29  O   UNK N   1      31.583  17.085   5.226  0.00  0.00    -0.206 OA
HETATM   30  O   UNK N   1      31.532  15.222   5.618  0.00  0.00    -0.206 OA
HETATM   31  C   UNK N   1      33.054  17.607   4.391  0.00  0.00     0.185 C 
ENDBRANCH  26  28
ENDBRANCH   5  26
TORSDOF 10
ENDMDL
MODEL 2
REMARK VINA RESULT:      -6.0      3.352      8.445
REMARK  10 active torsions:
REMARK  status: ('A' for Active; 'I' for Inactive)
REMARK    1  A    between atoms: C_2  and  C_3 
REMARK    2  A    between atoms: C_3  and  C_4 
REMARK    3  A    between atoms: C_6  and  C_3 
REMARK       I    between atoms: N_7  and  C_16 
REMARK    4  A    between atoms: C_10  and  N_11 
REMARK    5  A    between atoms: N_11  and  S_12 
REMARK    6  A    between atoms: C_16  and  C_18 
REMARK    7  A    between atoms: C_18  and  C_19 
REMARK    8  A    between atoms: C_18  and  N_22 
REMARK       I    between atoms: N_22  and  C_23 
REMARK    9  A    between atoms: C_23  and  O_25 
REMARK   10  A    between atoms: O_25  and  C_26 
ROOT
HETATM    1  C   UNK N   1      36.388  11.954  14.443  0.00  0.00     0.121 C 
HETATM    2  N   UNK N   1      36.637  12.467  13.095  0.00  0.00    -0.343 N 
HETATM    3  C   UNK N   1      37.774  11.841  12.478  0.00  0.00     0.128 C 
HETATM    4  C   UNK N   1      37.901  10.536  13.220  0.00  0.00     0.048 C 
HETATM    5  C   UNK N   1      37.544  10.938  14.638  0.00  0.00     0.118 C 
HETATM    6  C   UNK N   1      35.773  13.293  12.400  0.00  0.00     0.243 C 
HETATM    7  O   UNK N   1      34.764  13.695  12.956  0.00  0.00    -0.271 OA
ENDROOT
BRANCH   1   8
HETATM    8  C   UNK N   1      36.382  13.034  15.583  0.00  0.00     0.072 C 
BRANCH   8   9
HETATM    9  C   UNK N   1      36.882  14.377  15.129  0.00  0.00     0.237 C 
HETATM   10  O   UNK N   1      37.593  15.060  15.849  0.00  0.00    -0.306 OA
ENDBRANCH   8   9
BRANCH   8  11
HETATM   11  C   UNK N   1      34.989  13.253  16.193  0.00  0.00     0.009 C 
HETATM   12  C   UNK N   1      34.993  13.397  17.707  0.00  0.00     0.006 C 
ENDBRANCH   8  11
ENDBRANCH   1   8
BRANCH   6  13
HETATM   13  C   UNK N   1      35.944  13.694  10.916  0.00  0.00     0.182 C 
BRANCH  13  14
HETATM   14  C   UNK N   1      35.715  12.502   9.961  0.00  0.00     0.009 C 
HETATM   15  C   UNK N   1      36.245  12.757   8.559  0.00  0.00     0.012 C 
HETATM   16  C   UNK N   1      34.235  12.171   9.841  0.00  0.00     0.012 C 
ENDBRANCH  13  14
BRANCH  13  17
HETATM   17  N   UNK N   1      35.061  14.775  10.508  0.00  0.00    -0.323 N 
HETATM   18  C   UNK N   1      35.446  16.073  10.384  0.00  0.00     0.362 C 
HETATM   19  O   UNK N   1      36.592  16.404  10.641  0.00  0.00    -0.238 OA
HETATM   20  H   UNK N   1      34.123  14.552  10.306  0.00  0.00     0.165 HD
BRANCH  18  21
HETATM   21  O   UNK N   1      34.518  16.991   9.982  0.00  0.00    -0.294 OA
BRANCH  21  22
HETATM   22  C   UNK N   1      34.064  17.297   8.702  0.00  0.00     0.061 C 
HETATM   23  C   UNK N   1      32.554  17.433   8.558  0.00  0.00     0.046 C 
HETATM   24  C   UNK N   1      34.525  16.208   7.756  0.00  0.00     0.046 C 
HETATM   25  C   UNK N   1      34.698  18.601   8.267  0.00  0.00     0.046 C 
ENDBRANCH  21  22
ENDBRANCH  18  21
ENDBRANCH  13  17
ENDBRANCH   6  13
BRANCH   5  26
HETATM   26  N   UNK N   1      37.101   9.795  15.471  0.00  0.00    -0.313 N 
HETATM   27  H   UNK N   1      37.789   9.235  15.976  0.00  0.00     0.172 HD
BRANCH  26  28
HETATM   28  S   UNK N   1      35.346   9.387  15.594  0.00  0.00     0.223 S 
HETATM   29  O   UNK N   1      35.398   8.147  16.499  0.00  0.00    -0.206 OA
HETATM   30  O   UNK N   1      35.644   8.245  14.614  0.00  0.00    -0.206 OA
HETATM   31  C   UNK N   1      35.717   9.667  17.350  0.00  0.00     0.185 C 
ENDBRANCH  26  28
ENDBRANCH   5  26
TORSDOF 10
ENDMDL
MODEL 3
REMARK VINA RESULT:      -5.9     15.861     20.294
REMARK  10 active torsions:
REMARK  status: ('A' for Active; 'I' for Inactive)
REMARK    1  A    between atoms: C_2  and  C_3 
REMARK    2  A    between atoms: C_3  and  C_4 
REMARK    3  A    between atoms: C_6  and  C_3 
REMARK       I    between atoms: N_7  and  C_16 
REMARK    4  A    between atoms: C_10  and  N_11 
REMARK    5  A    between atoms: N_11  and  S_12 
REMARK    6  A    between atoms: C_16  and  C_18 
REMARK    7  A    between atoms: C_18  and  C_19 
REMARK    8  A    between atoms: C_18  and  N_22 
REMARK       I    between atoms: N_22  and  C_23 
REMARK    9  A    between atoms: C_23  and  O_25 
REMARK   10  A    between atoms: O_25  and  C_26 
ROOT
HETATM    1  C   UNK N   1      28.978  23.138  -4.565  0.00  0.00     0.121 C 
HETATM    2  N   UNK N   1      28.040  23.859  -5.428  0.00  0.00    -0.343 N 
HETATM    3  C   UNK N   1      28.553  24.034  -6.758  0.00  0.00     0.128 C 
HETATM    4  C   UNK N   1      29.575  22.936  -6.888  0.00  0.00     0.048 C 
HETATM    5  C   UNK N   1      30.192  22.906  -5.504  0.00  0.00     0.118 C 
HETATM    6  C   UNK N   1      26.732  24.152  -5.088  0.00  0.00     0.243 C 
HETATM    7  O   UNK N   1      26.334  23.868  -3.970  0.00  0.00    -0.271 OA
ENDROOT
BRANCH   1   8
HETATM    8  C   UNK N   1      29.408  23.896  -3.258  0.00  0.00     0.072 C 
BRANCH   8   9
HETATM    9  C   UNK N   1      29.540  22.992  -2.065  0.00  0.00     0.237 C 
HETATM   10  O   UNK N   1      30.555  22.989  -1.387  0.00  0.00    -0.306 OA
ENDBRANCH   8   9
BRANCH   8  11
HETATM   11  C   UNK N   1      30.743  24.641  -3.410  0.00  0.00     0.009 C 
HETATM   12  C   UNK N   1      30.592  26.139  -3.636  0.00  0.00     0.006 C 
ENDBRANCH   8  11
ENDBRANCH   1   8
BRANCH   6  13
HETATM   13  C   UNK N   1      25.687  24.753  -6.056  0.00  0.00     0.182 C 
BRANCH  13  14
HETATM   14  C   UNK N   1      25.898  26.268  -6.273  0.00  0.00     0.009 C 
HETATM   15  C   UNK N   1      24.760  27.110  -5.718  0.00  0.00     0.012 C 
HETATM   16  C   UNK N   1      26.037  26.598  -7.752  0.00  0.00     0.012 C 
ENDBRANCH  13  14
BRANCH  13  17
HETATM   17  N   UNK N   1      25.676  24.110  -7.360  0.00  0.00    -0.323 N 
HETATM   18  C   UNK N   1      25.145  22.882  -7.603  0.00  0.00     0.362 C 
HETATM   19  O   UNK N   1      24.654  22.231  -6.695  0.00  0.00    -0.238 OA
HETATM   20  H   UNK N   1      26.077  24.595  -8.117  0.00  0.00     0.165 HD
BRANCH  18  21
HETATM   21  O   UNK N   1      25.191  22.394  -8.878  0.00  0.00    -0.294 OA
BRANCH  21  22
HETATM   22  C   UNK N   1      26.252  21.818  -9.574  0.00  0.00     0.061 C 
HETATM   23  C   UNK N   1      25.860  20.950 -10.762  0.00  0.00     0.046 C 
HETATM   24  C   UNK N   1      27.047  20.961  -8.612  0.00  0.00     0.046 C 
HETATM   25  C   UNK N   1      27.153  22.926 -10.077  0.00  0.00     0.046 C 
ENDBRANCH  21  22
ENDBRANCH  18  21
ENDBRANCH  13  17
ENDBRANCH   6  13
BRANCH   5  26
HETATM   26  N   UNK N   1      30.856  21.618  -5.191  0.00  0.00    -0.313 N 
HETATM   27  H   UNK N   1      30.294  20.800  -4.954  0.00  0.00     0.172 HD
BRANCH  26  28
HETATM   28  S   UNK N   1      32.657  21.493  -5.230  0.00  0.00     0.223 S 
HETATM   29  O   UNK N   1      32.863  20.076  -4.670  0.00  0.00    -0.206 OA
HETATM   30  O   UNK N   1      32.605  21.701  -3.711  0.00  0.00    -0.206 OA
HETATM   31  C   UNK N   1      32.232  20.107  -6.325  0.00  0.00     0.185 C 
ENDBRANCH  26  28
ENDBRANCH   5  26
TORSDOF 10
ENDMDL
MODEL 4
REMARK VINA RESULT:      -5.8      2.134      3.575
REMARK  10 active torsions:
REMARK  status: ('A' for Active; 'I' for Inactive)
REMARK    1  A    between atoms: C_2  and  C_3 
REMARK    2  A    between atoms: C_3  and  C_4 
REMARK    3  A    between atoms: C_6  and  C_3 
REMARK       I    between atoms: N_7  and  C_16 
REMARK    4  A    between atoms: C_10  and  N_11 
REMARK    5  A    between atoms: N_11  and  S_12 
REMARK    6  A    between atoms: C_16  and  C_18 
REMARK    7  A    between atoms: C_18  and  C_19 
REMARK    8  A    between atoms: C_18  and  N_22 
REMARK       I    between atoms: N_22  and  C_23 
REMARK    9  A    between atoms: C_23  and  O_25 
REMARK   10  A    between atoms: O_25  and  C_26 
ROOT
HETATM    1  C   UNK N   1      34.042  14.277   9.073  0.00  0.00     0.121 C 
HETATM    2  N   UNK N   1      34.737  13.535  10.127  0.00  0.00    -0.343 N 
HETATM    3  C   UNK N   1      35.467  14.403  11.009  0.00  0.00     0.128 C 
HETATM    4  C   UNK N   1      34.778  15.732  10.844  0.00  0.00     0.048 C 
HETATM    5  C   UNK N   1      34.455  15.744   9.362  0.00  0.00     0.118 C 
HETATM    6  C   UNK N   1      34.551  12.190  10.389  0.00  0.00     0.243 C 
HETATM    7  O   UNK N   1      33.822  11.540   9.658  0.00  0.00    -0.271 OA
ENDROOT
BRANCH   1   8
HETATM    8  C   UNK N   1      34.412  13.862   7.604  0.00  0.00     0.072 C 
BRANCH   8   9
HETATM    9  C   UNK N   1      33.245  13.926   6.658  0.00  0.00     0.237 C 
HETATM   10  O   UNK N   1      32.327  13.127   6.736  0.00  0.00    -0.306 OA
ENDBRANCH   8   9
BRANCH   8  11
HETATM   11  C   UNK N   1      35.530  14.727   7.001  0.00  0.00     0.009 C 
HETATM   12  C   UNK N   1      35.457  14.862   5.487  0.00  0.00     0.006 C 
ENDBRANCH   8  11
ENDBRANCH   1   8
BRANCH   6  13
HETATM   13  C   UNK N   1      35.144  11.443  11.606  0.00  0.00     0.182 C 
BRANCH  13  14
HETATM   14  C   UNK N   1      36.597  10.983  11.355  0.00  0.00     0.009 C 
HETATM   15  C   UNK N   1      36.832   9.530  11.735  0.00  0.00     0.012 C 
HETATM   16  C   UNK N   1      37.586  11.831  12.142  0.00  0.00     0.012 C 
ENDBRANCH  13  14
BRANCH  13  17
HETATM   17  N   UNK N   1      35.127  12.231  12.828  0.00  0.00    -0.323 N 
HETATM   18  C   UNK N   1      34.438  11.889  13.950  0.00  0.00     0.362 C 
HETATM   19  O   UNK N   1      33.761  10.874  13.973  0.00  0.00    -0.238 OA
HETATM   20  H   UNK N   1      35.648  13.066  12.845  0.00  0.00     0.165 HD
BRANCH  18  21
HETATM   21  O   UNK N   1      34.513  12.715  15.036  0.00  0.00    -0.294 OA
BRANCH  21  22
HETATM   22  C   UNK N   1      35.543  12.883  15.957  0.00  0.00     0.061 C 
HETATM   23  C   UNK N   1      36.617  13.889  15.562  0.00  0.00     0.046 C 
HETATM   24  C   UNK N   1      36.217  11.544  16.174  0.00  0.00     0.046 C 
HETATM   25  C   UNK N   1      34.942  13.330  17.273  0.00  0.00     0.046 C 
ENDBRANCH  21  22
ENDBRANCH  18  21
ENDBRANCH  13  17
ENDBRANCH   6  13
BRANCH   5  26
HETATM   26  N   UNK N   1      33.356  16.675   9.015  0.00  0.00    -0.313 N 
HETATM   27  H   UNK N   1      32.387  16.407   9.188  0.00  0.00     0.172 HD
BRANCH  26  28
HETATM   28  S   UNK N   1      33.727  18.285   8.285  0.00  0.00     0.223 S 
HETATM   29  O   UNK N   1      34.585  17.868   7.080  0.00  0.00    -0.206 OA
HETATM   30  O   UNK N   1      35.129  18.124   8.886  0.00  0.00    -0.206 OA
HETATM   31  C   UNK N   1      32.861  17.510   6.888  0.00  0.00     0.185 C 
ENDBRANCH  26  28
ENDBRANCH   5  26
TORSDOF 10
ENDMDL
MODEL 5
REMARK VINA RESULT:      -5.6     16.783     20.091
REMARK  10 active torsions:
REMARK  status: ('A' for Active; 'I' for Inactive)
REMARK    1  A    between atoms: C_2  and  C_3 
REMARK    2  A    between atoms: C_3  and  C_4 
REMARK    3  A    between atoms: C_6  and  C_3 
REMARK       I    between atoms: N_7  and  C_16 
REMARK    4  A    between atoms: C_10  and  N_11 
REMARK    5  A    between atoms: N_11  and  S_12 
REMARK    6  A    between atoms: C_16  and  C_18 
REMARK    7  A    between atoms: C_18  and  C_19 
REMARK    8  A    between atoms: C_18  and  N_22 
REMARK       I    between atoms: N_22  and  C_23 
REMARK    9  A    between atoms: C_23  and  O_25 
REMARK   10  A    between atoms: O_25  and  C_26 
ROOT
HETATM    1  C   UNK N   1      27.858  26.806  -4.214  0.00  0.00     0.121 C 
HETATM    2  N   UNK N   1      28.754  25.719  -4.615  0.00  0.00    -0.343 N 
HETATM    3  C   UNK N   1      30.008  26.208  -5.115  0.00  0.00     0.128 C 
HETATM    4  C   UNK N   1      30.118  27.581  -4.506  0.00  0.00     0.048 C 
HETATM    5  C   UNK N   1      28.685  28.072  -4.561  0.00  0.00     0.118 C 
HETATM    6  C   UNK N   1      28.526  24.381  -4.353  0.00  0.00     0.243 C 
HETATM    7  O   UNK N   1      27.479  24.052  -3.820  0.00  0.00    -0.271 OA
ENDROOT
BRANCH   1   8
HETATM    8  C   UNK N   1      26.461  26.825  -4.930  0.00  0.00     0.072 C 
BRANCH   8   9
HETATM    9  C   UNK N   1      25.442  27.671  -4.220  0.00  0.00     0.237 C 
HETATM   10  O   UNK N   1      25.514  27.867  -3.018  0.00  0.00    -0.306 OA
ENDBRANCH   8   9
BRANCH   8  11
HETATM   11  C   UNK N   1      26.538  27.334  -6.379  0.00  0.00     0.009 C 
HETATM   12  C   UNK N   1      26.071  26.322  -7.414  0.00  0.00     0.006 C 
ENDBRANCH   8  11
ENDBRANCH   1   8
BRANCH   6  13
HETATM   13  C   UNK N   1      29.546  23.249  -4.616  0.00  0.00     0.182 C 
BRANCH  13  14
HETATM   14  C   UNK N   1      29.754  22.353  -3.374  0.00  0.00     0.009 C 
HETATM   15  C   UNK N   1      30.505  23.057  -2.255  0.00  0.00     0.012 C 
HETATM   16  C   UNK N   1      30.530  21.094  -3.730  0.00  0.00     0.012 C 
ENDBRANCH  13  14
BRANCH  13  17
HETATM   17  N   UNK N   1      29.179  22.393  -5.732  0.00  0.00    -0.323 N 
HETATM   18  C   UNK N   1      29.640  22.550  -7.001  0.00  0.00     0.362 C 
HETATM   19  O   UNK N   1      30.398  23.467  -7.274  0.00  0.00    -0.238 OA
HETATM   20  H   UNK N   1      28.557  21.649  -5.558  0.00  0.00     0.165 HD
BRANCH  18  21
HETATM   21  O   UNK N   1      29.223  21.669  -7.959  0.00  0.00    -0.294 OA
BRANCH  21  22
HETATM   22  C   UNK N   1      29.759  20.438  -8.331  0.00  0.00     0.061 C 
HETATM   23  C   UNK N   1      31.190  20.184  -7.878  0.00  0.00     0.046 C 
HETATM   24  C   UNK N   1      29.723  20.336  -9.841  0.00  0.00     0.046 C 
HETATM   25  C   UNK N   1      28.883  19.343  -7.761  0.00  0.00     0.046 C 
ENDBRANCH  21  22
ENDBRANCH  18  21
ENDBRANCH  13  17
ENDBRANCH   6  13
BRANCH   5  26
HETATM   26  N   UNK N   1      28.406  29.160  -3.594  0.00  0.00    -0.313 N 
HETATM   27  H   UNK N   1      28.308  28.947  -2.601  0.00  0.00     0.172 HD
BRANCH  26  28
HETATM   28  S   UNK N   1      28.238  30.864  -4.169  0.00  0.00     0.223 S 
HETATM   29  O   UNK N   1      26.719  30.951  -4.385  0.00  0.00    -0.206 OA
HETATM   30  O   UNK N   1      28.044  30.268  -5.569  0.00  0.00    -0.206 OA
HETATM   31  C   UNK N   1      27.200  30.943  -2.680  0.00  0.00     0.185 C 
ENDBRANCH  26  28
ENDBRANCH   5  26
TORSDOF 10
ENDMDL
MODEL 6
REMARK VINA RESULT:      -5.6     17.960     21.311
REMARK  10 active torsions:
REMARK  status: ('A' for Active; 'I' for Inactive)
REMARK    1  A    between atoms: C_2  and  C_3 
REMARK    2  A    between atoms: C_3  and  C_4 
REMARK    3  A    between atoms: C_6  and  C_3 
REMARK       I    between atoms: N_7  and  C_16 
REMARK    4  A    between atoms: C_10  and  N_11 
REMARK    5  A    between atoms: N_11  and  S_12 
REMARK    6  A    between atoms: C_16  and  C_18 
REMARK    7  A    between atoms: C_18  and  C_19 
REMARK    8  A    between atoms: C_18  and  N_22 
REMARK       I    between atoms: N_22  and  C_23 
REMARK    9  A    between atoms: C_23  and  O_25 
REMARK   10  A    between atoms: O_25  and  C_26 
ROOT
HETATM    1  C   UNK N   1      26.171  23.984  -7.108  0.00  0.00     0.121 C 
HETATM    2  N   UNK N   1      27.110  24.612  -6.176  0.00  0.00    -0.343 N 
HETATM    3  C   UNK N   1      28.028  25.493  -6.843  0.00  0.00     0.128 C 
HETATM    4  C   UNK N   1      27.309  25.850  -8.117  0.00  0.00     0.048 C 
HETATM    5  C   UNK N   1      26.631  24.543  -8.480  0.00  0.00     0.118 C 
HETATM    6  C   UNK N   1      27.005  24.548  -4.799  0.00  0.00     0.243 C 
HETATM    7  O   UNK N   1      26.123  23.865  -4.304  0.00  0.00    -0.271 OA
ENDROOT
BRANCH   1   8
HETATM    8  C   UNK N   1      26.170  22.414  -7.105  0.00  0.00     0.072 C 
BRANCH   8   9
HETATM    9  C   UNK N   1      24.818  21.821  -7.385  0.00  0.00     0.237 C 
HETATM   10  O   UNK N   1      24.048  22.351  -8.170  0.00  0.00    -0.306 OA
ENDBRANCH   8   9
BRANCH   8  11
HETATM   11  C   UNK N   1      27.147  21.813  -8.130  0.00  0.00     0.009 C 
HETATM   12  C   UNK N   1      28.506  21.454  -7.549  0.00  0.00     0.006 C 
ENDBRANCH   8  11
ENDBRANCH   1   8
BRANCH   6  13
HETATM   13  C   UNK N   1      27.886  25.350  -3.813  0.00  0.00     0.182 C 
BRANCH  13  14
HETATM   14  C   UNK N   1      29.386  25.019  -3.970  0.00  0.00     0.009 C 
HETATM   15  C   UNK N   1      29.856  23.934  -3.015  0.00  0.00     0.012 C 
HETATM   16  C   UNK N   1      30.249  26.249  -3.731  0.00  0.00     0.012 C 
ENDBRANCH  13  14
BRANCH  13  17
HETATM   17  N   UNK N   1      27.727  26.790  -3.943  0.00  0.00    -0.323 N 
HETATM   18  C   UNK N   1      26.782  27.518  -3.291  0.00  0.00     0.362 C 
HETATM   19  O   UNK N   1      25.979  26.968  -2.554  0.00  0.00    -0.238 OA
HETATM   20  H   UNK N   1      28.346  27.270  -4.541  0.00  0.00     0.165 HD
BRANCH  18  21
HETATM   21  O   UNK N   1      26.746  28.868  -3.495  0.00  0.00    -0.294 OA
BRANCH  21  22
HETATM   22  C   UNK N   1      27.526  29.664  -4.330  0.00  0.00     0.061 C 
HETATM   23  C   UNK N   1      27.637  29.187  -5.772  0.00  0.00     0.046 C 
HETATM   24  C   UNK N   1      28.924  29.737  -3.755  0.00  0.00     0.046 C 
HETATM   25  C   UNK N   1      26.944  31.062  -4.340  0.00  0.00     0.046 C 
ENDBRANCH  21  22
ENDBRANCH  18  21
ENDBRANCH  13  17
ENDBRANCH   6  13
BRANCH   5  26
HETATM   26  N   UNK N   1      25.473  24.722  -9.387  0.00  0.00    -0.313 N 
HETATM   27  H   UNK N   1      24.527  24.751  -9.006  0.00  0.00     0.172 HD
BRANCH  26  28
HETATM   28  S   UNK N   1      25.731  24.889 -11.167  0.00  0.00     0.223 S 
HETATM   29  O   UNK N   1      24.290  24.749 -11.685  0.00  0.00    -0.206 OA
HETATM   30  O   UNK N   1      25.525  23.370 -11.239  0.00  0.00    -0.206 OA
HETATM   31  C   UNK N   1      24.618  26.297 -10.889  0.00  0.00     0.185 C 
ENDBRANCH  26  28
ENDBRANCH   5  26
TORSDOF 10
ENDMDL
MODEL 7
REMARK VINA RESULT:      -5.6     15.289     19.066
REMARK  10 active torsions:
REMARK  status: ('A' for Active; 'I' for Inactive)
REMARK    1  A    between atoms: C_2  and  C_3 
REMARK    2  A    between atoms: C_3  and  C_4 
REMARK    3  A    between atoms: C_6  and  C_3 
REMARK       I    between atoms: N_7  and  C_16 
REMARK    4  A    between atoms: C_10  and  N_11 
REMARK    5  A    between atoms: N_11  and  S_12 
REMARK    6  A    between atoms: C_16  and  C_18 
REMARK    7  A    between atoms: C_18  and  C_19 
REMARK    8  A    between atoms: C_18  and  N_22 
REMARK       I    between atoms: N_22  and  C_23 
REMARK    9  A    between atoms: C_23  and  O_25 
REMARK   10  A    between atoms: O_25  and  C_26 
ROOT
HETATM    1  C   UNK N   1      27.927  27.714  -3.669  0.00  0.00     0.121 C 
HETATM    2  N   UNK N   1      28.209  26.389  -4.223  0.00  0.00    -0.343 N 
HETATM    3  C   UNK N   1      29.392  26.384  -5.038  0.00  0.00     0.128 C 
HETATM    4  C   UNK N   1      30.166  27.577  -4.543  0.00  0.00     0.048 C 
HETATM    5  C   UNK N   1      29.064  28.582  -4.270  0.00  0.00     0.118 C 
HETATM    6  C   UNK N   1      27.557  25.229  -3.848  0.00  0.00     0.243 C 
HETATM    7  O   UNK N   1      26.629  25.301  -3.059  0.00  0.00    -0.271 OA
ENDROOT
BRANCH   1   8
HETATM    8  C   UNK N   1      26.515  28.304  -4.022  0.00  0.00     0.072 C 
BRANCH   8   9
HETATM    9  C   UNK N   1      26.424  29.790  -3.815  0.00  0.00     0.237 C 
HETATM   10  O   UNK N   1      26.535  30.278  -2.702  0.00  0.00    -0.306 OA
ENDBRANCH   8   9
BRANCH   8  11
HETATM   11  C   UNK N   1      26.096  28.025  -5.475  0.00  0.00     0.009 C 
HETATM   12  C   UNK N   1      24.872  27.130  -5.603  0.00  0.00     0.006 C 
ENDBRANCH   8  11
ENDBRANCH   1   8
BRANCH   6  13
HETATM   13  C   UNK N   1      27.967  23.807  -4.296  0.00  0.00     0.182 C 
BRANCH  13  14
HETATM   14  C   UNK N   1      27.734  23.583  -5.807  0.00  0.00     0.009 C 
HETATM   15  C   UNK N   1      26.282  23.285  -6.144  0.00  0.00     0.012 C 
HETATM   16  C   UNK N   1      28.575  22.427  -6.327  0.00  0.00     0.012 C 
ENDBRANCH  13  14
BRANCH  13  17
HETATM   17  N   UNK N   1      29.356  23.490  -4.003  0.00  0.00    -0.323 N 
HETATM   18  C   UNK N   1      29.794  22.999  -2.814  0.00  0.00     0.362 C 
HETATM   19  O   UNK N   1      29.011  22.815  -1.895  0.00  0.00    -0.238 OA
HETATM   20  H   UNK N   1      30.022  23.640  -4.712  0.00  0.00     0.165 HD
BRANCH  18  21
HETATM   21  O   UNK N   1      31.127  22.735  -2.670  0.00  0.00    -0.294 OA
BRANCH  21  22
HETATM   22  C   UNK N   1      31.957  21.909  -3.424  0.00  0.00     0.061 C 
HETATM   23  C   UNK N   1      32.684  22.589  -4.577  0.00  0.00     0.046 C 
HETATM   24  C   UNK N   1      31.121  20.785  -3.999  0.00  0.00     0.046 C 
HETATM   25  C   UNK N   1      32.996  21.304  -2.503  0.00  0.00     0.046 C 
ENDBRANCH  21  22
ENDBRANCH  18  21
ENDBRANCH  13  17
ENDBRANCH   6  13
BRANCH   5  26
HETATM   26  N   UNK N   1      29.469  29.645  -3.319  0.00  0.00    -0.313 N 
HETATM   27  H   UNK N   1      28.972  30.536  -3.309  0.00  0.00     0.172 HD
BRANCH  26  28
HETATM   28  S   UNK N   1      30.841  29.366  -2.178  0.00  0.00     0.223 S 
HETATM   29  O   UNK N   1      30.967  30.754  -1.531  0.00  0.00    -0.206 OA
HETATM   30  O   UNK N   1      31.702  30.147  -3.179  0.00  0.00    -0.206 OA
HETATM   31  C   UNK N   1      29.550  29.840  -0.991  0.00  0.00     0.185 C 
ENDBRANCH  26  28
ENDBRANCH   5  26
TORSDOF 10
ENDMDL
MODEL 8
REMARK VINA RESULT:      -5.6     13.377     16.442
REMARK  10 active torsions:
REMARK  status: ('A' for Active; 'I' for Inactive)
REMARK    1  A    between atoms: C_2  and  C_3 
REMARK    2  A    between atoms: C_3  and  C_4 
REMARK    3  A    between atoms: C_6  and  C_3 
REMARK       I    between atoms: N_7  and  C_16 
REMARK    4  A    between atoms: C_10  and  N_11 
REMARK    5  A    between atoms: N_11  and  S_12 
REMARK    6  A    between atoms: C_16  and  C_18 
REMARK    7  A    between atoms: C_18  and  C_19 
REMARK    8  A    between atoms: C_18  and  N_22 
REMARK       I    between atoms: N_22  and  C_23 
REMARK    9  A    between atoms: C_23  and  O_25 
REMARK   10  A    between atoms: O_25  and  C_26 
ROOT
HETATM    1  C   UNK N   1      20.297  15.270   7.933  0.00  0.00     0.121 C 
HETATM    2  N   UNK N   1      20.657  15.209   6.515  0.00  0.00    -0.343 N 
HETATM    3  C   UNK N   1      21.990  14.714   6.315  0.00  0.00     0.128 C 
HETATM    4  C   UNK N   1      22.269  13.937   7.575  0.00  0.00     0.048 C 
HETATM    5  C   UNK N   1      21.596  14.789   8.633  0.00  0.00     0.118 C 
HETATM    6  C   UNK N   1      19.765  15.392   5.474  0.00  0.00     0.243 C 
HETATM    7  O   UNK N   1      18.613  15.702   5.729  0.00  0.00    -0.271 OA
ENDROOT
BRANCH   1   8
HETATM    8  C   UNK N   1      19.862  16.686   8.455  0.00  0.00     0.072 C 
BRANCH   8   9
HETATM    9  C   UNK N   1      20.360  17.814   7.596  0.00  0.00     0.237 C 
HETATM   10  O   UNK N   1      20.517  18.933   8.056  0.00  0.00    -0.306 OA
ENDBRANCH   8   9
BRANCH   8  11
HETATM   11  C   UNK N   1      18.336  16.841   8.563  0.00  0.00     0.009 C 
HETATM   12  C   UNK N   1      17.881  17.640   9.775  0.00  0.00     0.006 C 
ENDBRANCH   8  11
ENDBRANCH   1   8
BRANCH   6  13
HETATM   13  C   UNK N   1      20.097  15.155   3.983  0.00  0.00     0.182 C 
BRANCH  13  14
HETATM   14  C   UNK N   1      19.138  14.137   3.328  0.00  0.00     0.009 C 
HETATM   15  C   UNK N   1      19.293  12.732   3.888  0.00  0.00     0.012 C 
HETATM   16  C   UNK N   1      19.360  14.061   1.824  0.00  0.00     0.012 C 
ENDBRANCH  13  14
BRANCH  13  17
HETATM   17  N   UNK N   1      20.072  16.373   3.188  0.00  0.00    -0.323 N 
HETATM   18  C   UNK N   1      21.145  17.186   2.999  0.00  0.00     0.362 C 
HETATM   19  O   UNK N   1      22.215  16.930   3.527  0.00  0.00    -0.238 OA
HETATM   20  H   UNK N   1      19.223  16.624   2.757  0.00  0.00     0.165 HD
BRANCH  18  21
HETATM   21  O   UNK N   1      20.989  18.298   2.221  0.00  0.00    -0.294 OA
BRANCH  21  22
HETATM   22  C   UNK N   1      21.199  19.639   2.533  0.00  0.00     0.061 C 
HETATM   23  C   UNK N   1      22.606  19.990   2.998  0.00  0.00     0.046 C 
HETATM   24  C   UNK N   1      20.234  20.034   3.630  0.00  0.00     0.046 C 
HETATM   25  C   UNK N   1      20.888  20.471   1.306  0.00  0.00     0.046 C 
ENDBRANCH  21  22
ENDBRANCH  18  21
ENDBRANCH  13  17
ENDBRANCH   6  13
BRANCH   5  26
HETATM   26  N   UNK N   1      21.276  14.036   9.868  0.00  0.00    -0.313 N 
HETATM   27  H   UNK N   1      20.672  14.452  10.578  0.00  0.00     0.172 HD
BRANCH  26  28
HETATM   28  S   UNK N   1      21.954  12.381  10.123  0.00  0.00     0.223 S 
HETATM   29  O   UNK N   1      22.159  12.382  11.647  0.00  0.00    -0.206 OA
HETATM   30  O   UNK N   1      23.312  13.072  10.297  0.00  0.00    -0.206 OA
HETATM   31  C   UNK N   1      20.462  12.261  11.154  0.00  0.00     0.185 C 
ENDBRANCH  26  28
ENDBRANCH   5  26
TORSDOF 10
ENDMDL
MODEL 9
REMARK VINA RESULT:      -5.5     15.433     18.621
REMARK  10 active torsions:
REMARK  status: ('A' for Active; 'I' for Inactive)
REMARK    1  A    between atoms: C_2  and  C_3 
REMARK    2  A    between atoms: C_3  and  C_4 
REMARK    3  A    between atoms: C_6  and  C_3 
REMARK       I    between atoms: N_7  and  C_16 
REMARK    4  A    between atoms: C_10  and  N_11 
REMARK    5  A    between atoms: N_11  and  S_12 
REMARK    6  A    between atoms: C_16  and  C_18 
REMARK    7  A    between atoms: C_18  and  C_19 
REMARK    8  A    between atoms: C_18  and  N_22 
REMARK       I    between atoms: N_22  and  C_23 
REMARK    9  A    between atoms: C_23  and  O_25 
REMARK   10  A    between atoms: O_25  and  C_26 
ROOT
HETATM    1  C   UNK N   1      29.166  25.487  -5.197  0.00  0.00     0.121 C 
HETATM    2  N   UNK N   1      29.117  24.024  -5.182  0.00  0.00    -0.343 N 
HETATM    3  C   UNK N   1      28.230  23.522  -4.169  0.00  0.00     0.128 C 
HETATM    4  C   UNK N   1      27.295  24.675  -3.918  0.00  0.00     0.048 C 
HETATM    5  C   UNK N   1      28.223  25.870  -4.026  0.00  0.00     0.118 C 
HETATM    6  C   UNK N   1      29.677  23.212  -6.152  0.00  0.00     0.243 C 
HETATM    7  O   UNK N   1      30.326  23.725  -7.049  0.00  0.00    -0.271 OA
ENDROOT
BRANCH   1   8
HETATM    8  C   UNK N   1      30.594  26.113  -5.005  0.00  0.00     0.072 C 
BRANCH   8   9
HETATM    9  C   UNK N   1      30.747  27.453  -5.668  0.00  0.00     0.237 C 
HETATM   10  O   UNK N   1      29.854  27.922  -6.355  0.00  0.00    -0.306 OA
ENDBRANCH   8   9
BRANCH   8  11
HETATM   11  C   UNK N   1      30.973  26.295  -3.526  0.00  0.00     0.009 C 
HETATM   12  C   UNK N   1      31.290  27.733  -3.143  0.00  0.00     0.006 C 
ENDBRANCH   8  11
ENDBRANCH   1   8
BRANCH   6  13
HETATM   13  C   UNK N   1      29.479  21.681  -6.237  0.00  0.00     0.182 C 
BRANCH  13  14
HETATM   14  C   UNK N   1      28.922  21.242  -7.609  0.00  0.00     0.009 C 
HETATM   15  C   UNK N   1      27.468  21.635  -7.812  0.00  0.00     0.012 C 
HETATM   16  C   UNK N   1      29.020  19.734  -7.785  0.00  0.00     0.012 C 
ENDBRANCH  13  14
BRANCH  13  17
HETATM   17  N   UNK N   1      30.697  20.929  -5.984  0.00  0.00    -0.323 N 
HETATM   18  C   UNK N   1      31.120  20.549  -4.749  0.00  0.00     0.362 C 
HETATM   19  O   UNK N   1      30.478  20.853  -3.756  0.00  0.00    -0.238 OA
HETATM   20  H   UNK N   1      31.252  20.677  -6.757  0.00  0.00     0.165 HD
BRANCH  18  21
HETATM   21  O   UNK N   1      32.281  19.837  -4.649  0.00  0.00    -0.294 OA
BRANCH  21  22
HETATM   22  C   UNK N   1      33.545  20.248  -4.234  0.00  0.00     0.061 C 
HETATM   23  C   UNK N   1      33.601  20.903  -2.860  0.00  0.00     0.046 C 
HETATM   24  C   UNK N   1      34.084  21.239  -5.244  0.00  0.00     0.046 C 
HETATM   25  C   UNK N   1      34.461  19.042  -4.218  0.00  0.00     0.046 C 
ENDBRANCH  21  22
ENDBRANCH  18  21
ENDBRANCH  13  17
ENDBRANCH   6  13
BRANCH   5  26
HETATM   26  N   UNK N   1      27.510  27.135  -4.321  0.00  0.00    -0.313 N 
HETATM   27  H   UNK N   1      27.887  27.783  -5.013  0.00  0.00     0.172 HD
BRANCH  26  28
HETATM   28  S   UNK N   1      25.974  27.532  -3.459  0.00  0.00     0.223 S 
HETATM   29  O   UNK N   1      25.709  28.955  -3.977  0.00  0.00    -0.206 OA
HETATM   30  O   UNK N   1      26.833  28.410  -2.540  0.00  0.00    -0.206 OA
HETATM   31  C   UNK N   1      25.407  27.689  -5.178  0.00  0.00     0.185 C 
ENDBRANCH  26  28
ENDBRANCH   5  26
TORSDOF 10
ENDMDL
