MODEL 1
REMARK VINA RESULT:      -6.7      0.000      0.000
REMARK  3 active torsions:
REMARK  status: ('A' for Active; 'I' for Inactive)
REMARK    1  A    between atoms: C_5  and  C_6 
REMARK    2  A    between atoms: C_14  and  S_15 
REMARK    3  A    between atoms: S_15  and  N_16 
ROOT
HETATM    1  S   UNK N   1      34.259  17.717   8.009  0.00  0.00     0.262 S 
HETATM    2  O   UNK N   1      34.439  17.717   6.484  0.00  0.00    -0.200 OA
HETATM    3  O   UNK N   1      35.148  18.858   8.522  0.00  0.00    -0.200 OA
HETATM    4  N   UNK N   1      32.609  18.262   8.294  0.00  0.00    -0.291 N 
HETATM    5  C   UNK N   1      31.733  17.096   8.138  0.00  0.00     0.225 C 
HETATM    6  N   UNK N   1      32.043  16.064   9.126  0.00  0.00    -0.365 N 
HETATM    7  C   UNK N   1      33.344  15.512   9.313  0.00  0.00     0.054 A 
HETATM    8  C   UNK N   1      33.502  14.312  10.017  0.00  0.00     0.056 A 
HETATM    9  C   UNK N   1      34.779  13.761  10.209  0.00  0.00     0.059 A 
HETATM   10 Cl   UNK N   1      34.906  12.246  11.086  0.00  0.00    -0.083 Cl
HETATM   11  C   UNK N   1      35.914  14.428   9.692  0.00  0.00     0.102 A 
HETATM   12  C   UNK N   1      35.747  15.632   9.007  0.00  0.00     0.054 A 
HETATM   13  C   UNK N   1      34.478  16.165   8.820  0.00  0.00     0.107 A 
HETATM   14  H   UNK N   1      32.316  19.211   8.525  0.00  0.00     0.174 HD
HETATM   15  H   UNK N   1      31.311  15.732   9.695  0.00  0.00     0.162 HD
ENDROOT
BRANCH  11  16
HETATM   16  S   UNK N   1      37.590  13.802   9.852  0.00  0.00     0.258 S 
HETATM   17  O   UNK N   1      38.640  14.845   9.439  0.00  0.00    -0.201 OA
HETATM   18  O   UNK N   1      37.857  12.686   8.831  0.00  0.00    -0.201 OA
BRANCH  16  19
HETATM   19  N   UNK N   1      38.181  13.147  11.380  0.00  0.00    -0.324 N 
HETATM   20  H   UNK N   1      39.139  12.804  11.452  0.00  0.00     0.169 HD
HETATM   21  H   UNK N   1      37.565  13.114  12.193  0.00  0.00     0.169 HD
ENDBRANCH  16  19
ENDBRANCH  11  16
BRANCH   5  22
HETATM   22  C   UNK N   1      30.280  17.540   8.298  0.00  0.00     0.221 C 
HETATM   23 Cl   UNK N   1      30.166  19.044   9.255  0.00  0.00    -0.104 Cl
HETATM   24 Cl   UNK N   1      29.508  17.815   6.714  0.00  0.00    -0.104 Cl
ENDBRANCH   5  22
TORSDOF 3
ENDMDL
MODEL 2
REMARK VINA RESULT:      -6.3      3.846      4.848
REMARK  3 active torsions:
REMARK  status: ('A' for Active; 'I' for Inactive)
REMARK    1  A    between atoms: C_5  and  C_6 
REMARK    2  A    between atoms: C_14  and  S_15 
REMARK    3  A    between atoms: S_15  and  N_16 
ROOT
HETATM    1  S   UNK N   1      28.986  17.765   9.217  0.00  0.00     0.262 S 
HETATM    2  O   UNK N   1      29.342  19.021  10.026  0.00  0.00    -0.200 OA
HETATM    3  O   UNK N   1      28.293  16.824  10.212  0.00  0.00    -0.200 OA
HETATM    4  N   UNK N   1      27.718  18.262   8.101  0.00  0.00    -0.291 N 
HETATM    5  C   UNK N   1      28.374  18.885   6.947  0.00  0.00     0.225 C 
HETATM    6  N   UNK N   1      29.237  17.933   6.250  0.00  0.00    -0.365 N 
HETATM    7  C   UNK N   1      30.270  17.186   6.889  0.00  0.00     0.054 A 
HETATM    8  C   UNK N   1      31.263  16.566   6.122  0.00  0.00     0.056 A 
HETATM    9  C   UNK N   1      32.284  15.826   6.741  0.00  0.00     0.059 A 
HETATM   10 Cl   UNK N   1      33.509  15.088   5.725  0.00  0.00    -0.083 Cl
HETATM   11  C   UNK N   1      32.302  15.703   8.151  0.00  0.00     0.102 A 
HETATM   12  C   UNK N   1      31.298  16.311   8.904  0.00  0.00     0.054 A 
HETATM   13  C   UNK N   1      30.296  17.044   8.280  0.00  0.00     0.107 A 
HETATM   14  H   UNK N   1      26.713  18.140   8.232  0.00  0.00     0.174 HD
HETATM   15  H   UNK N   1      29.096  17.799   5.285  0.00  0.00     0.162 HD
ENDROOT
BRANCH  11  16
HETATM   16  S   UNK N   1      33.573  14.808   9.051  0.00  0.00     0.258 S 
HETATM   17  O   UNK N   1      34.989  15.238   8.635  0.00  0.00    -0.201 OA
HETATM   18  O   UNK N   1      33.581  13.324   8.655  0.00  0.00    -0.201 OA
BRANCH  16  19
HETATM   19  N   UNK N   1      33.606  14.790  10.815  0.00  0.00    -0.324 N 
HETATM   20  H   UNK N   1      33.018  15.434  11.342  0.00  0.00     0.169 HD
HETATM   21  H   UNK N   1      34.214  14.135  11.307  0.00  0.00     0.169 HD
ENDBRANCH  16  19
ENDBRANCH  11  16
BRANCH   5  22
HETATM   22  C   UNK N   1      27.304  19.404   5.987  0.00  0.00     0.221 C 
HETATM   23 Cl   UNK N   1      27.099  21.172   6.142  0.00  0.00    -0.104 Cl
HETATM   24 Cl   UNK N   1      27.715  19.027   4.292  0.00  0.00    -0.104 Cl
ENDBRANCH   5  22
TORSDOF 3
ENDMDL
MODEL 3
REMARK VINA RESULT:      -6.2      4.581      6.369
REMARK  3 active torsions:
REMARK  status: ('A' for Active; 'I' for Inactive)
REMARK    1  A    between atoms: C_5  and  C_6 
REMARK    2  A    between atoms: C_14  and  S_15 
REMARK    3  A    between atoms: S_15  and  N_16 
ROOT
HETATM    1  S   UNK N   1      28.065  17.896   7.417  0.00  0.00     0.262 S 
HETATM    2  O   UNK N   1      27.894  19.311   7.989  0.00  0.00    -0.200 OA
HETATM    3  O   UNK N   1      27.809  16.949   8.597  0.00  0.00    -0.200 OA
HETATM    4  N   UNK N   1      26.700  17.653   6.332  0.00  0.00    -0.291 N 
HETATM    5  C   UNK N   1      27.048  18.272   5.049  0.00  0.00     0.225 C 
HETATM    6  N   UNK N   1      28.216  17.629   4.451  0.00  0.00    -0.365 N 
HETATM    7  C   UNK N   1      29.464  17.470   5.123  0.00  0.00     0.054 A 
HETATM    8  C   UNK N   1      30.620  17.166   4.394  0.00  0.00     0.056 A 
HETATM    9  C   UNK N   1      31.853  17.006   5.046  0.00  0.00     0.059 A 
HETATM   10 Cl   UNK N   1      33.266  16.643   4.072  0.00  0.00    -0.083 Cl
HETATM   11  C   UNK N   1      31.925  17.148   6.452  0.00  0.00     0.102 A 
HETATM   12  C   UNK N   1      30.764  17.435   7.171  0.00  0.00     0.054 A 
HETATM   13  C   UNK N   1      29.551  17.595   6.514  0.00  0.00     0.107 A 
HETATM   14  H   UNK N   1      25.828  17.172   6.555  0.00  0.00     0.174 HD
HETATM   15  H   UNK N   1      28.137  17.284   3.532  0.00  0.00     0.162 HD
ENDROOT
BRANCH  11  16
HETATM   16  S   UNK N   1      33.451  16.995   7.387  0.00  0.00     0.258 S 
HETATM   17  O   UNK N   1      34.529  17.976   6.900  0.00  0.00    -0.201 OA
HETATM   18  O   UNK N   1      34.127  15.644   7.112  0.00  0.00    -0.201 OA
BRANCH  16  19
HETATM   19  N   UNK N   1      33.466  17.143   9.145  0.00  0.00    -0.324 N 
HETATM   20  H   UNK N   1      34.339  17.023   9.659  0.00  0.00     0.169 HD
HETATM   21  H   UNK N   1      32.602  17.348   9.647  0.00  0.00     0.169 HD
ENDBRANCH  16  19
ENDBRANCH  11  16
BRANCH   5  22
HETATM   22  C   UNK N   1      25.856  18.154   4.100  0.00  0.00     0.221 C 
HETATM   23 Cl   UNK N   1      25.642  19.646   3.143  0.00  0.00    -0.104 Cl
HETATM   24 Cl   UNK N   1      26.056  16.783   2.976  0.00  0.00    -0.104 Cl
ENDBRANCH   5  22
TORSDOF 3
ENDMDL
MODEL 4
REMARK VINA RESULT:      -6.2      3.355      7.138
REMARK  3 active torsions:
REMARK  status: ('A' for Active; 'I' for Inactive)
REMARK    1  A    between atoms: C_5  and  C_6 
REMARK    2  A    between atoms: C_14  and  S_15 
REMARK    3  A    between atoms: S_15  and  N_16 
ROOT
HETATM    1  S   UNK N   1      33.415  16.668   6.407  0.00  0.00     0.262 S 
HETATM    2  O   UNK N   1      34.220  17.898   5.961  0.00  0.00    -0.200 OA
HETATM    3  O   UNK N   1      33.355  15.755   5.175  0.00  0.00    -0.200 OA
HETATM    4  N   UNK N   1      34.444  15.816   7.554  0.00  0.00    -0.291 N 
HETATM    5  C   UNK N   1      34.273  16.466   8.858  0.00  0.00     0.225 C 
HETATM    6  N   UNK N   1      32.893  16.359   9.327  0.00  0.00    -0.365 N 
HETATM    7  C   UNK N   1      31.763  16.779   8.565  0.00  0.00     0.054 A 
HETATM    8  C   UNK N   1      30.525  16.966   9.192  0.00  0.00     0.056 A 
HETATM    9  C   UNK N   1      29.406  17.378   8.452  0.00  0.00     0.059 A 
HETATM   10 Cl   UNK N   1      27.888  17.611   9.301  0.00  0.00    -0.083 Cl
HETATM   11  C   UNK N   1      29.531  17.600   7.060  0.00  0.00     0.102 A 
HETATM   12  C   UNK N   1      30.764  17.394   6.442  0.00  0.00     0.054 A 
HETATM   13  C   UNK N   1      31.866  16.991   7.186  0.00  0.00     0.107 A 
HETATM   14  H   UNK N   1      35.047  15.019   7.351  0.00  0.00     0.174 HD
HETATM   15  H   UNK N   1      32.734  15.973  10.219  0.00  0.00     0.162 HD
ENDROOT
BRANCH  11  16
HETATM   16  S   UNK N   1      28.176  18.155   6.019  0.00  0.00     0.258 S 
HETATM   17  O   UNK N   1      28.587  18.267   4.543  0.00  0.00    -0.201 OA
HETATM   18  O   UNK N   1      27.802  19.610   6.338  0.00  0.00    -0.201 OA
BRANCH  16  19
HETATM   19  N   UNK N   1      26.631  17.303   5.995  0.00  0.00    -0.324 N 
HETATM   20  H   UNK N   1      25.793  17.755   6.360  0.00  0.00     0.169 HD
HETATM   21  H   UNK N   1      26.576  16.358   5.614  0.00  0.00     0.169 HD
ENDBRANCH  16  19
ENDBRANCH  11  16
BRANCH   5  22
HETATM   22  C   UNK N   1      35.211  15.808   9.869  0.00  0.00     0.221 C 
HETATM   23 Cl   UNK N   1      34.294  15.006  11.174  0.00  0.00    -0.104 Cl
HETATM   24 Cl   UNK N   1      36.261  14.597   9.086  0.00  0.00    -0.104 Cl
ENDBRANCH   5  22
TORSDOF 3
ENDMDL
MODEL 5
REMARK VINA RESULT:      -6.2      4.170      6.991
REMARK  3 active torsions:
REMARK  status: ('A' for Active; 'I' for Inactive)
REMARK    1  A    between atoms: C_5  and  C_6 
REMARK    2  A    between atoms: C_14  and  S_15 
REMARK    3  A    between atoms: S_15  and  N_16 
ROOT
HETATM    1  S   UNK N   1      33.770  16.864   7.197  0.00  0.00     0.262 S 
HETATM    2  O   UNK N   1      34.420  16.078   8.346  0.00  0.00    -0.200 OA
HETATM    3  O   UNK N   1      34.291  18.300   7.344  0.00  0.00    -0.200 OA
HETATM    4  N   UNK N   1      34.517  16.258   5.723  0.00  0.00    -0.291 N 
HETATM    5  C   UNK N   1      33.810  15.027   5.351  0.00  0.00     0.225 C 
HETATM    6  N   UNK N   1      32.401  15.292   5.065  0.00  0.00    -0.365 N 
HETATM    7  C   UNK N   1      31.519  15.953   5.971  0.00  0.00     0.054 A 
HETATM    8  C   UNK N   1      30.134  15.869   5.787  0.00  0.00     0.056 A 
HETATM    9  C   UNK N   1      29.258  16.517   6.672  0.00  0.00     0.059 A 
HETATM   10 Cl   UNK N   1      27.532  16.358   6.396  0.00  0.00    -0.083 Cl
HETATM   11  C   UNK N   1      29.780  17.265   7.753  0.00  0.00     0.102 A 
HETATM   12  C   UNK N   1      31.163  17.356   7.917  0.00  0.00     0.054 A 
HETATM   13  C   UNK N   1      32.020  16.706   7.037  0.00  0.00     0.107 A 
HETATM   14  H   UNK N   1      35.296  16.682   5.220  0.00  0.00     0.174 HD
HETATM   15  H   UNK N   1      32.040  14.998   4.198  0.00  0.00     0.162 HD
ENDROOT
BRANCH  11  16
HETATM   16  S   UNK N   1      28.755  18.110   8.962  0.00  0.00     0.258 S 
HETATM   17  O   UNK N   1      29.592  18.799  10.050  0.00  0.00    -0.201 OA
HETATM   18  O   UNK N   1      27.949  17.103   9.795  0.00  0.00    -0.201 OA
BRANCH  16  19
HETATM   19  N   UNK N   1      27.568  19.320   8.470  0.00  0.00    -0.324 N 
HETATM   20  H   UNK N   1      27.516  19.617   7.496  0.00  0.00     0.169 HD
HETATM   21  H   UNK N   1      26.934  19.722   9.161  0.00  0.00     0.169 HD
ENDBRANCH  16  19
ENDBRANCH  11  16
BRANCH   5  22
HETATM   22  C   UNK N   1      34.479  14.422   4.118  0.00  0.00     0.221 C 
HETATM   23 Cl   UNK N   1      34.297  12.646   4.090  0.00  0.00    -0.104 Cl
HETATM   24 Cl   UNK N   1      33.786  15.087   2.614  0.00  0.00    -0.104 Cl
ENDBRANCH   5  22
TORSDOF 3
ENDMDL
MODEL 6
REMARK VINA RESULT:      -6.2      8.928     12.663
REMARK  3 active torsions:
REMARK  status: ('A' for Active; 'I' for Inactive)
REMARK    1  A    between atoms: C_5  and  C_6 
REMARK    2  A    between atoms: C_14  and  S_15 
REMARK    3  A    between atoms: S_15  and  N_16 
ROOT
HETATM    1  S   UNK N   1      26.531  20.044   4.412  0.00  0.00     0.262 S 
HETATM    2  O   UNK N   1      26.647  21.233   5.377  0.00  0.00    -0.200 OA
HETATM    3  O   UNK N   1      27.053  20.563   3.065  0.00  0.00    -0.200 OA
HETATM    4  N   UNK N   1      27.736  18.877   4.948  0.00  0.00    -0.291 N 
HETATM    5  C   UNK N   1      27.141  18.111   6.048  0.00  0.00     0.225 C 
HETATM    6  N   UNK N   1      25.964  17.368   5.600  0.00  0.00    -0.365 N 
HETATM    7  C   UNK N   1      24.853  17.969   4.938  0.00  0.00     0.054 A 
HETATM    8  C   UNK N   1      23.637  17.282   4.847  0.00  0.00     0.056 A 
HETATM    9  C   UNK N   1      22.537  17.863   4.196  0.00  0.00     0.059 A 
HETATM   10 Cl   UNK N   1      21.035  16.957   4.132  0.00  0.00    -0.083 Cl
HETATM   11  C   UNK N   1      22.663  19.151   3.623  0.00  0.00     0.102 A 
HETATM   12  C   UNK N   1      23.884  19.820   3.705  0.00  0.00     0.054 A 
HETATM   13  C   UNK N   1      24.964  19.236   4.356  0.00  0.00     0.107 A 
HETATM   14  H   UNK N   1      28.674  18.756   4.565  0.00  0.00     0.174 HD
HETATM   15  H   UNK N   1      25.938  16.397   5.763  0.00  0.00     0.162 HD
ENDROOT
BRANCH  11  16
HETATM   16  S   UNK N   1      21.316  20.003   2.794  0.00  0.00     0.258 S 
HETATM   17  O   UNK N   1      21.787  21.289   2.098  0.00  0.00    -0.201 OA
HETATM   18  O   UNK N   1      20.312  20.562   3.813  0.00  0.00    -0.201 OA
BRANCH  16  19
HETATM   19  N   UNK N   1      20.313  19.182   1.596  0.00  0.00    -0.324 N 
HETATM   20  H   UNK N   1      20.350  18.167   1.509  0.00  0.00     0.169 HD
HETATM   21  H   UNK N   1      19.696  19.724   0.991  0.00  0.00     0.169 HD
ENDBRANCH  16  19
ENDBRANCH  11  16
BRANCH   5  22
HETATM   22  C   UNK N   1      28.183  17.138   6.598  0.00  0.00     0.221 C 
HETATM   23 Cl   UNK N   1      29.686  17.188   5.635  0.00  0.00    -0.104 Cl
HETATM   24 Cl   UNK N   1      28.584  17.511   8.296  0.00  0.00    -0.104 Cl
ENDBRANCH   5  22
TORSDOF 3
ENDMDL
MODEL 7
REMARK VINA RESULT:      -6.0     14.521     17.645
REMARK  3 active torsions:
REMARK  status: ('A' for Active; 'I' for Inactive)
REMARK    1  A    between atoms: C_5  and  C_6 
REMARK    2  A    between atoms: C_14  and  S_15 
REMARK    3  A    between atoms: S_15  and  N_16 
ROOT
HETATM    1  S   UNK N   1      30.688  23.439  -3.053  0.00  0.00     0.262 S 
HETATM    2  O   UNK N   1      30.229  22.994  -1.657  0.00  0.00    -0.200 OA
HETATM    3  O   UNK N   1      31.259  24.851  -2.860  0.00  0.00    -0.200 OA
HETATM    4  N   UNK N   1      32.081  22.433  -3.439  0.00  0.00    -0.291 N 
HETATM    5  C   UNK N   1      31.568  21.160  -3.956  0.00  0.00     0.225 C 
HETATM    6  N   UNK N   1      30.802  21.357  -5.185  0.00  0.00    -0.365 N 
HETATM    7  C   UNK N   1      29.702  22.259  -5.297  0.00  0.00     0.054 A 
HETATM    8  C   UNK N   1      28.814  22.150  -6.373  0.00  0.00     0.056 A 
HETATM    9  C   UNK N   1      27.729  23.033  -6.494  0.00  0.00     0.059 A 
HETATM   10 Cl   UNK N   1      26.642  22.832  -7.857  0.00  0.00    -0.083 Cl
HETATM   11  C   UNK N   1      27.538  24.044  -5.523  0.00  0.00     0.102 A 
HETATM   12  C   UNK N   1      28.440  24.154  -4.464  0.00  0.00     0.054 A 
HETATM   13  C   UNK N   1      29.506  23.271  -4.353  0.00  0.00     0.107 A 
HETATM   14  H   UNK N   1      33.062  22.688  -3.325  0.00  0.00     0.174 HD
HETATM   15  H   UNK N   1      31.061  20.839  -5.982  0.00  0.00     0.162 HD
ENDROOT
BRANCH  11  16
HETATM   16  S   UNK N   1      26.171  25.209  -5.560  0.00  0.00     0.258 S 
HETATM   17  O   UNK N   1      26.188  26.160  -4.353  0.00  0.00    -0.201 OA
HETATM   18  O   UNK N   1      24.831  24.487  -5.356  0.00  0.00    -0.201 OA
BRANCH  16  19
HETATM   19  N   UNK N   1      25.897  26.254  -6.955  0.00  0.00    -0.324 N 
HETATM   20  H   UNK N   1      24.976  26.291  -7.392  0.00  0.00     0.169 HD
HETATM   21  H   UNK N   1      26.659  26.822  -7.324  0.00  0.00     0.169 HD
ENDBRANCH  16  19
ENDBRANCH  11  16
BRANCH   5  22
HETATM   22  C   UNK N   1      32.745  20.225  -4.230  0.00  0.00     0.221 C 
HETATM   23 Cl   UNK N   1      33.097  20.123  -5.977  0.00  0.00    -0.104 Cl
HETATM   24 Cl   UNK N   1      34.217  20.771  -3.384  0.00  0.00    -0.104 Cl
ENDBRANCH   5  22
TORSDOF 3
ENDMDL
MODEL 8
REMARK VINA RESULT:      -5.9      5.204      6.066
REMARK  3 active torsions:
REMARK  status: ('A' for Active; 'I' for Inactive)
REMARK    1  A    between atoms: C_5  and  C_6 
REMARK    2  A    between atoms: C_14  and  S_15 
REMARK    3  A    between atoms: S_15  and  N_16 
ROOT
HETATM    1  S   UNK N   1      35.880  15.376  11.190  0.00  0.00     0.262 S 
HETATM    2  O   UNK N   1      34.355  15.211  11.113  0.00  0.00    -0.200 OA
HETATM    3  O   UNK N   1      36.146  16.847  10.843  0.00  0.00    -0.200 OA
HETATM    4  N   UNK N   1      36.290  15.229  12.896  0.00  0.00    -0.291 N 
HETATM    5  C   UNK N   1      36.377  13.796  13.200  0.00  0.00     0.225 C 
HETATM    6  N   UNK N   1      37.437  13.153  12.427  0.00  0.00    -0.365 N 
HETATM    7  C   UNK N   1      37.535  13.225  11.005  0.00  0.00     0.054 A 
HETATM    8  C   UNK N   1      38.353  12.324  10.313  0.00  0.00     0.056 A 
HETATM    9  C   UNK N   1      38.458  12.386   8.915  0.00  0.00     0.059 A 
HETATM   10 Cl   UNK N   1      39.486  11.216   8.106  0.00  0.00    -0.083 Cl
HETATM   11  C   UNK N   1      37.736  13.372   8.202  0.00  0.00     0.102 A 
HETATM   12  C   UNK N   1      36.937  14.276   8.903  0.00  0.00     0.054 A 
HETATM   13  C   UNK N   1      36.838  14.201  10.286  0.00  0.00     0.107 A 
HETATM   14  H   UNK N   1      36.440  15.996  13.551  0.00  0.00     0.174 HD
HETATM   15  H   UNK N   1      38.124  12.643  12.914  0.00  0.00     0.162 HD
ENDROOT
BRANCH  11  16
HETATM   16  S   UNK N   1      37.771  13.526   6.412  0.00  0.00     0.258 S 
HETATM   17  O   UNK N   1      36.951  14.728   5.919  0.00  0.00    -0.201 OA
HETATM   18  O   UNK N   1      37.026  12.360   5.748  0.00  0.00    -0.201 OA
BRANCH  16  19
HETATM   19  N   UNK N   1      39.297  13.629   5.532  0.00  0.00    -0.324 N 
HETATM   20  H   UNK N   1      40.067  14.182   5.908  0.00  0.00     0.169 HD
HETATM   21  H   UNK N   1      39.409  13.134   4.647  0.00  0.00     0.169 HD
ENDBRANCH  16  19
ENDBRANCH  11  16
BRANCH   5  22
HETATM   22  C   UNK N   1      36.653  13.621  14.693  0.00  0.00     0.221 C 
HETATM   23 Cl   UNK N   1      37.254  15.136  15.421  0.00  0.00    -0.104 Cl
HETATM   24 Cl   UNK N   1      35.183  13.114  15.568  0.00  0.00    -0.104 Cl
ENDBRANCH   5  22
TORSDOF 3
ENDMDL
MODEL 9
REMARK VINA RESULT:      -5.8      4.836      6.973
REMARK  3 active torsions:
REMARK  status: ('A' for Active; 'I' for Inactive)
REMARK    1  A    between atoms: C_5  and  C_6 
REMARK    2  A    between atoms: C_14  and  S_15 
REMARK    3  A    between atoms: S_15  and  N_16 
ROOT
HETATM    1  S   UNK N   1      28.304  16.442   4.243  0.00  0.00     0.262 S 
HETATM    2  O   UNK N   1      27.754  15.012   4.139  0.00  0.00    -0.200 OA
HETATM    3  O   UNK N   1      29.438  16.515   3.211  0.00  0.00    -0.200 OA
HETATM    4  N   UNK N   1      27.039  17.486   3.603  0.00  0.00    -0.291 N 
HETATM    5  C   UNK N   1      26.079  17.720   4.687  0.00  0.00     0.225 C 
HETATM    6  N   UNK N   1      26.707  18.412   5.811  0.00  0.00    -0.365 N 
HETATM    7  C   UNK N   1      27.884  17.948   6.468  0.00  0.00     0.054 A 
HETATM    8  C   UNK N   1      28.230  18.455   7.727  0.00  0.00     0.056 A 
HETATM    9  C   UNK N   1      29.387  18.007   8.382  0.00  0.00     0.059 A 
HETATM   10 Cl   UNK N   1      29.755  18.670   9.965  0.00  0.00    -0.083 Cl
HETATM   11  C   UNK N   1      30.213  17.040   7.762  0.00  0.00     0.102 A 
HETATM   12  C   UNK N   1      29.869  16.554   6.500  0.00  0.00     0.054 A 
HETATM   13  C   UNK N   1      28.718  17.002   5.864  0.00  0.00     0.107 A 
HETATM   14  H   UNK N   1      26.983  17.859   2.655  0.00  0.00     0.174 HD
HETATM   15  H   UNK N   1      26.294  19.247   6.131  0.00  0.00     0.162 HD
ENDROOT
BRANCH  11  16
HETATM   16  S   UNK N   1      31.700  16.374   8.518  0.00  0.00     0.258 S 
HETATM   17  O   UNK N   1      32.774  17.452   8.731  0.00  0.00    -0.201 OA
HETATM   18  O   UNK N   1      32.421  15.417   7.558  0.00  0.00    -0.201 OA
BRANCH  16  19
HETATM   19  N   UNK N   1      31.634  15.494  10.046  0.00  0.00    -0.324 N 
HETATM   20  H   UNK N   1      31.815  15.981  10.924  0.00  0.00     0.169 HD
HETATM   21  H   UNK N   1      31.415  14.497  10.052  0.00  0.00     0.169 HD
ENDBRANCH  16  19
ENDBRANCH  11  16
BRANCH   5  22
HETATM   22  C   UNK N   1      24.919  18.558   4.152  0.00  0.00     0.221 C 
HETATM   23 Cl   UNK N   1      23.440  18.309   5.121  0.00  0.00    -0.104 Cl
HETATM   24 Cl   UNK N   1      25.318  20.297   4.161  0.00  0.00    -0.104 Cl
ENDBRANCH   5  22
TORSDOF 3
ENDMDL
