REMARK  3 active torsions:
REMARK  status: ('A' for Active; 'I' for Inactive)
REMARK    1  A    between atoms: C_5  and  C_6 
REMARK    2  A    between atoms: C_14  and  S_15 
REMARK    3  A    between atoms: S_15  and  N_16 
ROOT
HETATM    1  S   UNK N   1      -1.744  -1.457  -0.252  0.00  0.00     0.262 S 
HETATM    2  O   UNK N   1      -2.235  -2.078   1.064  0.00  0.00    -0.200 OA
HETATM    3  O   UNK N   1      -1.789  -2.597  -1.279  0.00  0.00    -0.200 OA
HETATM    4  N   UNK N   1      -3.011  -0.342  -0.754  0.00  0.00    -0.291 N 
HETATM    5  C   UNK N   1      -2.801   0.912  -0.023  0.00  0.00     0.225 C 
HETATM    6  N   UNK N   1      -1.513   1.514  -0.362  0.00  0.00    -0.365 N 
HETATM    7  C   UNK N   1      -0.267   0.827  -0.261  0.00  0.00     0.054 A 
HETATM    8  C   UNK N   1       0.933   1.548  -0.268  0.00  0.00     0.056 A 
HETATM    9  C   UNK N   1       2.165   0.882  -0.171  0.00  0.00     0.059 A 
HETATM   10 Cl   UNK N   1       3.632   1.845  -0.168  0.00  0.00    -0.083 Cl
HETATM   11  C   UNK N   1       2.192  -0.529  -0.072  0.00  0.00     0.102 A 
HETATM   12  C   UNK N   1       0.991  -1.239  -0.083  0.00  0.00     0.054 A 
HETATM   13  C   UNK N   1      -0.222  -0.568  -0.175  0.00  0.00     0.107 A 
HETATM   14  H   UNK N   1      -3.753  -0.532  -1.428  0.00  0.00     0.174 HD
HETATM   15  H   UNK N   1      -1.505   2.446  -0.679  0.00  0.00     0.162 HD
ENDROOT
BRANCH  11  16
HETATM   16  S   UNK N   1       3.706  -1.483   0.086  0.00  0.00     0.258 S 
HETATM   17  O   UNK N   1       3.798  -2.601  -0.964  0.00  0.00    -0.201 OA
HETATM   18  O   UNK N   1       3.708  -2.294   1.390  0.00  0.00    -0.201 OA
BRANCH  16  19
HETATM   19  N   UNK N   1       5.288  -0.702   0.054  0.00  0.00    -0.324 N 
HETATM   20  H   UNK N   1       6.136  -1.268   0.035  0.00  0.00     0.169 HD
HETATM   21  H   UNK N   1       5.354   0.316   0.054  0.00  0.00     0.169 HD
ENDBRANCH  16  19
ENDBRANCH  11  16
BRANCH   5  22
HETATM   22  C   UNK N   1      -3.928   1.884  -0.369  0.00  0.00     0.221 C 
HETATM   23 Cl   UNK N   1      -5.527   1.173  -0.013  0.00  0.00    -0.104 Cl
HETATM   24 Cl   UNK N   1      -3.770   3.410   0.542  0.00  0.00    -0.104 Cl
ENDBRANCH   5  22
TORSDOF 3
