MODEL 1
REMARK VINA RESULT:      -7.1      0.000      0.000
REMARK  8 active torsions:
REMARK  status: ('A' for Active; 'I' for Inactive)
REMARK    1  A    between atoms: C_2  and  N_1 
REMARK    2  A    between atoms: C_2  and  C_3 
REMARK    3  A    between atoms: C_2  and  C_15 
REMARK    4  A    between atoms: C_3  and  C_4 
REMARK    5  A    between atoms: C_10  and  O_14 
REMARK    6  A    between atoms: C_12  and  N_13 
REMARK    7  A    between atoms: N_13  and  N_17 
REMARK    8  A    between atoms: N_17  and  C_18 
ROOT
HETATM    1  C   UNK N   1      34.429  15.530   8.982  0.00  0.00    -0.028 A 
HETATM    2  C   UNK N   1      35.291  14.865   9.810  0.00  0.00     0.001 A 
HETATM    3  C   UNK N   1      34.548  14.402  10.852  0.00  0.00     0.079 A 
HETATM    4  C   UNK N   1      36.665  14.660   9.727  0.00  0.00     0.017 A 
HETATM    5  C   UNK N   1      33.166  15.438   9.556  0.00  0.00     0.096 A 
HETATM    6  N   UNK N   1      33.251  14.732  10.713  0.00  0.00    -0.362 N 
HETATM    7  C   UNK N   1      35.127  13.704  11.904  0.00  0.00     0.121 A 
HETATM    8  C   UNK N   1      37.287  13.949  10.769  0.00  0.00     0.035 A 
HETATM    9  C   UNK N   1      36.532  13.475  11.868  0.00  0.00     0.083 A 
HETATM   10  H   UNK N   1      32.513  14.506  11.325  0.00  0.00     0.165 HD
ENDROOT
BRANCH   9  11
HETATM   11  N   UNK N   1      37.195  12.768  12.904  0.00  0.00    -0.298 N 
HETATM   12  H   UNK N   1      37.623  11.903  12.710  0.00  0.00     0.187 HD
BRANCH  11  13
HETATM   13  N   UNK N   1      37.243  13.283  14.175  0.00  0.00    -0.300 N 
HETATM   14  H   UNK N   1      37.701  14.142  14.325  0.00  0.00     0.187 HD
BRANCH  13  15
HETATM   15  C   UNK N   1      36.656  12.623  15.272  0.00  0.00     0.048 A 
HETATM   16  C   UNK N   1      35.866  13.361  16.158  0.00  0.00     0.031 A 
HETATM   17  C   UNK N   1      35.208  12.723  17.211  0.00  0.00     0.002 A 
HETATM   18  C   UNK N   1      35.340  11.342  17.381  0.00  0.00     0.000 A 
HETATM   19  C   UNK N   1      36.132  10.600  16.500  0.00  0.00     0.002 A 
HETATM   20  C   UNK N   1      36.785  11.237  15.440  0.00  0.00     0.031 A 
ENDBRANCH  13  15
ENDBRANCH  11  13
ENDBRANCH   9  11
BRANCH   7  21
HETATM   21  O   UNK N   1      34.357  13.266  12.917  0.00  0.00    -0.356 OA
HETATM   22  H   UNK N   1      33.477  13.576  13.009  0.00  0.00     0.218 HD
ENDBRANCH   7  21
BRANCH   1  23
HETATM   23  C   UNK N   1      34.812  16.266   7.743  0.00  0.00     0.072 C 
BRANCH  23  24
HETATM   24  C   UNK N   1      33.744  17.289   7.377  0.00  0.00     0.140 C 
BRANCH  24  25
HETATM   25  N   UNK N   1      33.704  17.481   5.934  0.00  0.00    -0.420 N 
HETATM   26  H   UNK N   1      32.869  17.866   5.492  0.00  0.00     0.150 HD
HETATM   27  H   UNK N   1      34.512  17.231   5.364  0.00  0.00     0.150 HD
ENDBRANCH  24  25
BRANCH  24  28
HETATM   28  C   UNK N   1      34.043  18.574   8.088  0.00  0.00     0.255 C 
HETATM   29  O   UNK N   1      35.187  18.906   8.349  0.00  0.00    -0.305 OA
ENDBRANCH  24  28
ENDBRANCH  23  24
ENDBRANCH   1  23
TORSDOF 8
ENDMDL
MODEL 2
REMARK VINA RESULT:      -6.7      2.541      3.138
REMARK  8 active torsions:
REMARK  status: ('A' for Active; 'I' for Inactive)
REMARK    1  A    between atoms: C_2  and  N_1 
REMARK    2  A    between atoms: C_2  and  C_3 
REMARK    3  A    between atoms: C_2  and  C_15 
REMARK    4  A    between atoms: C_3  and  C_4 
REMARK    5  A    between atoms: C_10  and  O_14 
REMARK    6  A    between atoms: C_12  and  N_13 
REMARK    7  A    between atoms: N_13  and  N_17 
REMARK    8  A    between atoms: N_17  and  C_18 
ROOT
HETATM    1  C   UNK N   1      33.073  16.742   8.376  0.00  0.00    -0.028 A 
HETATM    2  C   UNK N   1      33.735  15.792   9.103  0.00  0.00     0.001 A 
HETATM    3  C   UNK N   1      34.852  16.390   9.600  0.00  0.00     0.079 A 
HETATM    4  C   UNK N   1      33.443  14.451   9.338  0.00  0.00     0.017 A 
HETATM    5  C   UNK N   1      33.821  17.910   8.465  0.00  0.00     0.096 A 
HETATM    6  N   UNK N   1      34.919  17.682   9.231  0.00  0.00    -0.362 N 
HETATM    7  C   UNK N   1      35.774  15.688  10.365  0.00  0.00     0.121 A 
HETATM    8  C   UNK N   1      34.349  13.708  10.117  0.00  0.00     0.035 A 
HETATM    9  C   UNK N   1      35.523  14.311  10.626  0.00  0.00     0.083 A 
HETATM   10  H   UNK N   1      35.620  18.331   9.469  0.00  0.00     0.165 HD
ENDROOT
BRANCH   9  11
HETATM   11  N   UNK N   1      36.417  13.528  11.402  0.00  0.00    -0.298 N 
HETATM   12  H   UNK N   1      36.749  12.671  11.049  0.00  0.00     0.187 HD
BRANCH  11  13
HETATM   13  N   UNK N   1      36.820  13.959  12.641  0.00  0.00    -0.300 N 
HETATM   14  H   UNK N   1      37.555  14.611  12.703  0.00  0.00     0.187 HD
BRANCH  13  15
HETATM   15  C   UNK N   1      36.216  13.497  13.826  0.00  0.00     0.048 A 
HETATM   16  C   UNK N   1      36.672  13.994  15.051  0.00  0.00     0.031 A 
HETATM   17  C   UNK N   1      36.045  13.616  16.239  0.00  0.00     0.002 A 
HETATM   18  C   UNK N   1      34.958  12.738  16.205  0.00  0.00     0.000 A 
HETATM   19  C   UNK N   1      34.501  12.236  14.983  0.00  0.00     0.002 A 
HETATM   20  C   UNK N   1      35.124  12.620  13.792  0.00  0.00     0.031 A 
ENDBRANCH  13  15
ENDBRANCH  11  13
ENDBRANCH   9  11
BRANCH   7  21
HETATM   21  O   UNK N   1      36.867  16.317  10.834  0.00  0.00    -0.356 OA
HETATM   22  H   UNK N   1      36.802  16.884  11.577  0.00  0.00     0.218 HD
ENDBRANCH   7  21
BRANCH   1  23
HETATM   23  C   UNK N   1      31.827  16.518   7.587  0.00  0.00     0.072 C 
BRANCH  23  24
HETATM   24  C   UNK N   1      30.708  17.423   8.088  0.00  0.00     0.140 C 
BRANCH  24  25
HETATM   25  N   UNK N   1      30.398  17.117   9.478  0.00  0.00    -0.420 N 
HETATM   26  H   UNK N   1      30.447  17.850  10.186  0.00  0.00     0.150 HD
HETATM   27  H   UNK N   1      30.133  16.169   9.744  0.00  0.00     0.150 HD
ENDBRANCH  24  25
BRANCH  24  28
HETATM   28  C   UNK N   1      29.508  17.238   7.211  0.00  0.00     0.255 C 
HETATM   29  O   UNK N   1      28.723  18.148   7.005  0.00  0.00    -0.305 OA
ENDBRANCH  24  28
ENDBRANCH  23  24
ENDBRANCH   1  23
TORSDOF 8
ENDMDL
MODEL 3
REMARK VINA RESULT:      -6.7      5.591     11.361
REMARK  8 active torsions:
REMARK  status: ('A' for Active; 'I' for Inactive)
REMARK    1  A    between atoms: C_2  and  N_1 
REMARK    2  A    between atoms: C_2  and  C_3 
REMARK    3  A    between atoms: C_2  and  C_15 
REMARK    4  A    between atoms: C_3  and  C_4 
REMARK    5  A    between atoms: C_10  and  O_14 
REMARK    6  A    between atoms: C_12  and  N_13 
REMARK    7  A    between atoms: N_13  and  N_17 
REMARK    8  A    between atoms: N_17  and  C_18 
ROOT
HETATM    1  C   UNK N   1      33.015  17.113   7.535  0.00  0.00    -0.028 A 
HETATM    2  C   UNK N   1      31.851  17.250   6.830  0.00  0.00     0.001 A 
HETATM    3  C   UNK N   1      32.198  17.315   5.516  0.00  0.00     0.079 A 
HETATM    4  C   UNK N   1      30.529  17.344   7.255  0.00  0.00     0.017 A 
HETATM    5  C   UNK N   1      34.048  17.090   6.605  0.00  0.00     0.096 A 
HETATM    6  N   UNK N   1      33.530  17.210   5.357  0.00  0.00    -0.362 N 
HETATM    7  C   UNK N   1      31.247  17.492   4.520  0.00  0.00     0.121 A 
HETATM    8  C   UNK N   1      29.534  17.515   6.275  0.00  0.00     0.035 A 
HETATM    9  C   UNK N   1      29.881  17.601   4.906  0.00  0.00     0.083 A 
HETATM   10  H   UNK N   1      34.028  17.218   4.507  0.00  0.00     0.165 HD
ENDROOT
BRANCH   9  11
HETATM   11  N   UNK N   1      28.850  17.780   3.947  0.00  0.00    -0.298 N 
HETATM   12  H   UNK N   1      28.585  17.029   3.368  0.00  0.00     0.187 HD
BRANCH  11  13
HETATM   13  N   UNK N   1      28.223  18.994   3.821  0.00  0.00    -0.300 N 
HETATM   14  H   UNK N   1      28.771  19.804   3.705  0.00  0.00     0.187 HD
BRANCH  13  15
HETATM   15  C   UNK N   1      26.820  19.117   3.852  0.00  0.00     0.048 A 
HETATM   16  C   UNK N   1      26.235  20.267   3.315  0.00  0.00     0.031 A 
HETATM   17  C   UNK N   1      24.845  20.387   3.259  0.00  0.00     0.002 A 
HETATM   18  C   UNK N   1      24.037  19.355   3.743  0.00  0.00     0.000 A 
HETATM   19  C   UNK N   1      24.618  18.205   4.284  0.00  0.00     0.002 A 
HETATM   20  C   UNK N   1      26.009  18.080   4.333  0.00  0.00     0.031 A 
ENDBRANCH  13  15
ENDBRANCH  11  13
ENDBRANCH   9  11
BRANCH   7  21
HETATM   21  O   UNK N   1      31.633  17.554   3.233  0.00  0.00    -0.356 OA
HETATM   22  H   UNK N   1      31.489  18.335   2.734  0.00  0.00     0.218 HD
ENDBRANCH   7  21
BRANCH   1  23
HETATM   23  C   UNK N   1      33.128  17.072   9.022  0.00  0.00     0.072 C 
BRANCH  23  24
HETATM   24  C   UNK N   1      33.958  15.871   9.461  0.00  0.00     0.140 C 
BRANCH  24  25
HETATM   25  N   UNK N   1      33.191  15.039  10.378  0.00  0.00    -0.420 N 
HETATM   26  H   UNK N   1      33.629  14.674  11.225  0.00  0.00     0.150 HD
HETATM   27  H   UNK N   1      32.216  14.821  10.174  0.00  0.00     0.150 HD
ENDBRANCH  24  25
BRANCH  24  28
HETATM   28  C   UNK N   1      35.219  16.365  10.101  0.00  0.00     0.255 C 
HETATM   29  O   UNK N   1      35.491  17.554  10.141  0.00  0.00    -0.305 OA
ENDBRANCH  24  28
ENDBRANCH  23  24
ENDBRANCH   1  23
TORSDOF 8
ENDMDL
MODEL 4
REMARK VINA RESULT:      -6.7      1.931      2.621
REMARK  8 active torsions:
REMARK  status: ('A' for Active; 'I' for Inactive)
REMARK    1  A    between atoms: C_2  and  N_1 
REMARK    2  A    between atoms: C_2  and  C_3 
REMARK    3  A    between atoms: C_2  and  C_15 
REMARK    4  A    between atoms: C_3  and  C_4 
REMARK    5  A    between atoms: C_10  and  O_14 
REMARK    6  A    between atoms: C_12  and  N_13 
REMARK    7  A    between atoms: N_13  and  N_17 
REMARK    8  A    between atoms: N_17  and  C_18 
ROOT
HETATM    1  C   UNK N   1      35.122  14.955   8.794  0.00  0.00    -0.028 A 
HETATM    2  C   UNK N   1      35.448  14.582  10.069  0.00  0.00     0.001 A 
HETATM    3  C   UNK N   1      36.663  13.974   9.998  0.00  0.00     0.079 A 
HETATM    4  C   UNK N   1      34.752  14.715  11.268  0.00  0.00     0.017 A 
HETATM    5  C   UNK N   1      36.176  14.561   7.978  0.00  0.00     0.096 A 
HETATM    6  N   UNK N   1      37.128  13.959   8.735  0.00  0.00    -0.362 N 
HETATM    7  C   UNK N   1      37.276  13.439  11.123  0.00  0.00     0.121 A 
HETATM    8  C   UNK N   1      35.345  14.194  12.432  0.00  0.00     0.035 A 
HETATM    9  C   UNK N   1      36.600  13.545  12.372  0.00  0.00     0.083 A 
HETATM   10  H   UNK N   1      37.986  13.588   8.424  0.00  0.00     0.165 HD
ENDROOT
BRANCH   9  11
HETATM   11  N   UNK N   1      37.163  13.025  13.566  0.00  0.00    -0.298 N 
HETATM   12  H   UNK N   1      38.125  12.819  13.604  0.00  0.00     0.187 HD
BRANCH  11  13
HETATM   13  N   UNK N   1      36.375  12.809  14.668  0.00  0.00    -0.300 N 
HETATM   14  H   UNK N   1      35.830  11.989  14.711  0.00  0.00     0.187 HD
BRANCH  13  15
HETATM   15  C   UNK N   1      36.320  13.721  15.739  0.00  0.00     0.048 A 
HETATM   16  C   UNK N   1      35.467  13.448  16.812  0.00  0.00     0.031 A 
HETATM   17  C   UNK N   1      35.444  14.291  17.925  0.00  0.00     0.002 A 
HETATM   18  C   UNK N   1      36.278  15.411  17.966  0.00  0.00     0.000 A 
HETATM   19  C   UNK N   1      37.131  15.690  16.894  0.00  0.00     0.002 A 
HETATM   20  C   UNK N   1      37.159  14.843  15.783  0.00  0.00     0.031 A 
ENDBRANCH  13  15
ENDBRANCH  11  13
ENDBRANCH   9  11
BRANCH   7  21
HETATM   21  O   UNK N   1      38.477  12.843  11.008  0.00  0.00    -0.356 OA
HETATM   22  H   UNK N   1      38.793  12.284  11.690  0.00  0.00     0.218 HD
ENDBRANCH   7  21
BRANCH   1  23
HETATM   23  C   UNK N   1      33.841  15.595   8.379  0.00  0.00     0.072 C 
BRANCH  23  24
HETATM   24  C   UNK N   1      33.763  17.025   8.902  0.00  0.00     0.140 C 
BRANCH  24  25
HETATM   25  N   UNK N   1      32.378  17.473   8.938  0.00  0.00    -0.420 N 
HETATM   26  H   UNK N   1      31.620  16.790   8.960  0.00  0.00     0.150 HD
HETATM   27  H   UNK N   1      32.165  18.470   8.942  0.00  0.00     0.150 HD
ENDBRANCH  24  25
BRANCH  24  28
HETATM   28  C   UNK N   1      34.596  17.906   8.022  0.00  0.00     0.255 C 
HETATM   29  O   UNK N   1      34.902  19.038   8.360  0.00  0.00    -0.305 OA
ENDBRANCH  24  28
ENDBRANCH  23  24
ENDBRANCH   1  23
TORSDOF 8
ENDMDL
MODEL 5
REMARK VINA RESULT:      -6.6      2.799      8.134
REMARK  8 active torsions:
REMARK  status: ('A' for Active; 'I' for Inactive)
REMARK    1  A    between atoms: C_2  and  N_1 
REMARK    2  A    between atoms: C_2  and  C_3 
REMARK    3  A    between atoms: C_2  and  C_15 
REMARK    4  A    between atoms: C_3  and  C_4 
REMARK    5  A    between atoms: C_10  and  O_14 
REMARK    6  A    between atoms: C_12  and  N_13 
REMARK    7  A    between atoms: N_13  and  N_17 
REMARK    8  A    between atoms: N_17  and  C_18 
ROOT
HETATM    1  C   UNK N   1      34.967  15.063  11.189  0.00  0.00    -0.028 A 
HETATM    2  C   UNK N   1      34.223  15.166  10.047  0.00  0.00     0.001 A 
HETATM    3  C   UNK N   1      34.418  16.425   9.568  0.00  0.00     0.079 A 
HETATM    4  C   UNK N   1      33.378  14.255   9.418  0.00  0.00     0.017 A 
HETATM    5  C   UNK N   1      35.609  16.284  11.363  0.00  0.00     0.096 A 
HETATM    6  N   UNK N   1      35.266  17.119  10.350  0.00  0.00    -0.362 N 
HETATM    7  C   UNK N   1      33.773  16.877   8.424  0.00  0.00     0.121 A 
HETATM    8  C   UNK N   1      32.713  14.673   8.251  0.00  0.00     0.035 A 
HETATM    9  C   UNK N   1      32.893  15.983   7.750  0.00  0.00     0.083 A 
HETATM   10  H   UNK N   1      35.576  18.044  10.213  0.00  0.00     0.165 HD
ENDROOT
BRANCH   9  11
HETATM   11  N   UNK N   1      32.200  16.371   6.574  0.00  0.00    -0.298 N 
HETATM   12  H   UNK N   1      32.324  15.858   5.743  0.00  0.00     0.187 HD
BRANCH  11  13
HETATM   13  N   UNK N   1      31.361  17.456   6.589  0.00  0.00    -0.300 N 
HETATM   14  H   UNK N   1      31.519  18.190   5.952  0.00  0.00     0.187 HD
BRANCH  13  15
HETATM   15  C   UNK N   1      30.280  17.553   7.487  0.00  0.00     0.048 A 
HETATM   16  C   UNK N   1      30.458  18.260   8.680  0.00  0.00     0.031 A 
HETATM   17  C   UNK N   1      29.387  18.440   9.556  0.00  0.00     0.002 A 
HETATM   18  C   UNK N   1      28.132  17.912   9.240  0.00  0.00     0.000 A 
HETATM   19  C   UNK N   1      27.950  17.202   8.050  0.00  0.00     0.002 A 
HETATM   20  C   UNK N   1      29.021  17.027   7.169  0.00  0.00     0.031 A 
ENDBRANCH  13  15
ENDBRANCH  11  13
ENDBRANCH   9  11
BRANCH   7  21
HETATM   21  O   UNK N   1      33.992  18.131   7.987  0.00  0.00    -0.356 OA
HETATM   22  H   UNK N   1      34.260  18.281   7.101  0.00  0.00     0.218 HD
ENDBRANCH   7  21
BRANCH   1  23
HETATM   23  C   UNK N   1      35.005  13.878  12.094  0.00  0.00     0.072 C 
BRANCH  23  24
HETATM   24  C   UNK N   1      36.213  13.953  13.022  0.00  0.00     0.140 C 
BRANCH  24  25
HETATM   25  N   UNK N   1      37.354  13.282  12.416  0.00  0.00    -0.420 N 
HETATM   26  H   UNK N   1      37.208  12.491  11.788  0.00  0.00     0.150 HD
HETATM   27  H   UNK N   1      38.301  13.602  12.620  0.00  0.00     0.150 HD
ENDBRANCH  24  25
BRANCH  24  28
HETATM   28  C   UNK N   1      35.851  13.332  14.335  0.00  0.00     0.255 C 
HETATM   29  O   UNK N   1      34.693  13.264  14.712  0.00  0.00    -0.305 OA
ENDBRANCH  24  28
ENDBRANCH  23  24
ENDBRANCH   1  23
TORSDOF 8
ENDMDL
MODEL 6
REMARK VINA RESULT:      -6.6     18.152     21.684
REMARK  8 active torsions:
REMARK  status: ('A' for Active; 'I' for Inactive)
REMARK    1  A    between atoms: C_2  and  N_1 
REMARK    2  A    between atoms: C_2  and  C_3 
REMARK    3  A    between atoms: C_2  and  C_15 
REMARK    4  A    between atoms: C_3  and  C_4 
REMARK    5  A    between atoms: C_10  and  O_14 
REMARK    6  A    between atoms: C_12  and  N_13 
REMARK    7  A    between atoms: N_13  and  N_17 
REMARK    8  A    between atoms: N_17  and  C_18 
ROOT
HETATM    1  C   UNK N   1      30.403  22.643  -4.182  0.00  0.00    -0.028 A 
HETATM    2  C   UNK N   1      29.207  23.092  -4.668  0.00  0.00     0.001 A 
HETATM    3  C   UNK N   1      28.527  23.611  -3.609  0.00  0.00     0.079 A 
HETATM    4  C   UNK N   1      28.669  23.057  -5.951  0.00  0.00     0.017 A 
HETATM    5  C   UNK N   1      30.413  22.918  -2.819  0.00  0.00     0.096 A 
HETATM    6  N   UNK N   1      29.247  23.524  -2.476  0.00  0.00    -0.362 N 
HETATM    7  C   UNK N   1      27.246  24.128  -3.750  0.00  0.00     0.121 A 
HETATM    8  C   UNK N   1      27.377  23.580  -6.137  0.00  0.00     0.035 A 
HETATM    9  C   UNK N   1      26.650  24.108  -5.043  0.00  0.00     0.083 A 
HETATM   10  H   UNK N   1      28.983  23.836  -1.580  0.00  0.00     0.165 HD
ENDROOT
BRANCH   9  11
HETATM   11  N   UNK N   1      25.346  24.620  -5.267  0.00  0.00    -0.298 N 
HETATM   12  H   UNK N   1      24.567  24.165  -4.872  0.00  0.00     0.187 HD
BRANCH  11  13
HETATM   13  N   UNK N   1      25.165  25.745  -6.031  0.00  0.00    -0.300 N 
HETATM   14  H   UNK N   1      24.581  25.695  -6.823  0.00  0.00     0.187 HD
BRANCH  13  15
HETATM   15  C   UNK N   1      25.787  26.970  -5.719  0.00  0.00     0.048 A 
HETATM   16  C   UNK N   1      25.415  27.633  -4.547  0.00  0.00     0.031 A 
HETATM   17  C   UNK N   1      26.066  28.809  -4.168  0.00  0.00     0.002 A 
HETATM   18  C   UNK N   1      27.093  29.324  -4.964  0.00  0.00     0.000 A 
HETATM   19  C   UNK N   1      27.466  28.665  -6.139  0.00  0.00     0.002 A 
HETATM   20  C   UNK N   1      26.820  27.484  -6.515  0.00  0.00     0.031 A 
ENDBRANCH  13  15
ENDBRANCH  11  13
ENDBRANCH   9  11
BRANCH   7  21
HETATM   21  O   UNK N   1      26.607  24.629  -2.677  0.00  0.00    -0.356 OA
HETATM   22  H   UNK N   1      25.701  24.862  -2.733  0.00  0.00     0.218 HD
ENDBRANCH   7  21
BRANCH   1  23
HETATM   23  C   UNK N   1      31.448  21.931  -4.973  0.00  0.00     0.072 C 
BRANCH  23  24
HETATM   24  C   UNK N   1      31.190  20.429  -4.969  0.00  0.00     0.140 C 
BRANCH  24  25
HETATM   25  N   UNK N   1      32.255  19.738  -4.256  0.00  0.00    -0.420 N 
HETATM   26  H   UNK N   1      32.373  19.878  -3.252  0.00  0.00     0.150 HD
HETATM   27  H   UNK N   1      32.884  19.113  -4.760  0.00  0.00     0.150 HD
ENDBRANCH  24  25
BRANCH  24  28
HETATM   28  C   UNK N   1      31.089  19.954  -6.386  0.00  0.00     0.255 C 
HETATM   29  O   UNK N   1      30.027  19.961  -6.986  0.00  0.00    -0.305 OA
ENDBRANCH  24  28
ENDBRANCH  23  24
ENDBRANCH   1  23
TORSDOF 8
ENDMDL
MODEL 7
REMARK VINA RESULT:      -6.5     12.388     16.513
REMARK  8 active torsions:
REMARK  status: ('A' for Active; 'I' for Inactive)
REMARK    1  A    between atoms: C_2  and  N_1 
REMARK    2  A    between atoms: C_2  and  C_3 
REMARK    3  A    between atoms: C_2  and  C_15 
REMARK    4  A    between atoms: C_3  and  C_4 
REMARK    5  A    between atoms: C_10  and  O_14 
REMARK    6  A    between atoms: C_12  and  N_13 
REMARK    7  A    between atoms: N_13  and  N_17 
REMARK    8  A    between atoms: N_17  and  C_18 
ROOT
HETATM    1  C   UNK N   1      21.772  12.843  10.034  0.00  0.00    -0.028 A 
HETATM    2  C   UNK N   1      21.990  13.724   9.011  0.00  0.00     0.001 A 
HETATM    3  C   UNK N   1      20.870  14.492   8.914  0.00  0.00     0.079 A 
HETATM    4  C   UNK N   1      23.076  13.882   8.155  0.00  0.00     0.017 A 
HETATM    5  C   UNK N   1      20.506  13.118  10.539  0.00  0.00     0.096 A 
HETATM    6  N   UNK N   1      19.959  14.145   9.842  0.00  0.00    -0.362 N 
HETATM    7  C   UNK N   1      20.744  15.475   7.942  0.00  0.00     0.121 A 
HETATM    8  C   UNK N   1      22.990  14.875   7.162  0.00  0.00     0.035 A 
HETATM    9  C   UNK N   1      21.827  15.670   7.038  0.00  0.00     0.083 A 
HETATM   10  H   UNK N   1      19.075  14.555   9.986  0.00  0.00     0.165 HD
ENDROOT
BRANCH   9  11
HETATM   11  N   UNK N   1      21.774  16.657   6.019  0.00  0.00    -0.298 N 
HETATM   12  H   UNK N   1      22.454  17.369   5.993  0.00  0.00     0.187 HD
BRANCH  11  13
HETATM   13  N   UNK N   1      20.781  16.625   5.073  0.00  0.00    -0.300 N 
HETATM   14  H   UNK N   1      20.110  15.905   5.110  0.00  0.00     0.187 HD
BRANCH  13  15
HETATM   15  C   UNK N   1      20.691  17.589   4.050  0.00  0.00     0.048 A 
HETATM   16  C   UNK N   1      21.120  18.893   4.315  0.00  0.00     0.031 A 
HETATM   17  C   UNK N   1      21.116  19.853   3.303  0.00  0.00     0.002 A 
HETATM   18  C   UNK N   1      20.684  19.510   2.019  0.00  0.00     0.000 A 
HETATM   19  C   UNK N   1      20.251  18.208   1.749  0.00  0.00     0.002 A 
HETATM   20  C   UNK N   1      20.261  17.244   2.762  0.00  0.00     0.031 A 
ENDBRANCH  13  15
ENDBRANCH  11  13
ENDBRANCH   9  11
BRANCH   7  21
HETATM   21  O   UNK N   1      19.619  16.210   7.879  0.00  0.00    -0.356 OA
HETATM   22  H   UNK N   1      18.912  16.041   8.470  0.00  0.00     0.218 HD
ENDBRANCH   7  21
BRANCH   1  23
HETATM   23  C   UNK N   1      22.703  11.757  10.456  0.00  0.00     0.072 C 
BRANCH  23  24
HETATM   24  C   UNK N   1      23.682  12.271  11.505  0.00  0.00     0.140 C 
BRANCH  24  25
HETATM   25  N   UNK N   1      25.037  11.851  11.177  0.00  0.00    -0.420 N 
HETATM   26  H   UNK N   1      25.493  11.122  11.726  0.00  0.00     0.150 HD
HETATM   27  H   UNK N   1      25.531  12.285  10.398  0.00  0.00     0.150 HD
ENDBRANCH  24  25
BRANCH  24  28
HETATM   28  C   UNK N   1      23.264  11.756  12.848  0.00  0.00     0.255 C 
HETATM   29  O   UNK N   1      23.710  12.229  13.880  0.00  0.00    -0.305 OA
ENDBRANCH  24  28
ENDBRANCH  23  24
ENDBRANCH   1  23
TORSDOF 8
ENDMDL
MODEL 8
REMARK VINA RESULT:      -6.5      4.742      8.310
REMARK  8 active torsions:
REMARK  status: ('A' for Active; 'I' for Inactive)
REMARK    1  A    between atoms: C_2  and  N_1 
REMARK    2  A    between atoms: C_2  and  C_3 
REMARK    3  A    between atoms: C_2  and  C_15 
REMARK    4  A    between atoms: C_3  and  C_4 
REMARK    5  A    between atoms: C_10  and  O_14 
REMARK    6  A    between atoms: C_12  and  N_13 
REMARK    7  A    between atoms: N_13  and  N_17 
REMARK    8  A    between atoms: N_17  and  C_18 
ROOT
HETATM    1  C   UNK N   1      35.201  13.029  17.088  0.00  0.00    -0.028 A 
HETATM    2  C   UNK N   1      35.282  11.757  17.583  0.00  0.00     0.001 A 
HETATM    3  C   UNK N   1      35.359  11.870  18.937  0.00  0.00     0.079 A 
HETATM    4  C   UNK N   1      35.317  10.525  16.937  0.00  0.00     0.017 A 
HETATM    5  C   UNK N   1      35.222  13.888  18.182  0.00  0.00     0.096 A 
HETATM    6  N   UNK N   1      35.315  13.159  19.322  0.00  0.00    -0.362 N 
HETATM    7  C   UNK N   1      35.490  10.755  19.754  0.00  0.00     0.121 A 
HETATM    8  C   UNK N   1      35.439   9.370  17.731  0.00  0.00     0.035 A 
HETATM    9  C   UNK N   1      35.537   9.472  19.138  0.00  0.00     0.083 A 
HETATM   10  H   UNK N   1      35.342  13.502  20.245  0.00  0.00     0.165 HD
ENDROOT
BRANCH   9  11
HETATM   11  N   UNK N   1      35.666   8.285  19.906  0.00  0.00    -0.298 N 
HETATM   12  H   UNK N   1      36.453   7.707  19.784  0.00  0.00     0.187 HD
BRANCH  11  13
HETATM   13  N   UNK N   1      34.699   7.940  20.817  0.00  0.00    -0.300 N 
HETATM   14  H   UNK N   1      34.964   7.759  21.748  0.00  0.00     0.187 HD
BRANCH  13  15
HETATM   15  C   UNK N   1      33.340   7.837  20.462  0.00  0.00     0.048 A 
HETATM   16  C   UNK N   1      32.892   6.663  19.849  0.00  0.00     0.031 A 
HETATM   17  C   UNK N   1      31.538   6.497  19.554  0.00  0.00     0.002 A 
HETATM   18  C   UNK N   1      30.627   7.507  19.872  0.00  0.00     0.000 A 
HETATM   19  C   UNK N   1      31.070   8.684  20.482  0.00  0.00     0.002 A 
HETATM   20  C   UNK N   1      32.425   8.848  20.785  0.00  0.00     0.031 A 
ENDBRANCH  13  15
ENDBRANCH  11  13
ENDBRANCH   9  11
BRANCH   7  21
HETATM   21  O   UNK N   1      35.565  10.911  21.088  0.00  0.00    -0.356 OA
HETATM   22  H   UNK N   1      36.020  10.281  21.612  0.00  0.00     0.218 HD
ENDBRANCH   7  21
BRANCH   1  23
HETATM   23  C   UNK N   1      35.170  13.398  15.643  0.00  0.00     0.072 C 
BRANCH  23  24
HETATM   24  C   UNK N   1      36.580  13.415  15.066  0.00  0.00     0.140 C 
BRANCH  24  25
HETATM   25  N   UNK N   1      37.275  14.628  15.472  0.00  0.00    -0.420 N 
HETATM   26  H   UNK N   1      37.663  14.705  16.413  0.00  0.00     0.150 HD
HETATM   27  H   UNK N   1      37.374  15.402  14.816  0.00  0.00     0.150 HD
ENDBRANCH  24  25
BRANCH  24  28
HETATM   28  C   UNK N   1      36.492  13.313  13.574  0.00  0.00     0.255 C 
HETATM   29  O   UNK N   1      35.589  13.848  12.951  0.00  0.00    -0.305 OA
ENDBRANCH  24  28
ENDBRANCH  23  24
ENDBRANCH   1  23
TORSDOF 8
ENDMDL
MODEL 9
REMARK VINA RESULT:      -6.4      2.086      2.378
REMARK  8 active torsions:
REMARK  status: ('A' for Active; 'I' for Inactive)
REMARK    1  A    between atoms: C_2  and  N_1 
REMARK    2  A    between atoms: C_2  and  C_3 
REMARK    3  A    between atoms: C_2  and  C_15 
REMARK    4  A    between atoms: C_3  and  C_4 
REMARK    5  A    between atoms: C_10  and  O_14 
REMARK    6  A    between atoms: C_12  and  N_13 
REMARK    7  A    between atoms: N_13  and  N_17 
REMARK    8  A    between atoms: N_17  and  C_18 
ROOT
HETATM    1  C   UNK N   1      33.096  15.849   8.379  0.00  0.00    -0.028 A 
HETATM    2  C   UNK N   1      33.994  15.840   9.410  0.00  0.00     0.001 A 
HETATM    3  C   UNK N   1      33.785  14.684  10.097  0.00  0.00     0.079 A 
HETATM    4  C   UNK N   1      34.951  16.773   9.799  0.00  0.00     0.017 A 
HETATM    5  C   UNK N   1      32.365  14.670   8.470  0.00  0.00     0.096 A 
HETATM    6  N   UNK N   1      32.805  13.953   9.535  0.00  0.00    -0.362 N 
HETATM    7  C   UNK N   1      34.514  14.373  11.238  0.00  0.00     0.121 A 
HETATM    8  C   UNK N   1      35.717  16.490  10.944  0.00  0.00     0.035 A 
HETATM    9  C   UNK N   1      35.501  15.300  11.678  0.00  0.00     0.083 A 
HETATM   10  H   UNK N   1      32.474  13.075   9.836  0.00  0.00     0.165 HD
ENDROOT
BRANCH   9  11
HETATM   11  N   UNK N   1      36.288  15.052  12.833  0.00  0.00    -0.298 N 
HETATM   12  H   UNK N   1      36.385  15.753  13.518  0.00  0.00     0.187 HD
BRANCH  11  13
HETATM   13  N   UNK N   1      36.913  13.842  13.000  0.00  0.00    -0.300 N 
HETATM   14  H   UNK N   1      37.539  13.529  12.307  0.00  0.00     0.187 HD
BRANCH  13  15
HETATM   15  C   UNK N   1      36.688  13.033  14.131  0.00  0.00     0.048 A 
HETATM   16  C   UNK N   1      35.788  13.475  15.105  0.00  0.00     0.031 A 
HETATM   17  C   UNK N   1      35.484  12.665  16.200  0.00  0.00     0.002 A 
HETATM   18  C   UNK N   1      36.080  11.407  16.322  0.00  0.00     0.000 A 
HETATM   19  C   UNK N   1      36.982  10.961  15.352  0.00  0.00     0.002 A 
HETATM   20  C   UNK N   1      37.282  11.770  14.251  0.00  0.00     0.031 A 
ENDBRANCH  13  15
ENDBRANCH  11  13
ENDBRANCH   9  11
BRANCH   7  21
HETATM   21  O   UNK N   1      34.274  13.220  11.888  0.00  0.00    -0.356 OA
HETATM   22  H   UNK N   1      33.978  12.466  11.418  0.00  0.00     0.218 HD
ENDBRANCH   7  21
BRANCH   1  23
HETATM   23  C   UNK N   1      32.911  16.960   7.401  0.00  0.00     0.072 C 
BRANCH  23  24
HETATM   24  C   UNK N   1      31.633  17.734   7.707  0.00  0.00     0.140 C 
BRANCH  24  25
HETATM   25  N   UNK N   1      31.321  17.646   9.126  0.00  0.00    -0.420 N 
HETATM   26  H   UNK N   1      30.926  18.451   9.613  0.00  0.00     0.150 HD
HETATM   27  H   UNK N   1      31.497  16.780   9.634  0.00  0.00     0.150 HD
ENDBRANCH  24  25
BRANCH  24  28
HETATM   28  C   UNK N   1      30.521  17.178   6.871  0.00  0.00     0.255 C 
HETATM   29  O   UNK N   1      29.474  16.803   7.372  0.00  0.00    -0.305 OA
ENDBRANCH  24  28
ENDBRANCH  23  24
ENDBRANCH   1  23
TORSDOF 8
ENDMDL
