MODEL 1
REMARK VINA RESULT:      -5.0      0.000      0.000
REMARK  3 active torsions:
REMARK  status: ('A' for Active; 'I' for Inactive)
REMARK    1  A    between atoms: N_1  and  C_2 
REMARK    2  A    between atoms: C_2  and  C_3 
REMARK    3  A    between atoms: C_3  and  C_4 
ROOT
HETATM    1  C   UNK N   1      21.064  13.399   9.717  0.00  0.00    -0.029 A 
HETATM    2  C   UNK N   1      20.255  12.829  10.700  0.00  0.00     0.096 A 
HETATM    3  N   UNK N   1      21.027  12.143  11.583  0.00  0.00    -0.365 N 
HETATM    4  C   UNK N   1      22.297  12.285  11.155  0.00  0.00     0.042 A 
HETATM    5  C   UNK N   1      23.446  11.757  11.737  0.00  0.00     0.030 A 
HETATM    6  C   UNK N   1      24.680  12.033  11.117  0.00  0.00     0.002 A 
HETATM    7  C   UNK N   1      24.731  12.820   9.944  0.00  0.00     0.001 A 
HETATM    8  C   UNK N   1      23.551  13.336   9.382  0.00  0.00     0.014 A 
HETATM    9  C   UNK N   1      22.349  13.043  10.023  0.00  0.00    -0.002 A 
HETATM   10  H   UNK N   1      20.722  11.643  12.374  0.00  0.00     0.165 HD
ENDROOT
BRANCH   1  11
HETATM   11  C   UNK N   1      20.664  14.239   8.543  0.00  0.00     0.060 C 
BRANCH  11  12
HETATM   12  C   UNK N   1      20.625  15.724   8.843  0.00  0.00     0.115 C 
BRANCH  12  13
HETATM   13  N   UNK N   1      19.242  16.131   9.018  0.00  0.00    -0.430 N 
HETATM   14  H   UNK N   1      19.025  17.005   9.497  0.00  0.00     0.149 HD
HETATM   15  H   UNK N   1      18.489  15.543   8.662  0.00  0.00     0.149 HD
ENDBRANCH  12  13
ENDBRANCH  11  12
ENDBRANCH   1  11
TORSDOF 3
ENDMDL
MODEL 2
REMARK VINA RESULT:      -5.0     17.784     19.816
REMARK  3 active torsions:
REMARK  status: ('A' for Active; 'I' for Inactive)
REMARK    1  A    between atoms: N_1  and  C_2 
REMARK    2  A    between atoms: C_2  and  C_3 
REMARK    3  A    between atoms: C_3  and  C_4 
ROOT
HETATM    1  C   UNK N   1      26.639  24.376  -4.051  0.00  0.00    -0.029 A 
HETATM    2  C   UNK N   1      26.187  23.728  -5.201  0.00  0.00     0.096 A 
HETATM    3  N   UNK N   1      25.501  24.606  -5.978  0.00  0.00    -0.365 N 
HETATM    4  C   UNK N   1      25.525  25.782  -5.321  0.00  0.00     0.042 A 
HETATM    5  C   UNK N   1      24.953  26.985  -5.725  0.00  0.00     0.030 A 
HETATM    6  C   UNK N   1      25.102  28.099  -4.876  0.00  0.00     0.002 A 
HETATM    7  C   UNK N   1      25.813  27.982  -3.660  0.00  0.00     0.001 A 
HETATM    8  C   UNK N   1      26.378  26.752  -3.283  0.00  0.00     0.014 A 
HETATM    9  C   UNK N   1      26.210  25.672  -4.147  0.00  0.00    -0.002 A 
HETATM   10  H   UNK N   1      25.072  24.422  -6.845  0.00  0.00     0.165 HD
ENDROOT
BRANCH   1  11
HETATM   11  C   UNK N   1      27.434  23.819  -2.911  0.00  0.00     0.060 C 
BRANCH  11  12
HETATM   12  C   UNK N   1      28.913  23.677  -3.213  0.00  0.00     0.115 C 
BRANCH  12  13
HETATM   13  N   UNK N   1      29.555  22.998  -2.102  0.00  0.00    -0.430 N 
HETATM   14  H   UNK N   1      28.996  22.663  -1.318  0.00  0.00     0.149 HD
HETATM   15  H   UNK N   1      30.565  22.856  -2.107  0.00  0.00     0.149 HD
ENDBRANCH  12  13
ENDBRANCH  11  12
ENDBRANCH   1  11
TORSDOF 3
ENDMDL
MODEL 3
REMARK VINA RESULT:      -5.0     14.793     15.667
REMARK  3 active torsions:
REMARK  status: ('A' for Active; 'I' for Inactive)
REMARK    1  A    between atoms: N_1  and  C_2 
REMARK    2  A    between atoms: C_2  and  C_3 
REMARK    3  A    between atoms: C_3  and  C_4 
ROOT
HETATM    1  C   UNK N   1      35.289  13.146  17.053  0.00  0.00    -0.029 A 
HETATM    2  C   UNK N   1      35.326  14.145  18.027  0.00  0.00     0.096 A 
HETATM    3  N   UNK N   1      35.278  13.579  19.261  0.00  0.00    -0.365 N 
HETATM    4  C   UNK N   1      35.212  12.248  19.058  0.00  0.00     0.042 A 
HETATM    5  C   UNK N   1      35.146  11.251  20.026  0.00  0.00     0.030 A 
HETATM    6  C   UNK N   1      35.084   9.914  19.586  0.00  0.00     0.002 A 
HETATM    7  C   UNK N   1      35.090   9.614  18.205  0.00  0.00     0.001 A 
HETATM    8  C   UNK N   1      35.157  10.647  17.254  0.00  0.00     0.014 A 
HETATM    9  C   UNK N   1      35.217  11.957  17.726  0.00  0.00    -0.002 A 
HETATM   10  H   UNK N   1      35.289  14.045  20.128  0.00  0.00     0.165 HD
ENDROOT
BRANCH   1  11
HETATM   11  C   UNK N   1      35.319  13.287  15.562  0.00  0.00     0.060 C 
BRANCH  11  12
HETATM   12  C   UNK N   1      36.719  13.377  14.988  0.00  0.00     0.115 C 
BRANCH  12  13
HETATM   13  N   UNK N   1      36.852  14.634  14.273  0.00  0.00    -0.430 N 
HETATM   14  H   UNK N   1      37.570  15.303  14.549  0.00  0.00     0.149 HD
HETATM   15  H   UNK N   1      36.227  14.846  13.496  0.00  0.00     0.149 HD
ENDBRANCH  12  13
ENDBRANCH  11  12
ENDBRANCH   1  11
TORSDOF 3
ENDMDL
MODEL 4
REMARK VINA RESULT:      -4.8      8.174      9.609
REMARK  3 active torsions:
REMARK  status: ('A' for Active; 'I' for Inactive)
REMARK    1  A    between atoms: N_1  and  C_2 
REMARK    2  A    between atoms: C_2  and  C_3 
REMARK    3  A    between atoms: C_3  and  C_4 
ROOT
HETATM    1  C   UNK N   1      22.322  19.761   3.351  0.00  0.00    -0.029 A 
HETATM    2  C   UNK N   1      21.944  18.724   4.205  0.00  0.00     0.096 A 
HETATM    3  N   UNK N   1      23.052  18.157   4.750  0.00  0.00    -0.365 N 
HETATM    4  C   UNK N   1      24.103  18.831   4.243  0.00  0.00     0.042 A 
HETATM    5  C   UNK N   1      25.452  18.612   4.508  0.00  0.00     0.030 A 
HETATM    6  C   UNK N   1      26.389  19.442   3.863  0.00  0.00     0.002 A 
HETATM    7  C   UNK N   1      25.958  20.457   2.979  0.00  0.00     0.001 A 
HETATM    8  C   UNK N   1      24.588  20.650   2.734  0.00  0.00     0.014 A 
HETATM    9  C   UNK N   1      23.689  19.811   3.390  0.00  0.00    -0.002 A 
HETATM   10  H   UNK N   1      23.082  17.407   5.386  0.00  0.00     0.165 HD
ENDROOT
BRANCH   1  11
HETATM   11  C   UNK N   1      21.455  20.668   2.533  0.00  0.00     0.060 C 
BRANCH  11  12
HETATM   12  C   UNK N   1      20.791  19.977   1.358  0.00  0.00     0.115 C 
BRANCH  12  13
HETATM   13  N   UNK N   1      20.483  20.969   0.344  0.00  0.00    -0.430 N 
HETATM   14  H   UNK N   1      19.765  20.778  -0.354  0.00  0.00     0.149 HD
HETATM   15  H   UNK N   1      20.985  21.857   0.331  0.00  0.00     0.149 HD
ENDBRANCH  12  13
ENDBRANCH  11  12
ENDBRANCH   1  11
TORSDOF 3
ENDMDL
MODEL 5
REMARK VINA RESULT:      -4.8      9.181     10.676
REMARK  3 active torsions:
REMARK  status: ('A' for Active; 'I' for Inactive)
REMARK    1  A    between atoms: N_1  and  C_2 
REMARK    2  A    between atoms: C_2  and  C_3 
REMARK    3  A    between atoms: C_3  and  C_4 
ROOT
HETATM    1  C   UNK N   1      30.283  17.315   7.726  0.00  0.00    -0.029 A 
HETATM    2  C   UNK N   1      30.979  17.422   8.932  0.00  0.00     0.096 A 
HETATM    3  N   UNK N   1      32.312  17.498   8.682  0.00  0.00    -0.365 N 
HETATM    4  C   UNK N   1      32.444  17.440   7.342  0.00  0.00     0.042 A 
HETATM    5  C   UNK N   1      33.627  17.481   6.610  0.00  0.00     0.030 A 
HETATM    6  C   UNK N   1      33.531  17.404   5.207  0.00  0.00     0.002 A 
HETATM    7  C   UNK N   1      32.269  17.289   4.581  0.00  0.00     0.001 A 
HETATM    8  C   UNK N   1      31.095  17.250   5.351  0.00  0.00     0.014 A 
HETATM    9  C   UNK N   1      31.228  17.328   6.736  0.00  0.00    -0.002 A 
HETATM   10  H   UNK N   1      33.036  17.580   9.345  0.00  0.00     0.165 HD
ENDROOT
BRANCH   1  11
HETATM   11  C   UNK N   1      28.807  17.206   7.501  0.00  0.00     0.060 C 
BRANCH  11  12
HETATM   12  C   UNK N   1      27.988  17.314   8.772  0.00  0.00     0.115 C 
BRANCH  12  13
HETATM   13  N   UNK N   1      27.570  18.693   8.944  0.00  0.00    -0.430 N 
HETATM   14  H   UNK N   1      27.404  19.062   9.881  0.00  0.00     0.149 HD
HETATM   15  H   UNK N   1      27.442  19.293   8.129  0.00  0.00     0.149 HD
ENDBRANCH  12  13
ENDBRANCH  11  12
ENDBRANCH   1  11
TORSDOF 3
ENDMDL
MODEL 6
REMARK VINA RESULT:      -4.7      8.619     10.137
REMARK  3 active torsions:
REMARK  status: ('A' for Active; 'I' for Inactive)
REMARK    1  A    between atoms: N_1  and  C_2 
REMARK    2  A    between atoms: C_2  and  C_3 
REMARK    3  A    between atoms: C_3  and  C_4 
ROOT
HETATM    1  C   UNK N   1      28.807  18.071   7.368  0.00  0.00    -0.029 A 
HETATM    2  C   UNK N   1      28.251  18.524   8.566  0.00  0.00     0.096 A 
HETATM    3  N   UNK N   1      27.394  19.548   8.311  0.00  0.00    -0.365 N 
HETATM    4  C   UNK N   1      27.416  19.728   6.976  0.00  0.00     0.042 A 
HETATM    5  C   UNK N   1      26.698  20.666   6.240  0.00  0.00     0.030 A 
HETATM    6  C   UNK N   1      26.875  20.678   4.843  0.00  0.00     0.002 A 
HETATM    7  C   UNK N   1      27.756  19.761   4.225  0.00  0.00     0.001 A 
HETATM    8  C   UNK N   1      28.466  18.827   4.999  0.00  0.00     0.014 A 
HETATM    9  C   UNK N   1      28.266  18.844   6.377  0.00  0.00    -0.002 A 
HETATM   10  H   UNK N   1      26.864  20.055   8.967  0.00  0.00     0.165 HD
ENDROOT
BRANCH   1  11
HETATM   11  C   UNK N   1      29.797  16.968   7.151  0.00  0.00     0.060 C 
BRANCH  11  12
HETATM   12  C   UNK N   1      31.188  17.292   7.657  0.00  0.00     0.115 C 
BRANCH  12  13
HETATM   13  N   UNK N   1      31.345  16.734   8.988  0.00  0.00    -0.430 N 
HETATM   14  H   UNK N   1      30.525  16.431   9.513  0.00  0.00     0.149 HD
HETATM   15  H   UNK N   1      32.275  16.645   9.397  0.00  0.00     0.149 HD
ENDBRANCH  12  13
ENDBRANCH  11  12
ENDBRANCH   1  11
TORSDOF 3
ENDMDL
MODEL 7
REMARK VINA RESULT:      -4.7      9.304     10.806
REMARK  3 active torsions:
REMARK  status: ('A' for Active; 'I' for Inactive)
REMARK    1  A    between atoms: N_1  and  C_2 
REMARK    2  A    between atoms: C_2  and  C_3 
REMARK    3  A    between atoms: C_3  and  C_4 
ROOT
HETATM    1  C   UNK N   1      30.077  17.170   6.587  0.00  0.00    -0.029 A 
HETATM    2  C   UNK N   1      30.134  16.977   5.206  0.00  0.00     0.096 A 
HETATM    3  N   UNK N   1      31.426  17.042   4.790  0.00  0.00    -0.365 N 
HETATM    4  C   UNK N   1      32.161  17.272   5.896  0.00  0.00     0.042 A 
HETATM    5  C   UNK N   1      33.543  17.416   5.973  0.00  0.00     0.030 A 
HETATM    6  C   UNK N   1      34.107  17.653   7.242  0.00  0.00     0.002 A 
HETATM    7  C   UNK N   1      33.283  17.738   8.387  0.00  0.00     0.001 A 
HETATM    8  C   UNK N   1      31.890  17.587   8.273  0.00  0.00     0.014 A 
HETATM    9  C   UNK N   1      31.367  17.354   7.002  0.00  0.00    -0.002 A 
HETATM   10  H   UNK N   1      31.758  16.942   3.869  0.00  0.00     0.165 HD
ENDROOT
BRANCH   1  11
HETATM   11  C   UNK N   1      28.878  17.184   7.485  0.00  0.00     0.060 C 
BRANCH  11  12
HETATM   12  C   UNK N   1      28.326  18.572   7.742  0.00  0.00     0.115 C 
BRANCH  12  13
HETATM   13  N   UNK N   1      27.651  18.577   9.027  0.00  0.00    -0.430 N 
HETATM   14  H   UNK N   1      27.603  17.723   9.581  0.00  0.00     0.149 HD
HETATM   15  H   UNK N   1      27.225  19.436   9.375  0.00  0.00     0.149 HD
ENDBRANCH  12  13
ENDBRANCH  11  12
ENDBRANCH   1  11
TORSDOF 3
ENDMDL
MODEL 8
REMARK VINA RESULT:      -4.7     13.485     15.012
REMARK  3 active torsions:
REMARK  status: ('A' for Active; 'I' for Inactive)
REMARK    1  A    between atoms: N_1  and  C_2 
REMARK    2  A    between atoms: C_2  and  C_3 
REMARK    3  A    between atoms: C_3  and  C_4 
ROOT
HETATM    1  C   UNK N   1      35.583  13.278  16.248  0.00  0.00    -0.029 A 
HETATM    2  C   UNK N   1      36.694  13.895  15.672  0.00  0.00     0.096 A 
HETATM    3  N   UNK N   1      36.886  13.408  14.418  0.00  0.00    -0.365 N 
HETATM    4  C   UNK N   1      35.909  12.503  14.217  0.00  0.00     0.042 A 
HETATM    5  C   UNK N   1      35.691  11.738  13.074  0.00  0.00     0.030 A 
HETATM    6  C   UNK N   1      34.601  10.847  13.081  0.00  0.00     0.002 A 
HETATM    7  C   UNK N   1      33.766  10.745  14.217  0.00  0.00     0.001 A 
HETATM    8  C   UNK N   1      34.015  11.532  15.354  0.00  0.00     0.014 A 
HETATM    9  C   UNK N   1      35.102  12.403  15.312  0.00  0.00    -0.002 A 
HETATM   10  H   UNK N   1      37.595  13.665  13.785  0.00  0.00     0.165 HD
ENDROOT
BRANCH   1  11
HETATM   11  C   UNK N   1      34.990  13.490  17.607  0.00  0.00     0.060 C 
BRANCH  11  12
HETATM   12  C   UNK N   1      35.361  12.412  18.606  0.00  0.00     0.115 C 
BRANCH  12  13
HETATM   13  N   UNK N   1      35.339  12.983  19.941  0.00  0.00    -0.430 N 
HETATM   14  H   UNK N   1      34.580  13.605  20.217  0.00  0.00     0.149 HD
HETATM   15  H   UNK N   1      36.084  12.761  20.602  0.00  0.00     0.149 HD
ENDBRANCH  12  13
ENDBRANCH  11  12
ENDBRANCH   1  11
TORSDOF 3
ENDMDL
MODEL 9
REMARK VINA RESULT:      -4.7     14.338     15.362
REMARK  3 active torsions:
REMARK  status: ('A' for Active; 'I' for Inactive)
REMARK    1  A    between atoms: N_1  and  C_2 
REMARK    2  A    between atoms: C_2  and  C_3 
REMARK    3  A    between atoms: C_3  and  C_4 
ROOT
HETATM    1  C   UNK N   1      35.441  11.983  15.445  0.00  0.00    -0.029 A 
HETATM    2  C   UNK N   1      35.748  10.627  15.321  0.00  0.00     0.096 A 
HETATM    3  N   UNK N   1      35.872  10.074  16.556  0.00  0.00    -0.365 N 
HETATM    4  C   UNK N   1      35.646  11.071  17.434  0.00  0.00     0.042 A 
HETATM    5  C   UNK N   1      35.663  10.989  18.824  0.00  0.00     0.030 A 
HETATM    6  C   UNK N   1      35.396  12.165  19.552  0.00  0.00     0.002 A 
HETATM    7  C   UNK N   1      35.122  13.378  18.879  0.00  0.00     0.001 A 
HETATM    8  C   UNK N   1      35.113  13.424  17.474  0.00  0.00     0.014 A 
HETATM    9  C   UNK N   1      35.381  12.242  16.787  0.00  0.00    -0.002 A 
HETATM   10  H   UNK N   1      36.084   9.136  16.768  0.00  0.00     0.165 HD
ENDROOT
BRANCH   1  11
HETATM   11  C   UNK N   1      35.212  12.996  14.366  0.00  0.00     0.060 C 
BRANCH  11  12
HETATM   12  C   UNK N   1      36.487  13.466  13.693  0.00  0.00     0.115 C 
BRANCH  12  13
HETATM   13  N   UNK N   1      36.844  14.769  14.224  0.00  0.00    -0.430 N 
HETATM   14  H   UNK N   1      37.599  14.853  14.904  0.00  0.00     0.149 HD
HETATM   15  H   UNK N   1      36.339  15.600  13.915  0.00  0.00     0.149 HD
ENDBRANCH  12  13
ENDBRANCH  11  12
ENDBRANCH   1  11
TORSDOF 3
ENDMDL
