REMARK  3 active torsions:
REMARK  status: ('A' for Active; 'I' for Inactive)
REMARK    1  A    between atoms: N_1  and  C_2 
REMARK    2  A    between atoms: C_2  and  C_3 
REMARK    3  A    between atoms: C_3  and  C_4 
ROOT
HETATM    1  C   UNK N   1      -0.655  -0.108   0.000  0.00  0.00    -0.029 A 
HETATM    2  C   UNK N   1      -0.700   1.287   0.000  0.00  0.00     0.096 A 
HETATM    3  N   UNK N   1       0.565   1.783  -0.000  0.00  0.00    -0.365 N 
HETATM    4  C   UNK N   1       1.384   0.713  -0.000  0.00  0.00     0.042 A 
HETATM    5  C   UNK N   1       2.776   0.718  -0.000  0.00  0.00     0.030 A 
HETATM    6  C   UNK N   1       3.435  -0.527  -0.000  0.00  0.00     0.002 A 
HETATM    7  C   UNK N   1       2.693  -1.730   0.000  0.00  0.00     0.001 A 
HETATM    8  C   UNK N   1       1.288  -1.698   0.000  0.00  0.00     0.014 A 
HETATM    9  C   UNK N   1       0.670  -0.449   0.000  0.00  0.00    -0.002 A 
HETATM   10  H   UNK N   1       0.830   2.731  -0.000  0.00  0.00     0.165 HD
ENDROOT
BRANCH   1  11
HETATM   11  C   UNK N   1      -1.791  -1.084   0.000  0.00  0.00     0.060 C 
BRANCH  11  12
HETATM   12  C   UNK N   1      -3.157  -0.427   0.000  0.00  0.00     0.115 C 
BRANCH  12  13
HETATM   13  N   UNK N   1      -4.175  -1.462  -0.000  0.00  0.00    -0.430 N 
HETATM   14  H   UNK N   1      -5.162  -1.206  -0.000  0.00  0.00     0.149 HD
HETATM   15  H   UNK N   1      -3.902  -2.445  -0.000  0.00  0.00     0.149 HD
ENDBRANCH  12  13
ENDBRANCH  11  12
ENDBRANCH   1  11
TORSDOF 3
