MODEL 1
REMARK VINA RESULT:      -6.9      0.000      0.000
REMARK  6 active torsions:
REMARK  status: ('A' for Active; 'I' for Inactive)
REMARK    1  A    between atoms: C_6  and  C_22 
REMARK    2  A    between atoms: C_9  and  C_10 
REMARK    3  A    between atoms: C_17  and  C_18 
REMARK    4  A    between atoms: C_17  and  C_22 
REMARK    5  A    between atoms: C_18  and  C_19 
REMARK    6  A    between atoms: C_19  and  O_21 
ROOT
HETATM    1  C   UNK N   1      31.528  14.808   6.390  0.00  0.00    -0.048 A 
HETATM    2  C   UNK N   1      30.420  15.213   5.634  0.00  0.00     0.016 A 
HETATM    3  C   UNK N   1      29.636  16.277   6.077  0.00  0.00    -0.043 A 
HETATM    4  C   UNK N   1      29.940  16.949   7.236  0.00  0.00    -0.045 A 
HETATM    5  C   UNK N   1      31.051  16.583   7.998  0.00  0.00     0.023 A 
HETATM    6  C   UNK N   1      31.860  15.502   7.597  0.00  0.00     0.016 A 
HETATM    7  C   UNK N   1      28.535  16.931   5.322  0.00  0.00    -0.016 C 
HETATM    8  C   UNK N   1      27.934  17.826   6.438  0.00  0.00     0.003 C 
HETATM    9  C   UNK N   1      29.096  18.175   7.409  0.00  0.00     0.027 C 
HETATM   10  C   UNK N   1      27.118  19.014   5.940  0.00  0.00     0.011 C 
HETATM   11  C   UNK N   1      29.147  17.723   4.171  0.00  0.00     0.020 C 
HETATM   12  C   UNK N   1      27.503  15.948   4.785  0.00  0.00     0.020 C 
HETATM   13  C   UNK N   1      32.312  13.652   5.874  0.00  0.00     0.049 C 
ENDROOT
BRANCH   6  14
HETATM   14  C   UNK N   1      33.052  15.179   8.439  0.00  0.00     0.160 C 
HETATM   15  O   UNK N   1      32.929  14.416   9.387  0.00  0.00    -0.292 OA
BRANCH  14  16
HETATM   16  C   UNK N   1      34.360  15.883   8.263  0.00  0.00     0.094 C 
BRANCH  16  17
HETATM   17  C   UNK N   1      34.455  17.154   9.083  0.00  0.00     0.117 C 
BRANCH  17  18
HETATM   18  C   UNK N   1      34.714  18.296   8.157  0.00  0.00     0.139 C 
HETATM   19  O   UNK N   1      34.344  18.240   6.995  0.00  0.00    -0.650 OA
BRANCH  18  20
HETATM   20  O   UNK N   1      35.375  19.383   8.597  0.00  0.00    -0.776 OA
HETATM   21  H   UNK N   1      36.257  19.315   8.905  0.00  0.00     0.167 HD
ENDBRANCH  18  20
ENDBRANCH  17  18
ENDBRANCH  16  17
ENDBRANCH  14  16
ENDBRANCH   6  14
BRANCH   9  22
HETATM   22  C   UNK N   1      28.599  18.430   8.849  0.00  0.00    -0.014 C 
HETATM   23  C   UNK N   1      29.741  18.826   9.768  0.00  0.00     0.010 C 
HETATM   24  C   UNK N   1      27.938  17.197   9.444  0.00  0.00     0.010 C 
ENDBRANCH   9  22
TORSDOF 6
ENDMDL
MODEL 2
REMARK VINA RESULT:      -6.8      3.355      6.594
REMARK  6 active torsions:
REMARK  status: ('A' for Active; 'I' for Inactive)
REMARK    1  A    between atoms: C_6  and  C_22 
REMARK    2  A    between atoms: C_9  and  C_10 
REMARK    3  A    between atoms: C_17  and  C_18 
REMARK    4  A    between atoms: C_17  and  C_22 
REMARK    5  A    between atoms: C_18  and  C_19 
REMARK    6  A    between atoms: C_19  and  O_21 
ROOT
HETATM    1  C   UNK N   1      29.137  17.986   7.641  0.00  0.00    -0.048 A 
HETATM    2  C   UNK N   1      30.383  17.611   8.158  0.00  0.00     0.016 A 
HETATM    3  C   UNK N   1      31.376  17.150   7.295  0.00  0.00    -0.043 A 
HETATM    4  C   UNK N   1      31.160  17.073   5.940  0.00  0.00    -0.045 A 
HETATM    5  C   UNK N   1      29.936  17.462   5.394  0.00  0.00     0.023 A 
HETATM    6  C   UNK N   1      28.899  17.917   6.232  0.00  0.00     0.016 A 
HETATM    7  C   UNK N   1      32.791  16.868   7.654  0.00  0.00    -0.016 C 
HETATM    8  C   UNK N   1      33.268  16.168   6.354  0.00  0.00     0.003 C 
HETATM    9  C   UNK N   1      32.418  16.753   5.192  0.00  0.00     0.027 C 
HETATM   10  C   UNK N   1      34.777  16.182   6.132  0.00  0.00     0.011 C 
HETATM   11  C   UNK N   1      33.492  18.196   7.922  0.00  0.00     0.020 C 
HETATM   12  C   UNK N   1      32.938  15.952   8.862  0.00  0.00     0.020 C 
HETATM   13  C   UNK N   1      28.112  18.449   8.618  0.00  0.00     0.049 C 
ENDROOT
BRANCH   6  14
HETATM   14  C   UNK N   1      27.623  18.347   5.583  0.00  0.00     0.160 C 
HETATM   15  O   UNK N   1      26.654  17.602   5.608  0.00  0.00    -0.292 OA
BRANCH  14  16
HETATM   16  C   UNK N   1      27.534  19.594   4.760  0.00  0.00     0.094 C 
BRANCH  16  17
HETATM   17  C   UNK N   1      26.383  20.487   5.175  0.00  0.00     0.117 C 
BRANCH  17  18
HETATM   18  C   UNK N   1      26.755  21.180   6.444  0.00  0.00     0.139 C 
HETATM   19  O   UNK N   1      27.763  21.867   6.495  0.00  0.00    -0.650 OA
BRANCH  18  20
HETATM   20  O   UNK N   1      25.990  21.031   7.542  0.00  0.00    -0.776 OA
HETATM   21  H   UNK N   1      26.022  21.659   8.236  0.00  0.00     0.167 HD
ENDBRANCH  18  20
ENDBRANCH  17  18
ENDBRANCH  16  17
ENDBRANCH  14  16
ENDBRANCH   6  14
BRANCH   9  22
HETATM   22  C   UNK N   1      32.250  15.751   4.028  0.00  0.00    -0.014 C 
HETATM   23  C   UNK N   1      32.321  14.315   4.518  0.00  0.00     0.010 C 
HETATM   24  C   UNK N   1      33.327  15.928   2.971  0.00  0.00     0.010 C 
ENDBRANCH   9  22
TORSDOF 6
ENDMDL
MODEL 3
REMARK VINA RESULT:      -6.8      6.630      9.878
REMARK  6 active torsions:
REMARK  status: ('A' for Active; 'I' for Inactive)
REMARK    1  A    between atoms: C_6  and  C_22 
REMARK    2  A    between atoms: C_9  and  C_10 
REMARK    3  A    between atoms: C_17  and  C_18 
REMARK    4  A    between atoms: C_17  and  C_22 
REMARK    5  A    between atoms: C_18  and  C_19 
REMARK    6  A    between atoms: C_19  and  O_21 
ROOT
HETATM    1  C   UNK N   1      22.618  16.910   3.606  0.00  0.00    -0.048 A 
HETATM    2  C   UNK N   1      23.816  16.228   3.360  0.00  0.00     0.016 A 
HETATM    3  C   UNK N   1      25.032  16.858   3.619  0.00  0.00    -0.043 A 
HETATM    4  C   UNK N   1      25.077  18.133   4.130  0.00  0.00    -0.045 A 
HETATM    5  C   UNK N   1      23.899  18.828   4.407  0.00  0.00     0.023 A 
HETATM    6  C   UNK N   1      22.648  18.236   4.143  0.00  0.00     0.016 A 
HETATM    7  C   UNK N   1      26.377  16.226   3.568  0.00  0.00    -0.016 C 
HETATM    8  C   UNK N   1      27.274  17.486   3.699  0.00  0.00     0.003 C 
HETATM    9  C   UNK N   1      26.468  18.528   4.522  0.00  0.00     0.027 C 
HETATM   10  C   UNK N   1      28.692  17.217   4.192  0.00  0.00     0.011 C 
HETATM   11  C   UNK N   1      26.502  15.267   4.747  0.00  0.00     0.020 C 
HETATM   12  C   UNK N   1      26.649  15.486   2.266  0.00  0.00     0.020 C 
HETATM   13  C   UNK N   1      21.353  16.190   3.287  0.00  0.00     0.049 C 
ENDROOT
BRANCH   6  14
HETATM   14  C   UNK N   1      21.424  19.020   4.490  0.00  0.00     0.160 C 
HETATM   15  O   UNK N   1      21.053  19.071   5.654  0.00  0.00    -0.292 OA
BRANCH  14  16
HETATM   16  C   UNK N   1      20.539  19.614   3.439  0.00  0.00     0.094 C 
BRANCH  16  17
HETATM   17  C   UNK N   1      21.307  20.442   2.428  0.00  0.00     0.117 C 
BRANCH  17  18
HETATM   18  C   UNK N   1      20.895  20.017   1.057  0.00  0.00     0.139 C 
HETATM   19  O   UNK N   1      20.654  18.843   0.825  0.00  0.00    -0.650 OA
BRANCH  18  20
HETATM   20  O   UNK N   1      20.808  20.926   0.069  0.00  0.00    -0.776 OA
HETATM   21  H   UNK N   1      21.546  21.111  -0.478  0.00  0.00     0.167 HD
ENDBRANCH  18  20
ENDBRANCH  17  18
ENDBRANCH  16  17
ENDBRANCH  14  16
ENDBRANCH   6  14
BRANCH   9  22
HETATM   22  C   UNK N   1      26.859  19.980   4.170  0.00  0.00    -0.014 C 
HETATM   23  C   UNK N   1      26.615  20.920   5.339  0.00  0.00     0.010 C 
HETATM   24  C   UNK N   1      26.066  20.507   2.986  0.00  0.00     0.010 C 
ENDBRANCH   9  22
TORSDOF 6
ENDMDL
MODEL 4
REMARK VINA RESULT:      -6.7      5.384      8.569
REMARK  6 active torsions:
REMARK  status: ('A' for Active; 'I' for Inactive)
REMARK    1  A    between atoms: C_6  and  C_22 
REMARK    2  A    between atoms: C_9  and  C_10 
REMARK    3  A    between atoms: C_17  and  C_18 
REMARK    4  A    between atoms: C_17  and  C_22 
REMARK    5  A    between atoms: C_18  and  C_19 
REMARK    6  A    between atoms: C_19  and  O_21 
ROOT
HETATM    1  C   UNK N   1      35.775  13.240  10.135  0.00  0.00    -0.048 A 
HETATM    2  C   UNK N   1      35.678  11.964  10.703  0.00  0.00     0.016 A 
HETATM    3  C   UNK N   1      35.417  11.834  12.066  0.00  0.00    -0.043 A 
HETATM    4  C   UNK N   1      35.235  12.939  12.862  0.00  0.00    -0.045 A 
HETATM    5  C   UNK N   1      35.303  14.224  12.319  0.00  0.00     0.023 A 
HETATM    6  C   UNK N   1      35.583  14.400  10.950  0.00  0.00     0.016 A 
HETATM    7  C   UNK N   1      35.125  10.568  12.789  0.00  0.00    -0.016 C 
HETATM    8  C   UNK N   1      35.186  11.072  14.256  0.00  0.00     0.003 C 
HETATM    9  C   UNK N   1      34.764  12.567  14.236  0.00  0.00     0.027 C 
HETATM   10  C   UNK N   1      34.451  10.198  15.267  0.00  0.00     0.011 C 
HETATM   11  C   UNK N   1      33.740  10.085  12.370  0.00  0.00     0.020 C 
HETATM   12  C   UNK N   1      36.154   9.475  12.536  0.00  0.00     0.020 C 
HETATM   13  C   UNK N   1      36.078  13.310   8.679  0.00  0.00     0.049 C 
ENDROOT
BRANCH   6  14
HETATM   14  C   UNK N   1      35.612  15.798  10.424  0.00  0.00     0.160 C 
HETATM   15  O   UNK N   1      36.603  16.491  10.611  0.00  0.00    -0.292 OA
BRANCH  14  16
HETATM   16  C   UNK N   1      34.406  16.442   9.815  0.00  0.00     0.094 C 
BRANCH  16  17
HETATM   17  C   UNK N   1      34.468  16.486   8.302  0.00  0.00     0.117 C 
BRANCH  17  18
HETATM   18  C   UNK N   1      34.627  17.909   7.877  0.00  0.00     0.139 C 
HETATM   19  O   UNK N   1      34.268  18.261   6.764  0.00  0.00    -0.650 OA
BRANCH  18  20
HETATM   20  O   UNK N   1      35.186  18.803   8.713  0.00  0.00    -0.776 OA
HETATM   21  H   UNK N   1      34.893  19.693   8.728  0.00  0.00     0.167 HD
ENDBRANCH  18  20
ENDBRANCH  17  18
ENDBRANCH  16  17
ENDBRANCH  14  16
ENDBRANCH   6  14
BRANCH   9  22
HETATM   22  C   UNK N   1      35.405  13.371  15.387  0.00  0.00    -0.014 C 
HETATM   23  C   UNK N   1      36.905  13.137  15.460  0.00  0.00     0.010 C 
HETATM   24  C   UNK N   1      34.816  12.993  16.736  0.00  0.00     0.010 C 
ENDBRANCH   9  22
TORSDOF 6
ENDMDL
MODEL 5
REMARK VINA RESULT:      -6.6     11.966     14.665
REMARK  6 active torsions:
REMARK  status: ('A' for Active; 'I' for Inactive)
REMARK    1  A    between atoms: C_6  and  C_22 
REMARK    2  A    between atoms: C_9  and  C_10 
REMARK    3  A    between atoms: C_17  and  C_18 
REMARK    4  A    between atoms: C_17  and  C_22 
REMARK    5  A    between atoms: C_18  and  C_19 
REMARK    6  A    between atoms: C_19  and  O_21 
ROOT
HETATM    1  C   UNK N   1      29.101  20.015  -7.530  0.00  0.00    -0.048 A 
HETATM    2  C   UNK N   1      27.891  20.567  -7.969  0.00  0.00     0.016 A 
HETATM    3  C   UNK N   1      27.507  21.829  -7.521  0.00  0.00    -0.043 A 
HETATM    4  C   UNK N   1      28.304  22.553  -6.667  0.00  0.00    -0.045 A 
HETATM    5  C   UNK N   1      29.526  22.038  -6.230  0.00  0.00     0.023 A 
HETATM    6  C   UNK N   1      29.944  20.758  -6.644  0.00  0.00     0.016 A 
HETATM    7  C   UNK N   1      26.346  22.620  -8.010  0.00  0.00    -0.016 C 
HETATM    8  C   UNK N   1      26.333  23.762  -6.959  0.00  0.00     0.003 C 
HETATM    9  C   UNK N   1      27.799  23.952  -6.483  0.00  0.00     0.027 C 
HETATM   10  C   UNK N   1      25.618  25.034  -7.402  0.00  0.00     0.011 C 
HETATM   11  C   UNK N   1      26.655  23.099  -9.425  0.00  0.00     0.020 C 
HETATM   12  C   UNK N   1      25.037  21.843  -8.000  0.00  0.00     0.020 C 
HETATM   13  C   UNK N   1      29.443  18.654  -8.028  0.00  0.00     0.049 C 
ENDROOT
BRANCH   6  14
HETATM   14  C   UNK N   1      31.276  20.277  -6.167  0.00  0.00     0.160 C 
HETATM   15  O   UNK N   1      32.059  19.784  -6.966  0.00  0.00    -0.292 OA
BRANCH  14  16
HETATM   16  C   UNK N   1      31.625  20.227  -4.713  0.00  0.00     0.094 C 
BRANCH  16  17
HETATM   17  C   UNK N   1      32.414  21.440  -4.259  0.00  0.00     0.117 C 
BRANCH  17  18
HETATM   18  C   UNK N   1      32.225  21.603  -2.787  0.00  0.00     0.139 C 
HETATM   19  O   UNK N   1      31.308  22.284  -2.357  0.00  0.00    -0.650 OA
BRANCH  18  20
HETATM   20  O   UNK N   1      33.080  21.014  -1.930  0.00  0.00    -0.776 OA
HETATM   21  H   UNK N   1      32.764  20.459  -1.244  0.00  0.00     0.167 HD
ENDBRANCH  18  20
ENDBRANCH  17  18
ENDBRANCH  16  17
ENDBRANCH  14  16
ENDBRANCH   6  14
BRANCH   9  22
HETATM   22  C   UNK N   1      27.880  24.492  -5.039  0.00  0.00    -0.014 C 
HETATM   23  C   UNK N   1      26.595  24.225  -4.273  0.00  0.00     0.010 C 
HETATM   24  C   UNK N   1      28.128  25.991  -5.010  0.00  0.00     0.010 C 
ENDBRANCH   9  22
TORSDOF 6
ENDMDL
MODEL 6
REMARK VINA RESULT:      -6.6      1.129      1.395
REMARK  6 active torsions:
REMARK  status: ('A' for Active; 'I' for Inactive)
REMARK    1  A    between atoms: C_6  and  C_22 
REMARK    2  A    between atoms: C_9  and  C_10 
REMARK    3  A    between atoms: C_17  and  C_18 
REMARK    4  A    between atoms: C_17  and  C_22 
REMARK    5  A    between atoms: C_18  and  C_19 
REMARK    6  A    between atoms: C_19  and  O_21 
ROOT
HETATM    1  C   UNK N   1      30.548  15.626   5.163  0.00  0.00    -0.048 A 
HETATM    2  C   UNK N   1      29.480  16.422   4.730  0.00  0.00     0.016 A 
HETATM    3  C   UNK N   1      28.936  17.372   5.593  0.00  0.00    -0.043 A 
HETATM    4  C   UNK N   1      29.440  17.555   6.858  0.00  0.00    -0.045 A 
HETATM    5  C   UNK N   1      30.519  16.791   7.308  0.00  0.00     0.023 A 
HETATM    6  C   UNK N   1      31.087  15.808   6.475  0.00  0.00     0.016 A 
HETATM    7  C   UNK N   1      27.919  18.399   5.241  0.00  0.00    -0.016 C 
HETATM    8  C   UNK N   1      27.573  18.935   6.656  0.00  0.00     0.003 C 
HETATM    9  C   UNK N   1      28.846  18.756   7.528  0.00  0.00     0.027 C 
HETATM   10  C   UNK N   1      26.952  20.327   6.681  0.00  0.00     0.011 C 
HETATM   11  C   UNK N   1      28.579  19.439   4.342  0.00  0.00     0.020 C 
HETATM   12  C   UNK N   1      26.690  17.822   4.552  0.00  0.00     0.020 C 
HETATM   13  C   UNK N   1      31.070  14.615   4.201  0.00  0.00     0.049 C 
ENDROOT
BRANCH   6  14
HETATM   14  C   UNK N   1      32.259  15.045   7.005  0.00  0.00     0.160 C 
HETATM   15  O   UNK N   1      32.070  14.078   7.728  0.00  0.00    -0.292 OA
BRANCH  14  16
HETATM   16  C   UNK N   1      33.665  15.520   6.813  0.00  0.00     0.094 C 
BRANCH  16  17
HETATM   17  C   UNK N   1      34.149  16.389   7.957  0.00  0.00     0.117 C 
BRANCH  17  18
HETATM   18  C   UNK N   1      34.339  17.780   7.448  0.00  0.00     0.139 C 
HETATM   19  O   UNK N   1      34.217  18.019   6.257  0.00  0.00    -0.650 OA
BRANCH  18  20
HETATM   20  O   UNK N   1      34.666  18.770   8.299  0.00  0.00    -0.776 OA
HETATM   21  H   UNK N   1      34.003  19.308   8.684  0.00  0.00     0.167 HD
ENDBRANCH  18  20
ENDBRANCH  17  18
ENDBRANCH  16  17
ENDBRANCH  14  16
ENDBRANCH   6  14
BRANCH   9  22
HETATM   22  C   UNK N   1      28.510  18.572   9.024  0.00  0.00    -0.014 C 
HETATM   23  C   UNK N   1      29.751  18.699   9.892  0.00  0.00     0.010 C 
HETATM   24  C   UNK N   1      27.895  17.210   9.300  0.00  0.00     0.010 C 
ENDBRANCH   9  22
TORSDOF 6
ENDMDL
MODEL 7
REMARK VINA RESULT:      -6.5     12.970     16.121
REMARK  6 active torsions:
REMARK  status: ('A' for Active; 'I' for Inactive)
REMARK    1  A    between atoms: C_6  and  C_22 
REMARK    2  A    between atoms: C_9  and  C_10 
REMARK    3  A    between atoms: C_17  and  C_18 
REMARK    4  A    between atoms: C_17  and  C_22 
REMARK    5  A    between atoms: C_18  and  C_19 
REMARK    6  A    between atoms: C_19  and  O_21 
ROOT
HETATM    1  C   UNK N   1      27.833  24.042  -4.397  0.00  0.00    -0.048 A 
HETATM    2  C   UNK N   1      28.954  23.264  -4.082  0.00  0.00     0.016 A 
HETATM    3  C   UNK N   1      29.522  22.448  -5.059  0.00  0.00    -0.043 A 
HETATM    4  C   UNK N   1      29.011  22.405  -6.334  0.00  0.00    -0.045 A 
HETATM    5  C   UNK N   1      27.908  23.187  -6.683  0.00  0.00     0.023 A 
HETATM    6  C   UNK N   1      27.293  24.013  -5.721  0.00  0.00     0.016 A 
HETATM    7  C   UNK N   1      30.796  21.691  -4.940  0.00  0.00    -0.016 C 
HETATM    8  C   UNK N   1      30.717  20.821  -6.223  0.00  0.00     0.003 C 
HETATM    9  C   UNK N   1      29.894  21.629  -7.263  0.00  0.00     0.027 C 
HETATM   10  C   UNK N   1      32.055  20.286  -6.720  0.00  0.00     0.011 C 
HETATM   11  C   UNK N   1      31.949  22.689  -4.953  0.00  0.00     0.020 C 
HETATM   12  C   UNK N   1      30.872  20.827  -3.689  0.00  0.00     0.020 C 
HETATM   13  C   UNK N   1      27.261  24.876  -3.303  0.00  0.00     0.049 C 
ENDROOT
BRANCH   6  14
HETATM   14  C   UNK N   1      26.136  24.848  -6.165  0.00  0.00     0.160 C 
HETATM   15  O   UNK N   1      25.146  24.304  -6.634  0.00  0.00    -0.292 OA
BRANCH  14  16
HETATM   16  C   UNK N   1      26.207  26.342  -6.208  0.00  0.00     0.094 C 
BRANCH  16  17
HETATM   17  C   UNK N   1      25.070  27.003  -5.454  0.00  0.00     0.117 C 
BRANCH  17  18
HETATM   18  C   UNK N   1      25.650  27.975  -4.480  0.00  0.00     0.139 C 
HETATM   19  O   UNK N   1      25.366  27.899  -3.295  0.00  0.00    -0.650 OA
BRANCH  18  20
HETATM   20  O   UNK N   1      26.472  28.950  -4.911  0.00  0.00    -0.776 OA
HETATM   21  H   UNK N   1      26.144  29.811  -5.082  0.00  0.00     0.167 HD
ENDBRANCH  18  20
ENDBRANCH  17  18
ENDBRANCH  16  17
ENDBRANCH  14  16
ENDBRANCH   6  14
BRANCH   9  22
HETATM   22  C   UNK N   1      29.149  20.713  -8.260  0.00  0.00    -0.014 C 
HETATM   23  C   UNK N   1      28.991  19.306  -7.708  0.00  0.00     0.010 C 
HETATM   24  C   UNK N   1      29.885  20.605  -9.585  0.00  0.00     0.010 C 
ENDBRANCH   9  22
TORSDOF 6
ENDMDL
MODEL 8
REMARK VINA RESULT:      -6.3     12.836     16.077
REMARK  6 active torsions:
REMARK  status: ('A' for Active; 'I' for Inactive)
REMARK    1  A    between atoms: C_6  and  C_22 
REMARK    2  A    between atoms: C_9  and  C_10 
REMARK    3  A    between atoms: C_17  and  C_18 
REMARK    4  A    between atoms: C_17  and  C_22 
REMARK    5  A    between atoms: C_18  and  C_19 
REMARK    6  A    between atoms: C_19  and  O_21 
ROOT
HETATM    1  C   UNK N   1      26.930  23.647  -7.639  0.00  0.00    -0.048 A 
HETATM    2  C   UNK N   1      27.878  22.710  -8.069  0.00  0.00     0.016 A 
HETATM    3  C   UNK N   1      28.844  22.248  -7.176  0.00  0.00    -0.043 A 
HETATM    4  C   UNK N   1      28.871  22.683  -5.873  0.00  0.00    -0.045 A 
HETATM    5  C   UNK N   1      27.924  23.598  -5.410  0.00  0.00     0.023 A 
HETATM    6  C   UNK N   1      26.942  24.104  -6.284  0.00  0.00     0.016 A 
HETATM    7  C   UNK N   1      29.811  21.147  -7.420  0.00  0.00    -0.016 C 
HETATM    8  C   UNK N   1      30.730  21.311  -6.180  0.00  0.00     0.003 C 
HETATM    9  C   UNK N   1      29.851  21.907  -5.046  0.00  0.00     0.027 C 
HETATM   10  C   UNK N   1      31.531  20.069  -5.804  0.00  0.00     0.011 C 
HETATM   11  C   UNK N   1      29.044  19.829  -7.437  0.00  0.00     0.020 C 
HETATM   12  C   UNK N   1      30.596  21.306  -8.716  0.00  0.00     0.020 C 
HETATM   13  C   UNK N   1      25.939  24.116  -8.648  0.00  0.00     0.049 C 
ENDROOT
BRANCH   6  14
HETATM   14  C   UNK N   1      25.939  25.058  -5.720  0.00  0.00     0.160 C 
HETATM   15  O   UNK N   1      24.909  24.623  -5.223  0.00  0.00    -0.292 OA
BRANCH  14  16
HETATM   16  C   UNK N   1      26.072  26.539  -5.887  0.00  0.00     0.094 C 
BRANCH  16  17
HETATM   17  C   UNK N   1      24.998  27.310  -5.146  0.00  0.00     0.117 C 
BRANCH  17  18
HETATM   18  C   UNK N   1      25.630  28.004  -3.984  0.00  0.00     0.139 C 
HETATM   19  O   UNK N   1      25.938  29.182  -4.067  0.00  0.00    -0.650 OA
BRANCH  18  20
HETATM   20  O   UNK N   1      25.880  27.325  -2.849  0.00  0.00    -0.776 OA
HETATM   21  H   UNK N   1      25.656  26.418  -2.775  0.00  0.00     0.167 HD
ENDBRANCH  18  20
ENDBRANCH  17  18
ENDBRANCH  16  17
ENDBRANCH  14  16
ENDBRANCH   6  14
BRANCH   9  22
HETATM   22  C   UNK N   1      30.676  22.749  -4.048  0.00  0.00    -0.014 C 
HETATM   23  C   UNK N   1      31.830  23.456  -4.739  0.00  0.00     0.010 C 
HETATM   24  C   UNK N   1      31.261  21.894  -2.937  0.00  0.00     0.010 C 
ENDBRANCH   9  22
TORSDOF 6
ENDMDL
MODEL 9
REMARK VINA RESULT:      -6.2      6.523      9.595
REMARK  6 active torsions:
REMARK  status: ('A' for Active; 'I' for Inactive)
REMARK    1  A    between atoms: C_6  and  C_22 
REMARK    2  A    between atoms: C_9  and  C_10 
REMARK    3  A    between atoms: C_17  and  C_18 
REMARK    4  A    between atoms: C_17  and  C_22 
REMARK    5  A    between atoms: C_18  and  C_19 
REMARK    6  A    between atoms: C_19  and  O_21 
ROOT
HETATM    1  C   UNK N   1      37.084  12.120  13.689  0.00  0.00    -0.048 A 
HETATM    2  C   UNK N   1      37.307  11.803  12.343  0.00  0.00     0.016 A 
HETATM    3  C   UNK N   1      36.869  12.675  11.348  0.00  0.00    -0.043 A 
HETATM    4  C   UNK N   1      36.236  13.853  11.665  0.00  0.00    -0.045 A 
HETATM    5  C   UNK N   1      36.021  14.206  12.999  0.00  0.00     0.023 A 
HETATM    6  C   UNK N   1      36.432  13.345  14.034  0.00  0.00     0.016 A 
HETATM    7  C   UNK N   1      37.164  12.570   9.895  0.00  0.00    -0.016 C 
HETATM    8  C   UNK N   1      36.203  13.657   9.343  0.00  0.00     0.003 C 
HETATM    9  C   UNK N   1      36.042  14.724  10.461  0.00  0.00     0.027 C 
HETATM   10  C   UNK N   1      36.572  14.202   7.967  0.00  0.00     0.011 C 
HETATM   11  C   UNK N   1      38.639  12.897   9.680  0.00  0.00     0.020 C 
HETATM   12  C   UNK N   1      36.847  11.201   9.310  0.00  0.00     0.020 C 
HETATM   13  C   UNK N   1      37.557  11.136  14.702  0.00  0.00     0.049 C 
ENDROOT
BRANCH   6  14
HETATM   14  C   UNK N   1      36.200  13.795  15.441  0.00  0.00     0.160 C 
HETATM   15  O   UNK N   1      37.071  14.428  16.021  0.00  0.00    -0.292 OA
BRANCH  14  16
HETATM   16  C   UNK N   1      35.004  13.358  16.226  0.00  0.00     0.094 C 
BRANCH  16  17
HETATM   17  C   UNK N   1      35.374  12.560  17.460  0.00  0.00     0.117 C 
BRANCH  17  18
HETATM   18  C   UNK N   1      35.256  13.451  18.652  0.00  0.00     0.139 C 
HETATM   19  O   UNK N   1      35.190  12.972  19.773  0.00  0.00    -0.650 OA
BRANCH  18  20
HETATM   20  O   UNK N   1      35.202  14.787  18.491  0.00  0.00    -0.776 OA
HETATM   21  H   UNK N   1      35.598  15.361  19.117  0.00  0.00     0.167 HD
ENDBRANCH  18  20
ENDBRANCH  17  18
ENDBRANCH  16  17
ENDBRANCH  14  16
ENDBRANCH   6  14
BRANCH   9  22
HETATM   22  C   UNK N   1      34.678  15.444  10.389  0.00  0.00    -0.014 C 
HETATM   23  C   UNK N   1      33.628  14.581   9.709  0.00  0.00     0.010 C 
HETATM   24  C   UNK N   1      34.769  16.749   9.614  0.00  0.00     0.010 C 
ENDBRANCH   9  22
TORSDOF 6
ENDMDL
