MODEL 1
REMARK VINA RESULT:      -5.4      0.000      0.000
REMARK  5 active torsions:
REMARK  status: ('A' for Active; 'I' for Inactive)
REMARK    1  A    between atoms: C_1  and  C_11 
REMARK    2  A    between atoms: C_4  and  O_5 
REMARK    3  A    between atoms: C_9  and  C_14 
REMARK    4  A    between atoms: C_11  and  O_13 
REMARK    5  A    between atoms: C_14  and  O_16 
ROOT
HETATM    1  C   UNK N   1      32.291  16.876   6.385  0.00  0.00     0.068 C 
HETATM    2  C   UNK N   1      31.672  17.515   7.620  0.00  0.00    -0.008 C 
HETATM    3  C   UNK N   1      31.441  16.819   8.746  0.00  0.00     0.004 C 
HETATM    4  C   UNK N   1      31.863  15.376   8.882  0.00  0.00     0.169 C 
HETATM    5  C   UNK N   1      32.878  14.961   7.798  0.00  0.00     0.156 C 
HETATM    6  C   UNK N   1      32.296  15.357   6.450  0.00  0.00     0.059 C 
HETATM    7  O   UNK N   1      34.201  15.460   8.038  0.00  0.00    -0.367 OA
HETATM    8  C   UNK N   1      34.571  16.740   7.507  0.00  0.00     0.221 C 
HETATM    9  C   UNK N   1      33.760  17.242   6.296  0.00  0.00     0.067 C 
ENDROOT
BRANCH   1  10
HETATM   10  C   UNK N   1      31.511  17.303   5.168  0.00  0.00     0.152 C 
HETATM   11  O   UNK N   1      30.299  17.166   5.119  0.00  0.00    -0.649 OA
BRANCH  10  12
HETATM   12  O   UNK N   1      32.158  17.848   4.118  0.00  0.00    -0.776 OA
HETATM   13  H   UNK N   1      32.912  18.387   4.257  0.00  0.00     0.167 HD
ENDBRANCH  10  12
ENDBRANCH   1  10
BRANCH   8  14
HETATM   14  C   UNK N   1      34.639  17.794   8.583  0.00  0.00     0.170 C 
HETATM   15  O   UNK N   1      34.805  18.969   8.298  0.00  0.00    -0.648 OA
BRANCH  14  16
HETATM   16  O   UNK N   1      34.482  17.439   9.874  0.00  0.00    -0.774 OA
HETATM   17  H   UNK N   1      34.734  17.591  10.763  0.00  0.00     0.167 HD
ENDBRANCH  14  16
ENDBRANCH   8  14
BRANCH   4  18
HETATM   18  O   UNK N   1      32.386  15.137  10.152  0.00  0.00    -0.389 OA
HETATM   19  H   UNK N   1      32.158  15.487  11.028  0.00  0.00     0.210 HD
ENDBRANCH   4  18
TORSDOF 5
ENDMDL
MODEL 2
REMARK VINA RESULT:      -5.2      2.174      4.505
REMARK  5 active torsions:
REMARK  status: ('A' for Active; 'I' for Inactive)
REMARK    1  A    between atoms: C_1  and  C_11 
REMARK    2  A    between atoms: C_4  and  O_5 
REMARK    3  A    between atoms: C_9  and  C_14 
REMARK    4  A    between atoms: C_11  and  O_13 
REMARK    5  A    between atoms: C_14  and  O_16 
ROOT
HETATM    1  C   UNK N   1      34.970  15.492   9.421  0.00  0.00     0.068 C 
HETATM    2  C   UNK N   1      35.138  14.993   7.992  0.00  0.00    -0.008 C 
HETATM    3  C   UNK N   1      34.178  14.297   7.360  0.00  0.00     0.004 C 
HETATM    4  C   UNK N   1      32.836  14.042   8.003  0.00  0.00     0.169 C 
HETATM    5  C   UNK N   1      32.586  14.963   9.214  0.00  0.00     0.156 C 
HETATM    6  C   UNK N   1      33.793  14.847  10.133  0.00  0.00     0.059 C 
HETATM    7  O   UNK N   1      32.251  16.307   8.848  0.00  0.00    -0.367 OA
HETATM    8  C   UNK N   1      33.304  17.268   8.682  0.00  0.00     0.221 C 
HETATM    9  C   UNK N   1      34.628  16.970   9.413  0.00  0.00     0.067 C 
ENDROOT
BRANCH   1  10
HETATM   10  C   UNK N   1      36.227  15.191  10.197  0.00  0.00     0.152 C 
HETATM   11  O   UNK N   1      36.678  14.057  10.245  0.00  0.00    -0.649 OA
BRANCH  10  12
HETATM   12  O   UNK N   1      36.864  16.185  10.846  0.00  0.00    -0.776 OA
HETATM   13  H   UNK N   1      36.630  16.398  11.729  0.00  0.00     0.167 HD
ENDBRANCH  10  12
ENDBRANCH   1  10
BRANCH   8  14
HETATM   14  C   UNK N   1      33.551  17.582   7.228  0.00  0.00     0.170 C 
HETATM   15  O   UNK N   1      34.557  18.179   6.880  0.00  0.00    -0.648 OA
BRANCH  14  16
HETATM   16  O   UNK N   1      32.667  17.170   6.297  0.00  0.00    -0.774 OA
HETATM   17  H   UNK N   1      32.322  17.298   5.436  0.00  0.00     0.167 HD
ENDBRANCH  14  16
ENDBRANCH   8  14
BRANCH   4  18
HETATM   18  O   UNK N   1      31.811  14.185   7.067  0.00  0.00    -0.389 OA
HETATM   19  H   UNK N   1      31.801  14.521   6.157  0.00  0.00     0.210 HD
ENDBRANCH   4  18
TORSDOF 5
ENDMDL
MODEL 3
REMARK VINA RESULT:      -5.2     15.156     17.464
REMARK  5 active torsions:
REMARK  status: ('A' for Active; 'I' for Inactive)
REMARK    1  A    between atoms: C_1  and  C_11 
REMARK    2  A    between atoms: C_4  and  O_5 
REMARK    3  A    between atoms: C_9  and  C_14 
REMARK    4  A    between atoms: C_11  and  O_13 
REMARK    5  A    between atoms: C_14  and  O_16 
ROOT
HETATM    1  C   UNK N   1      26.727  27.861  -4.249  0.00  0.00     0.068 C 
HETATM    2  C   UNK N   1      25.321  27.321  -4.472  0.00  0.00    -0.008 C 
HETATM    3  C   UNK N   1      24.894  26.916  -5.680  0.00  0.00     0.004 C 
HETATM    4  C   UNK N   1      25.817  26.891  -6.875  0.00  0.00     0.169 C 
HETATM    5  C   UNK N   1      27.300  26.993  -6.468  0.00  0.00     0.156 C 
HETATM    6  C   UNK N   1      27.441  28.196  -5.548  0.00  0.00     0.059 C 
HETATM    7  O   UNK N   1      27.827  25.773  -5.928  0.00  0.00    -0.367 OA
HETATM    8  C   UNK N   1      27.738  25.540  -4.515  0.00  0.00     0.221 C 
HETATM    9  C   UNK N   1      27.596  26.788  -3.621  0.00  0.00     0.067 C 
ENDROOT
BRANCH   1  10
HETATM   10  C   UNK N   1      26.646  29.108  -3.407  0.00  0.00     0.152 C 
HETATM   11  O   UNK N   1      27.203  29.170  -2.322  0.00  0.00    -0.649 OA
BRANCH  10  12
HETATM   12  O   UNK N   1      25.953  30.173  -3.856  0.00  0.00    -0.776 OA
HETATM   13  H   UNK N   1      26.322  30.734  -4.511  0.00  0.00     0.167 HD
ENDBRANCH  10  12
ENDBRANCH   1  10
BRANCH   8  14
HETATM   14  C   UNK N   1      26.683  24.516  -4.182  0.00  0.00     0.170 C 
HETATM   15  O   UNK N   1      26.361  24.305  -3.024  0.00  0.00    -0.648 OA
BRANCH  14  16
HETATM   16  O   UNK N   1      26.063  23.849  -5.176  0.00  0.00    -0.774 OA
HETATM   17  H   UNK N   1      25.942  23.028  -5.610  0.00  0.00     0.167 HD
ENDBRANCH  14  16
ENDBRANCH   8  14
BRANCH   4  18
HETATM   18  O   UNK N   1      25.600  25.741  -7.635  0.00  0.00    -0.389 OA
HETATM   19  H   UNK N   1      24.807  25.206  -7.797  0.00  0.00     0.210 HD
ENDBRANCH   4  18
TORSDOF 5
ENDMDL
MODEL 4
REMARK VINA RESULT:      -5.2      1.604      2.893
REMARK  5 active torsions:
REMARK  status: ('A' for Active; 'I' for Inactive)
REMARK    1  A    between atoms: C_1  and  C_11 
REMARK    2  A    between atoms: C_4  and  O_5 
REMARK    3  A    between atoms: C_9  and  C_14 
REMARK    4  A    between atoms: C_11  and  O_13 
REMARK    5  A    between atoms: C_14  and  O_16 
ROOT
HETATM    1  C   UNK N   1      31.844  16.867   7.212  0.00  0.00     0.068 C 
HETATM    2  C   UNK N   1      32.416  15.488   7.505  0.00  0.00    -0.008 C 
HETATM    3  C   UNK N   1      33.403  14.951   6.767  0.00  0.00     0.004 C 
HETATM    4  C   UNK N   1      34.064  15.725   5.652  0.00  0.00     0.169 C 
HETATM    5  C   UNK N   1      33.764  17.235   5.734  0.00  0.00     0.156 C 
HETATM    6  C   UNK N   1      32.256  17.396   5.848  0.00  0.00     0.059 C 
HETATM    7  O   UNK N   1      34.508  17.909   6.758  0.00  0.00    -0.367 OA
HETATM    8  C   UNK N   1      33.950  18.005   8.076  0.00  0.00     0.221 C 
HETATM    9  C   UNK N   1      32.417  17.880   8.185  0.00  0.00     0.067 C 
ENDROOT
BRANCH   1  10
HETATM   10  C   UNK N   1      30.339  16.797   7.267  0.00  0.00     0.152 C 
HETATM   11  O   UNK N   1      29.701  16.289   6.357  0.00  0.00    -0.649 OA
BRANCH  10  12
HETATM   12  O   UNK N   1      29.686  17.298   8.334  0.00  0.00    -0.776 OA
HETATM   13  H   UNK N   1      28.851  17.710   8.225  0.00  0.00     0.167 HD
ENDBRANCH  10  12
ENDBRANCH   1  10
BRANCH   8  14
HETATM   14  C   UNK N   1      34.635  17.073   9.043  0.00  0.00     0.170 C 
HETATM   15  O   UNK N   1      35.593  16.403   8.694  0.00  0.00    -0.648 OA
BRANCH  14  16
HETATM   16  O   UNK N   1      34.206  17.003  10.319  0.00  0.00    -0.774 OA
HETATM   17  H   UNK N   1      33.688  16.537  10.946  0.00  0.00     0.167 HD
ENDBRANCH  14  16
ENDBRANCH   8  14
BRANCH   4  18
HETATM   18  O   UNK N   1      35.442  15.504   5.654  0.00  0.00    -0.389 OA
HETATM   19  H   UNK N   1      36.004  14.894   6.158  0.00  0.00     0.210 HD
ENDBRANCH   4  18
TORSDOF 5
ENDMDL
MODEL 5
REMARK VINA RESULT:      -5.2      1.618      4.280
REMARK  5 active torsions:
REMARK  status: ('A' for Active; 'I' for Inactive)
REMARK    1  A    between atoms: C_1  and  C_11 
REMARK    2  A    between atoms: C_4  and  O_5 
REMARK    3  A    between atoms: C_9  and  C_14 
REMARK    4  A    between atoms: C_11  and  O_13 
REMARK    5  A    between atoms: C_14  and  O_16 
ROOT
HETATM    1  C   UNK N   1      33.974  17.078   7.892  0.00  0.00     0.068 C 
HETATM    2  C   UNK N   1      33.488  17.872   6.689  0.00  0.00    -0.008 C 
HETATM    3  C   UNK N   1      33.510  17.367   5.443  0.00  0.00     0.004 C 
HETATM    4  C   UNK N   1      33.939  15.945   5.175  0.00  0.00     0.169 C 
HETATM    5  C   UNK N   1      33.954  15.090   6.458  0.00  0.00     0.156 C 
HETATM    6  C   UNK N   1      34.768  15.842   7.500  0.00  0.00     0.059 C 
HETATM    7  O   UNK N   1      32.646  14.703   6.900  0.00  0.00    -0.367 OA
HETATM    8  C   UNK N   1      31.934  15.558   7.805  0.00  0.00     0.221 C 
HETATM    9  C   UNK N   1      32.787  16.521   8.655  0.00  0.00     0.067 C 
ENDROOT
BRANCH   1  10
HETATM   10  C   UNK N   1      34.848  17.962   8.744  0.00  0.00     0.152 C 
HETATM   11  O   UNK N   1      35.169  19.078   8.366  0.00  0.00    -0.649 OA
BRANCH  10  12
HETATM   12  O   UNK N   1      35.281  17.519   9.941  0.00  0.00    -0.776 OA
HETATM   13  H   UNK N   1      36.200  17.446  10.112  0.00  0.00     0.167 HD
ENDBRANCH  10  12
ENDBRANCH   1  10
BRANCH   8  14
HETATM   14  C   UNK N   1      30.816  16.297   7.115  0.00  0.00     0.170 C 
HETATM   15  O   UNK N   1      30.250  17.228   7.664  0.00  0.00    -0.648 OA
BRANCH  14  16
HETATM   16  O   UNK N   1      30.458  15.946   5.863  0.00  0.00    -0.774 OA
HETATM   17  H   UNK N   1      30.668  15.980   4.951  0.00  0.00     0.167 HD
ENDBRANCH  14  16
ENDBRANCH   8  14
BRANCH   4  18
HETATM   18  O   UNK N   1      33.117  15.359   4.213  0.00  0.00    -0.389 OA
HETATM   19  H   UNK N   1      33.174  15.316   3.245  0.00  0.00     0.210 HD
ENDBRANCH   4  18
TORSDOF 5
ENDMDL
MODEL 6
REMARK VINA RESULT:      -5.2      2.282      4.251
REMARK  5 active torsions:
REMARK  status: ('A' for Active; 'I' for Inactive)
REMARK    1  A    between atoms: C_1  and  C_11 
REMARK    2  A    between atoms: C_4  and  O_5 
REMARK    3  A    between atoms: C_9  and  C_14 
REMARK    4  A    between atoms: C_11  and  O_13 
REMARK    5  A    between atoms: C_14  and  O_16 
ROOT
HETATM    1  C   UNK N   1      34.358  16.722   8.519  0.00  0.00     0.068 C 
HETATM    2  C   UNK N   1      35.033  15.604   7.737  0.00  0.00    -0.008 C 
HETATM    3  C   UNK N   1      35.769  14.653   8.339  0.00  0.00     0.004 C 
HETATM    4  C   UNK N   1      35.897  14.589   9.842  0.00  0.00     0.169 C 
HETATM    5  C   UNK N   1      34.828  15.441  10.555  0.00  0.00     0.156 C 
HETATM    6  C   UNK N   1      34.871  16.834   9.946  0.00  0.00     0.059 C 
HETATM    7  O   UNK N   1      33.528  14.837  10.555  0.00  0.00    -0.367 OA
HETATM    8  C   UNK N   1      32.631  15.113   9.470  0.00  0.00     0.221 C 
HETATM    9  C   UNK N   1      32.881  16.415   8.685  0.00  0.00     0.067 C 
ENDROOT
BRANCH   1  10
HETATM   10  C   UNK N   1      34.603  18.031   7.815  0.00  0.00     0.152 C 
HETATM   11  O   UNK N   1      34.284  18.184   6.646  0.00  0.00    -0.649 OA
BRANCH  10  12
HETATM   12  O   UNK N   1      35.182  19.050   8.481  0.00  0.00    -0.776 OA
HETATM   13  H   UNK N   1      36.054  18.961   8.814  0.00  0.00     0.167 HD
ENDBRANCH  10  12
ENDBRANCH   1  10
BRANCH   8  14
HETATM   14  C   UNK N   1      32.505  13.937   8.535  0.00  0.00     0.170 C 
HETATM   15  O   UNK N   1      32.885  12.827   8.871  0.00  0.00    -0.648 OA
BRANCH  14  16
HETATM   16  O   UNK N   1      31.937  14.106   7.324  0.00  0.00    -0.774 OA
HETATM   17  H   UNK N   1      31.450  13.713   6.627  0.00  0.00     0.167 HD
ENDBRANCH  14  16
ENDBRANCH   8  14
BRANCH   4  18
HETATM   18  O   UNK N   1      35.836  13.267  10.282  0.00  0.00    -0.389 OA
HETATM   19  H   UNK N   1      35.408  12.477   9.915  0.00  0.00     0.210 HD
ENDBRANCH   4  18
TORSDOF 5
ENDMDL
MODEL 7
REMARK VINA RESULT:      -5.1     10.970     12.706
REMARK  5 active torsions:
REMARK  status: ('A' for Active; 'I' for Inactive)
REMARK    1  A    between atoms: C_1  and  C_11 
REMARK    2  A    between atoms: C_4  and  O_5 
REMARK    3  A    between atoms: C_9  and  C_14 
REMARK    4  A    between atoms: C_11  and  O_13 
REMARK    5  A    between atoms: C_14  and  O_16 
ROOT
HETATM    1  C   UNK N   1      41.897  21.020   2.440  0.00  0.00     0.068 C 
HETATM    2  C   UNK N   1      43.027  20.619   3.377  0.00  0.00    -0.008 C 
HETATM    3  C   UNK N   1      44.190  20.120   2.924  0.00  0.00     0.004 C 
HETATM    4  C   UNK N   1      44.476  20.009   1.446  0.00  0.00     0.169 C 
HETATM    5  C   UNK N   1      43.505  20.854   0.598  0.00  0.00     0.156 C 
HETATM    6  C   UNK N   1      42.091  20.494   1.027  0.00  0.00     0.059 C 
HETATM    7  O   UNK N   1      43.793  22.258   0.635  0.00  0.00    -0.367 OA
HETATM    8  C   UNK N   1      43.182  23.069   1.648  0.00  0.00     0.221 C 
HETATM    9  C   UNK N   1      41.879  22.527   2.269  0.00  0.00     0.067 C 
ENDROOT
BRANCH   1  10
HETATM   10  C   UNK N   1      40.597  20.482   2.980  0.00  0.00     0.152 C 
HETATM   11  O   UNK N   1      40.582  19.710   3.926  0.00  0.00    -0.649 OA
BRANCH  10  12
HETATM   12  O   UNK N   1      39.432  20.857   2.414  0.00  0.00    -0.776 OA
HETATM   13  H   UNK N   1      39.387  21.023   1.493  0.00  0.00     0.167 HD
ENDBRANCH  10  12
ENDBRANCH   1  10
BRANCH   8  14
HETATM   14  C   UNK N   1      44.166  23.461   2.721  0.00  0.00     0.170 C 
HETATM   15  O   UNK N   1      43.784  23.945   3.774  0.00  0.00    -0.648 OA
BRANCH  14  16
HETATM   16  O   UNK N   1      45.483  23.245   2.528  0.00  0.00    -0.774 OA
HETATM   17  H   UNK N   1      46.338  23.239   2.909  0.00  0.00     0.167 HD
ENDBRANCH  14  16
ENDBRANCH   8  14
BRANCH   4  18
HETATM   18  O   UNK N   1      45.796  20.371   1.176  0.00  0.00    -0.389 OA
HETATM   19  H   UNK N   1      46.241  20.657   0.362  0.00  0.00     0.210 HD
ENDBRANCH   4  18
TORSDOF 5
ENDMDL
MODEL 8
REMARK VINA RESULT:      -5.0      1.546      4.199
REMARK  5 active torsions:
REMARK  status: ('A' for Active; 'I' for Inactive)
REMARK    1  A    between atoms: C_1  and  C_11 
REMARK    2  A    between atoms: C_4  and  O_5 
REMARK    3  A    between atoms: C_9  and  C_14 
REMARK    4  A    between atoms: C_11  and  O_13 
REMARK    5  A    between atoms: C_14  and  O_16 
ROOT
HETATM    1  C   UNK N   1      33.640  17.019   7.343  0.00  0.00     0.068 C 
HETATM    2  C   UNK N   1      32.188  16.910   7.784  0.00  0.00    -0.008 C 
HETATM    3  C   UNK N   1      31.166  17.065   6.925  0.00  0.00     0.004 C 
HETATM    4  C   UNK N   1      31.402  17.271   5.448  0.00  0.00     0.169 C 
HETATM    5  C   UNK N   1      32.839  16.900   5.030  0.00  0.00     0.156 C 
HETATM    6  C   UNK N   1      33.791  17.635   5.962  0.00  0.00     0.059 C 
HETATM    7  O   UNK N   1      33.062  15.486   4.955  0.00  0.00    -0.367 OA
HETATM    8  C   UNK N   1      33.514  14.788   6.125  0.00  0.00     0.221 C 
HETATM    9  C   UNK N   1      34.238  15.632   7.192  0.00  0.00     0.067 C 
ENDROOT
BRANCH   1  10
HETATM   10  C   UNK N   1      34.392  17.869   8.334  0.00  0.00     0.152 C 
HETATM   11  O   UNK N   1      35.001  18.864   7.973  0.00  0.00    -0.649 OA
BRANCH  10  12
HETATM   12  O   UNK N   1      34.393  17.531   9.639  0.00  0.00    -0.776 OA
HETATM   13  H   UNK N   1      33.724  17.855  10.211  0.00  0.00     0.167 HD
ENDBRANCH  10  12
ENDBRANCH   1  10
BRANCH   8  14
HETATM   14  C   UNK N   1      32.413  13.965   6.746  0.00  0.00     0.170 C 
HETATM   15  O   UNK N   1      32.546  13.482   7.858  0.00  0.00    -0.648 OA
BRANCH  14  16
HETATM   16  O   UNK N   1      31.256  13.786   6.077  0.00  0.00    -0.774 OA
HETATM   17  H   UNK N   1      30.668  14.120   5.429  0.00  0.00     0.167 HD
ENDBRANCH  14  16
ENDBRANCH   8  14
BRANCH   4  18
HETATM   18  O   UNK N   1      30.476  16.545   4.699  0.00  0.00    -0.389 OA
HETATM   19  H   UNK N   1      29.513  16.450   4.767  0.00  0.00     0.210 HD
ENDBRANCH   4  18
TORSDOF 5
ENDMDL
MODEL 9
REMARK VINA RESULT:      -5.0     16.113     17.654
REMARK  5 active torsions:
REMARK  status: ('A' for Active; 'I' for Inactive)
REMARK    1  A    between atoms: C_1  and  C_11 
REMARK    2  A    between atoms: C_4  and  O_5 
REMARK    3  A    between atoms: C_9  and  C_14 
REMARK    4  A    between atoms: C_11  and  O_13 
REMARK    5  A    between atoms: C_14  and  O_16 
ROOT
HETATM    1  C   UNK N   1      26.365  25.602  -5.711  0.00  0.00     0.068 C 
HETATM    2  C   UNK N   1      25.397  26.725  -6.058  0.00  0.00    -0.008 C 
HETATM    3  C   UNK N   1      25.000  27.633  -5.150  0.00  0.00     0.004 C 
HETATM    4  C   UNK N   1      25.562  27.644  -3.749  0.00  0.00     0.169 C 
HETATM    5  C   UNK N   1      26.847  26.802  -3.629  0.00  0.00     0.156 C 
HETATM    6  C   UNK N   1      26.551  25.429  -4.213  0.00  0.00     0.059 C 
HETATM    7  O   UNK N   1      28.001  27.443  -4.188  0.00  0.00    -0.367 OA
HETATM    8  C   UNK N   1      28.317  27.229  -5.572  0.00  0.00     0.221 C 
HETATM    9  C   UNK N   1      27.754  25.946  -6.214  0.00  0.00     0.067 C 
ENDROOT
BRANCH   1  10
HETATM   10  C   UNK N   1      25.843  24.310  -6.285  0.00  0.00     0.152 C 
HETATM   11  O   UNK N   1      25.898  23.272  -5.644  0.00  0.00    -0.649 OA
BRANCH  10  12
HETATM   12  O   UNK N   1      25.306  24.296  -7.521  0.00  0.00    -0.776 OA
HETATM   13  H   UNK N   1      25.418  23.549  -8.075  0.00  0.00     0.167 HD
ENDBRANCH  10  12
ENDBRANCH   1  10
BRANCH   8  14
HETATM   14  C   UNK N   1      27.994  28.439  -6.413  0.00  0.00     0.170 C 
HETATM   15  O   UNK N   1      27.687  29.498  -5.892  0.00  0.00    -0.648 OA
BRANCH  14  16
HETATM   16  O   UNK N   1      28.076  28.357  -7.756  0.00  0.00    -0.774 OA
HETATM   17  H   UNK N   1      27.893  28.769  -8.577  0.00  0.00     0.167 HD
ENDBRANCH  14  16
ENDBRANCH   8  14
BRANCH   4  18
HETATM   18  O   UNK N   1      25.799  28.953  -3.328  0.00  0.00    -0.389 OA
HETATM   19  H   UNK N   1      25.361  29.517  -2.671  0.00  0.00     0.210 HD
ENDBRANCH   4  18
TORSDOF 5
ENDMDL
