MODEL 1
REMARK VINA RESULT:      -5.4      0.000      0.000
REMARK  4 active torsions:
REMARK  status: ('A' for Active; 'I' for Inactive)
REMARK    1  A    between atoms: O_1  and  C_2 
REMARK    2  A    between atoms: C_2  and  N_3 
REMARK    3  A    between atoms: C_2  and  C_4 
REMARK    4  A    between atoms: C_4  and  C_5 
ROOT
HETATM    1  C   UNK N   1      35.378  13.231  17.057  0.00  0.00    -0.026 A 
HETATM    2  C   UNK N   1      35.321  14.128  18.126  0.00  0.00     0.096 A 
HETATM    3  N   UNK N   1      35.222  13.440  19.294  0.00  0.00    -0.365 N 
HETATM    4  C   UNK N   1      35.217  12.136  18.958  0.00  0.00     0.042 A 
HETATM    5  C   UNK N   1      35.312  11.982  17.606  0.00  0.00    -0.002 A 
HETATM    6  C   UNK N   1      35.132  11.045  19.817  0.00  0.00     0.030 A 
HETATM    7  C   UNK N   1      35.147   9.758  19.244  0.00  0.00     0.002 A 
HETATM    8  C   UNK N   1      35.247   9.599  17.842  0.00  0.00     0.001 A 
HETATM    9  C   UNK N   1      35.331  10.724  17.005  0.00  0.00     0.014 A 
HETATM   10  H   UNK N   1      35.165  13.818  20.201  0.00  0.00     0.165 HD
ENDROOT
BRANCH   1  11
HETATM   11  C   UNK N   1      35.496  13.485  15.577  0.00  0.00     0.093 C 
BRANCH  11  12
HETATM   12  C   UNK N   1      36.861  13.622  14.893  0.00  0.00     0.215 C 
BRANCH  12  13
HETATM   13  O   UNK N   1      37.594  14.588  15.577  0.00  0.00    -0.377 OA
HETATM   14  H   UNK N   1      38.180  15.279  15.228  0.00  0.00     0.212 HD
ENDBRANCH  12  13
BRANCH  12  15
HETATM   15  N   UNK N   1      36.778  13.992  13.492  0.00  0.00    -0.406 N 
HETATM   16  H   UNK N   1      36.304  14.810  13.107  0.00  0.00     0.152 HD
HETATM   17  H   UNK N   1      37.240  13.375  12.824  0.00  0.00     0.152 HD
ENDBRANCH  12  15
ENDBRANCH  11  12
ENDBRANCH   1  11
TORSDOF 4
ENDMDL
MODEL 2
REMARK VINA RESULT:      -5.3     11.700     13.138
REMARK  4 active torsions:
REMARK  status: ('A' for Active; 'I' for Inactive)
REMARK    1  A    between atoms: O_1  and  C_2 
REMARK    2  A    between atoms: C_2  and  N_3 
REMARK    3  A    between atoms: C_2  and  C_4 
REMARK    4  A    between atoms: C_4  and  C_5 
ROOT
HETATM    1  C   UNK N   1      30.022  17.216   6.808  0.00  0.00    -0.026 A 
HETATM    2  C   UNK N   1      29.987  17.020   5.425  0.00  0.00     0.096 A 
HETATM    3  N   UNK N   1      31.249  17.070   4.925  0.00  0.00    -0.365 N 
HETATM    4  C   UNK N   1      32.058  17.292   5.978  0.00  0.00     0.042 A 
HETATM    5  C   UNK N   1      31.338  17.384   7.133  0.00  0.00    -0.002 A 
HETATM    6  C   UNK N   1      33.443  17.420   5.964  0.00  0.00     0.030 A 
HETATM    7  C   UNK N   1      34.092  17.650   7.194  0.00  0.00     0.002 A 
HETATM    8  C   UNK N   1      33.345  17.743   8.391  0.00  0.00     0.001 A 
HETATM    9  C   UNK N   1      31.947  17.609   8.367  0.00  0.00     0.014 A 
HETATM   10  H   UNK N   1      31.518  16.964   3.984  0.00  0.00     0.165 HD
ENDROOT
BRANCH   1  11
HETATM   11  C   UNK N   1      28.905  17.245   7.818  0.00  0.00     0.093 C 
BRANCH  11  12
HETATM   12  C   UNK N   1      28.313  18.566   8.322  0.00  0.00     0.215 C 
BRANCH  12  13
HETATM   13  O   UNK N   1      27.456  18.281   9.382  0.00  0.00    -0.377 OA
HETATM   14  H   UNK N   1      27.317  17.446   9.855  0.00  0.00     0.212 HD
ENDBRANCH  12  13
BRANCH  12  15
HETATM   15  N   UNK N   1      27.584  19.305   7.308  0.00  0.00    -0.406 N 
HETATM   16  H   UNK N   1      27.668  19.192   6.297  0.00  0.00     0.152 HD
HETATM   17  H   UNK N   1      26.923  20.008   7.637  0.00  0.00     0.152 HD
ENDBRANCH  12  15
ENDBRANCH  11  12
ENDBRANCH   1  11
TORSDOF 4
ENDMDL
MODEL 3
REMARK VINA RESULT:      -5.3     15.287     15.977
REMARK  4 active torsions:
REMARK  status: ('A' for Active; 'I' for Inactive)
REMARK    1  A    between atoms: O_1  and  C_2 
REMARK    2  A    between atoms: C_2  and  N_3 
REMARK    3  A    between atoms: C_2  and  C_4 
REMARK    4  A    between atoms: C_4  and  C_5 
ROOT
HETATM    1  C   UNK N   1      21.037  13.340   9.870  0.00  0.00    -0.026 A 
HETATM    2  C   UNK N   1      20.312  12.702  10.879  0.00  0.00     0.096 A 
HETATM    3  N   UNK N   1      21.162  12.022  11.692  0.00  0.00    -0.365 N 
HETATM    4  C   UNK N   1      22.397  12.233  11.198  0.00  0.00     0.042 A 
HETATM    5  C   UNK N   1      22.349  13.031  10.093  0.00  0.00    -0.002 A 
HETATM    6  C   UNK N   1      23.599  11.740  11.696  0.00  0.00     0.030 A 
HETATM    7  C   UNK N   1      24.783  12.092  11.016  0.00  0.00     0.002 A 
HETATM    8  C   UNK N   1      24.732  12.921   9.871  0.00  0.00     0.001 A 
HETATM    9  C   UNK N   1      23.499  13.401   9.398  0.00  0.00     0.014 A 
HETATM   10  H   UNK N   1      20.925  11.485  12.482  0.00  0.00     0.165 HD
ENDROOT
BRANCH   1  11
HETATM   11  C   UNK N   1      20.569  14.214   8.736  0.00  0.00     0.093 C 
BRANCH  11  12
HETATM   12  C   UNK N   1      20.036  15.630   8.981  0.00  0.00     0.215 C 
BRANCH  12  13
HETATM   13  O   UNK N   1      18.690  15.534   9.326  0.00  0.00    -0.377 OA
HETATM   14  H   UNK N   1      18.277  15.078  10.077  0.00  0.00     0.212 HD
ENDBRANCH  12  13
BRANCH  12  15
HETATM   15  N   UNK N   1      20.170  16.512   7.836  0.00  0.00    -0.406 N 
HETATM   16  H   UNK N   1      20.075  17.528   7.838  0.00  0.00     0.152 HD
HETATM   17  H   UNK N   1      20.379  16.073   6.939  0.00  0.00     0.152 HD
ENDBRANCH  12  15
ENDBRANCH  11  12
ENDBRANCH   1  11
TORSDOF 4
ENDMDL
MODEL 4
REMARK VINA RESULT:      -5.2     18.908     20.616
REMARK  4 active torsions:
REMARK  status: ('A' for Active; 'I' for Inactive)
REMARK    1  A    between atoms: O_1  and  C_2 
REMARK    2  A    between atoms: C_2  and  N_3 
REMARK    3  A    between atoms: C_2  and  C_4 
REMARK    4  A    between atoms: C_4  and  C_5 
ROOT
HETATM    1  C   UNK N   1      22.301  19.741   3.382  0.00  0.00    -0.026 A 
HETATM    2  C   UNK N   1      21.963  18.712   4.265  0.00  0.00     0.096 A 
HETATM    3  N   UNK N   1      23.093  18.177   4.796  0.00  0.00    -0.365 N 
HETATM    4  C   UNK N   1      24.119  18.860   4.254  0.00  0.00     0.042 A 
HETATM    5  C   UNK N   1      23.666  19.816   3.393  0.00  0.00    -0.002 A 
HETATM    6  C   UNK N   1      25.477  18.673   4.494  0.00  0.00     0.030 A 
HETATM    7  C   UNK N   1      26.383  19.510   3.813  0.00  0.00     0.002 A 
HETATM    8  C   UNK N   1      25.912  20.502   2.921  0.00  0.00     0.001 A 
HETATM    9  C   UNK N   1      24.533  20.662   2.704  0.00  0.00     0.014 A 
HETATM   10  H   UNK N   1      23.151  17.440   5.446  0.00  0.00     0.165 HD
ENDROOT
BRANCH   1  11
HETATM   11  C   UNK N   1      21.425  20.641   2.552  0.00  0.00     0.093 C 
BRANCH  11  12
HETATM   12  C   UNK N   1      21.099  20.318   1.089  0.00  0.00     0.215 C 
BRANCH  12  13
HETATM   13  O   UNK N   1      20.382  21.387   0.557  0.00  0.00    -0.377 OA
HETATM   14  H   UNK N   1      19.429  21.470   0.395  0.00  0.00     0.212 HD
ENDBRANCH  12  13
BRANCH  12  15
HETATM   15  N   UNK N   1      20.330  19.099   0.917  0.00  0.00    -0.406 N 
HETATM   16  H   UNK N   1      20.449  18.405   0.178  0.00  0.00     0.152 HD
HETATM   17  H   UNK N   1      19.597  18.916   1.603  0.00  0.00     0.152 HD
ENDBRANCH  12  15
ENDBRANCH  11  12
ENDBRANCH   1  11
TORSDOF 4
ENDMDL
MODEL 5
REMARK VINA RESULT:      -5.2     11.351     13.351
REMARK  4 active torsions:
REMARK  status: ('A' for Active; 'I' for Inactive)
REMARK    1  A    between atoms: O_1  and  C_2 
REMARK    2  A    between atoms: C_2  and  N_3 
REMARK    3  A    between atoms: C_2  and  C_4 
REMARK    4  A    between atoms: C_4  and  C_5 
ROOT
HETATM    1  C   UNK N   1      30.547  17.411   7.609  0.00  0.00    -0.026 A 
HETATM    2  C   UNK N   1      31.553  17.429   8.579  0.00  0.00     0.096 A 
HETATM    3  N   UNK N   1      32.770  17.413   7.974  0.00  0.00    -0.365 N 
HETATM    4  C   UNK N   1      32.527  17.386   6.650  0.00  0.00     0.042 A 
HETATM    5  C   UNK N   1      31.186  17.385   6.402  0.00  0.00    -0.002 A 
HETATM    6  C   UNK N   1      33.464  17.362   5.621  0.00  0.00     0.030 A 
HETATM    7  C   UNK N   1      32.982  17.337   4.297  0.00  0.00     0.002 A 
HETATM    8  C   UNK N   1      31.591  17.339   4.041  0.00  0.00     0.001 A 
HETATM    9  C   UNK N   1      30.674  17.363   5.105  0.00  0.00     0.014 A 
HETATM   10  H   UNK N   1      33.651  17.420   8.414  0.00  0.00     0.165 HD
ENDROOT
BRANCH   1  11
HETATM   11  C   UNK N   1      29.049  17.424   7.759  0.00  0.00     0.093 C 
BRANCH  11  12
HETATM   12  C   UNK N   1      28.318  18.605   8.407  0.00  0.00     0.215 C 
BRANCH  12  13
HETATM   13  O   UNK N   1      27.470  18.104   9.392  0.00  0.00    -0.377 OA
HETATM   14  H   UNK N   1      26.606  17.671   9.300  0.00  0.00     0.212 HD
ENDBRANCH  12  13
BRANCH  12  15
HETATM   15  N   UNK N   1      27.541  19.398   7.471  0.00  0.00    -0.406 N 
HETATM   16  H   UNK N   1      27.374  20.403   7.519  0.00  0.00     0.152 HD
HETATM   17  H   UNK N   1      27.119  18.900   6.687  0.00  0.00     0.152 HD
ENDBRANCH  12  15
ENDBRANCH  11  12
ENDBRANCH   1  11
TORSDOF 4
ENDMDL
MODEL 6
REMARK VINA RESULT:      -5.2     24.433     26.852
REMARK  4 active torsions:
REMARK  status: ('A' for Active; 'I' for Inactive)
REMARK    1  A    between atoms: O_1  and  C_2 
REMARK    2  A    between atoms: C_2  and  N_3 
REMARK    3  A    between atoms: C_2  and  C_4 
REMARK    4  A    between atoms: C_4  and  C_5 
ROOT
HETATM    1  C   UNK N   1      26.713  24.337  -4.060  0.00  0.00    -0.026 A 
HETATM    2  C   UNK N   1      26.250  23.685  -5.206  0.00  0.00     0.096 A 
HETATM    3  N   UNK N   1      25.529  24.551  -5.965  0.00  0.00    -0.365 N 
HETATM    4  C   UNK N   1      25.543  25.724  -5.304  0.00  0.00     0.042 A 
HETATM    5  C   UNK N   1      26.255  25.622  -4.146  0.00  0.00    -0.002 A 
HETATM    6  C   UNK N   1      24.938  26.916  -5.691  0.00  0.00     0.030 A 
HETATM    7  C   UNK N   1      25.083  28.030  -4.841  0.00  0.00     0.002 A 
HETATM    8  C   UNK N   1      25.824  27.923  -3.641  0.00  0.00     0.001 A 
HETATM    9  C   UNK N   1      26.422  26.704  -3.283  0.00  0.00     0.014 A 
HETATM   10  H   UNK N   1      25.087  24.360  -6.823  0.00  0.00     0.165 HD
ENDROOT
BRANCH   1  11
HETATM   11  C   UNK N   1      27.552  23.827  -2.919  0.00  0.00     0.093 C 
BRANCH  11  12
HETATM   12  C   UNK N   1      29.060  23.597  -3.072  0.00  0.00     0.215 C 
BRANCH  12  13
HETATM   13  O   UNK N   1      29.575  23.250  -1.825  0.00  0.00    -0.377 OA
HETATM   14  H   UNK N   1      29.787  22.374  -1.467  0.00  0.00     0.212 HD
ENDBRANCH  12  13
BRANCH  12  15
HETATM   15  N   UNK N   1      29.779  24.751  -3.579  0.00  0.00    -0.406 N 
HETATM   16  H   UNK N   1      30.208  25.491  -3.022  0.00  0.00     0.152 HD
HETATM   17  H   UNK N   1      29.865  24.832  -4.592  0.00  0.00     0.152 HD
ENDBRANCH  12  15
ENDBRANCH  11  12
ENDBRANCH   1  11
TORSDOF 4
ENDMDL
MODEL 7
REMARK VINA RESULT:      -5.2      1.504      2.378
REMARK  4 active torsions:
REMARK  status: ('A' for Active; 'I' for Inactive)
REMARK    1  A    between atoms: O_1  and  C_2 
REMARK    2  A    between atoms: C_2  and  N_3 
REMARK    3  A    between atoms: C_2  and  C_4 
REMARK    4  A    between atoms: C_4  and  C_5 
ROOT
HETATM    1  C   UNK N   1      35.368  12.056  15.800  0.00  0.00    -0.026 A 
HETATM    2  C   UNK N   1      35.442  10.689  15.522  0.00  0.00     0.096 A 
HETATM    3  N   UNK N   1      35.423   9.985  16.683  0.00  0.00    -0.365 N 
HETATM    4  C   UNK N   1      35.339  10.898  17.670  0.00  0.00     0.042 A 
HETATM    5  C   UNK N   1      35.302  12.162  17.161  0.00  0.00    -0.002 A 
HETATM    6  C   UNK N   1      35.288  10.655  19.039  0.00  0.00     0.030 A 
HETATM    7  C   UNK N   1      35.198  11.769  19.898  0.00  0.00     0.002 A 
HETATM    8  C   UNK N   1      35.159  13.081  19.369  0.00  0.00     0.001 A 
HETATM    9  C   UNK N   1      35.211  13.286  17.980  0.00  0.00     0.014 A 
HETATM   10  H   UNK N   1      35.463   9.007  16.784  0.00  0.00     0.165 HD
ENDROOT
BRANCH   1  11
HETATM   11  C   UNK N   1      35.348  13.241  14.871  0.00  0.00     0.093 C 
BRANCH  11  12
HETATM   12  C   UNK N   1      36.636  13.795  14.251  0.00  0.00     0.215 C 
BRANCH  12  13
HETATM   13  O   UNK N   1      37.514  14.113  15.285  0.00  0.00    -0.377 OA
HETATM   14  H   UNK N   1      38.174  14.824  15.337  0.00  0.00     0.212 HD
ENDBRANCH  12  13
BRANCH  12  15
HETATM   15  N   UNK N   1      36.429  14.972  13.426  0.00  0.00    -0.406 N 
HETATM   16  H   UNK N   1      35.762  15.725  13.599  0.00  0.00     0.152 HD
HETATM   17  H   UNK N   1      37.008  15.055  12.590  0.00  0.00     0.152 HD
ENDBRANCH  12  15
ENDBRANCH  11  12
ENDBRANCH   1  11
TORSDOF 4
ENDMDL
MODEL 8
REMARK VINA RESULT:      -5.1     13.017     15.346
REMARK  4 active torsions:
REMARK  status: ('A' for Active; 'I' for Inactive)
REMARK    1  A    between atoms: O_1  and  C_2 
REMARK    2  A    between atoms: C_2  and  N_3 
REMARK    3  A    between atoms: C_2  and  C_4 
REMARK    4  A    between atoms: C_4  and  C_5 
ROOT
HETATM    1  C   UNK N   1      28.913  18.117   6.619  0.00  0.00    -0.026 A 
HETATM    2  C   UNK N   1      29.173  17.176   5.619  0.00  0.00     0.096 A 
HETATM    3  N   UNK N   1      28.551  17.548   4.470  0.00  0.00    -0.365 N 
HETATM    4  C   UNK N   1      27.914  18.701   4.748  0.00  0.00     0.042 A 
HETATM    5  C   UNK N   1      28.119  19.070   6.045  0.00  0.00    -0.002 A 
HETATM    6  C   UNK N   1      27.139  19.466   3.881  0.00  0.00     0.030 A 
HETATM    7  C   UNK N   1      26.563  20.648   4.388  0.00  0.00     0.002 A 
HETATM    8  C   UNK N   1      26.778  21.030   5.733  0.00  0.00     0.001 A 
HETATM    9  C   UNK N   1      27.567  20.233   6.579  0.00  0.00     0.014 A 
HETATM   10  H   UNK N   1      28.563  17.071   3.609  0.00  0.00     0.165 HD
ENDROOT
BRANCH   1  11
HETATM   11  C   UNK N   1      29.371  18.169   8.053  0.00  0.00     0.093 C 
BRANCH  11  12
HETATM   12  C   UNK N   1      28.624  17.417   9.161  0.00  0.00     0.215 C 
BRANCH  12  13
HETATM   13  O   UNK N   1      27.467  18.131   9.466  0.00  0.00    -0.377 OA
HETATM   14  H   UNK N   1      26.876  18.048  10.231  0.00  0.00     0.212 HD
ENDBRANCH  12  13
BRANCH  12  15
HETATM   15  N   UNK N   1      29.403  17.236  10.372  0.00  0.00    -0.406 N 
HETATM   16  H   UNK N   1      29.857  17.969  10.917  0.00  0.00     0.152 HD
HETATM   17  H   UNK N   1      29.508  16.280  10.713  0.00  0.00     0.152 HD
ENDBRANCH  12  15
ENDBRANCH  11  12
ENDBRANCH   1  11
TORSDOF 4
ENDMDL
MODEL 9
REMARK VINA RESULT:      -4.8     20.380     21.805
REMARK  4 active torsions:
REMARK  status: ('A' for Active; 'I' for Inactive)
REMARK    1  A    between atoms: O_1  and  C_2 
REMARK    2  A    between atoms: C_2  and  N_3 
REMARK    3  A    between atoms: C_2  and  C_4 
REMARK    4  A    between atoms: C_4  and  C_5 
ROOT
HETATM    1  C   UNK N   1      20.669  18.333   3.124  0.00  0.00    -0.026 A 
HETATM    2  C   UNK N   1      21.295  18.055   4.342  0.00  0.00     0.096 A 
HETATM    3  N   UNK N   1      21.618  16.736   4.398  0.00  0.00    -0.365 N 
HETATM    4  C   UNK N   1      21.202  16.202   3.235  0.00  0.00     0.042 A 
HETATM    5  C   UNK N   1      20.624  17.149   2.443  0.00  0.00    -0.002 A 
HETATM    6  C   UNK N   1      21.316  14.875   2.828  0.00  0.00     0.030 A 
HETATM    7  C   UNK N   1      20.809  14.534   1.558  0.00  0.00     0.002 A 
HETATM    8  C   UNK N   1      20.211  15.519   0.738  0.00  0.00     0.001 A 
HETATM    9  C   UNK N   1      20.114  16.848   1.181  0.00  0.00     0.014 A 
HETATM   10  H   UNK N   1      22.067  16.267   5.138  0.00  0.00     0.165 HD
ENDROOT
BRANCH   1  11
HETATM   11  C   UNK N   1      20.131  19.629   2.578  0.00  0.00     0.093 C 
BRANCH  11  12
HETATM   12  C   UNK N   1      21.008  20.578   1.754  0.00  0.00     0.215 C 
BRANCH  12  13
HETATM   13  O   UNK N   1      21.399  21.632   2.577  0.00  0.00    -0.377 OA
HETATM   14  H   UNK N   1      21.049  21.903   3.440  0.00  0.00     0.212 HD
ENDBRANCH  12  13
BRANCH  12  15
HETATM   15  N   UNK N   1      20.346  21.115   0.578  0.00  0.00    -0.406 N 
HETATM   16  H   UNK N   1      19.735  21.932   0.546  0.00  0.00     0.152 HD
HETATM   17  H   UNK N   1      20.507  20.627  -0.303  0.00  0.00     0.152 HD
ENDBRANCH  12  15
ENDBRANCH  11  12
ENDBRANCH   1  11
TORSDOF 4
ENDMDL
