MODEL 1
REMARK VINA RESULT:      -6.5      0.000      0.000
REMARK  7 active torsions:
REMARK  status: ('A' for Active; 'I' for Inactive)
REMARK    1  A    between atoms: P_1  and  O_3 
REMARK    2  A    between atoms: P_1  and  O_4 
REMARK    3  A    between atoms: P_1  and  O_5 
REMARK    4  A    between atoms: O_5  and  C_6 
REMARK    5  A    between atoms: C_7  and  C_6 
REMARK    6  A    between atoms: C_9  and  S_10 
REMARK    7  A    between atoms: C_12  and  N_13 
ROOT
HETATM    1  C   UNK N   1      31.837  16.233   7.708  0.00  0.00     0.162 C 
HETATM    2  O   UNK N   1      32.343  15.691   8.902  0.00  0.00    -0.358 OA
HETATM    3  C   UNK N   1      33.028  16.177   6.756  0.00  0.00     0.079 C 
HETATM    4  C   UNK N   1      34.198  16.505   7.647  0.00  0.00     0.072 C 
HETATM    5  C   UNK N   1      33.607  16.314   9.049  0.00  0.00     0.233 C 
ENDROOT
BRANCH   5   6
HETATM    6  N   UNK N   1      34.459  15.574  10.000  0.00  0.00    -0.282 N 
HETATM    7  C   UNK N   1      35.471  16.245  10.668  0.00  0.00     0.331 A 
HETATM    8  O   UNK N   1      35.633  17.441  10.507  0.00  0.00    -0.246 OA
HETATM    9  N   UNK N   1      36.310  15.562  11.507  0.00  0.00    -0.275 N 
HETATM   10  C   UNK N   1      36.172  14.217  11.700  0.00  0.00     0.256 A 
HETATM   11  H   UNK N   1      37.023  16.049  11.979  0.00  0.00     0.173 HD
HETATM   12  O   UNK N   1      36.943  13.633  12.440  0.00  0.00    -0.267 OA
HETATM   13  C   UNK N   1      35.153  13.526  11.040  0.00  0.00     0.022 A 
HETATM   14  C   UNK N   1      34.972  12.056  11.217  0.00  0.00     0.056 C 
HETATM   15  C   UNK N   1      34.301  14.231  10.189  0.00  0.00     0.110 A 
ENDBRANCH   5   6
BRANCH   1  16
HETATM   16  C   UNK N   1      31.259  17.636   8.027  0.00  0.00     0.213 C 
BRANCH  16  17
HETATM   17  O   UNK N   1      29.867  17.707   7.904  0.00  0.00    -0.294 OA
BRANCH  17  18
HETATM   18  P   UNK N   1      29.223  17.785   9.521  0.00  0.00     0.390 P 
HETATM   19  O   UNK N   1      29.753  19.092  10.166  0.00  0.00    -0.632 OA
BRANCH  18  20
HETATM   20  O   UNK N   1      27.492  17.897   9.483  0.00  0.00    -0.307 OA
HETATM   21  H   UNK N   1      26.738  18.105   8.909  0.00  0.00     0.222 HD
ENDBRANCH  18  20
BRANCH  18  22
HETATM   22  O   UNK N   1      29.755  16.470  10.526  0.00  0.00    -0.307 OA
HETATM   23  H   UNK N   1      29.804  16.530  11.493  0.00  0.00     0.222 HD
ENDBRANCH  18  22
ENDBRANCH  17  18
ENDBRANCH  16  17
ENDBRANCH   1  16
BRANCH   3  24
HETATM   24  S   UNK N   1      32.935  17.228   5.271  0.00  0.00    -0.175 SA
HETATM   25  H   UNK N   1      33.490  18.462   5.147  0.00  0.00     0.102 HD
ENDBRANCH   3  24
TORSDOF 7
ENDMDL
MODEL 2
REMARK VINA RESULT:      -6.2      3.249      4.793
REMARK  7 active torsions:
REMARK  status: ('A' for Active; 'I' for Inactive)
REMARK    1  A    between atoms: P_1  and  O_3 
REMARK    2  A    between atoms: P_1  and  O_4 
REMARK    3  A    between atoms: P_1  and  O_5 
REMARK    4  A    between atoms: O_5  and  C_6 
REMARK    5  A    between atoms: C_7  and  C_6 
REMARK    6  A    between atoms: C_9  and  S_10 
REMARK    7  A    between atoms: C_12  and  N_13 
ROOT
HETATM    1  C   UNK N   1      34.263  14.818  10.293  0.00  0.00     0.162 C 
HETATM    2  O   UNK N   1      34.322  14.749  11.696  0.00  0.00    -0.358 OA
HETATM    3  C   UNK N   1      34.407  13.363   9.856  0.00  0.00     0.079 C 
HETATM    4  C   UNK N   1      35.401  12.804  10.841  0.00  0.00     0.072 C 
HETATM    5  C   UNK N   1      35.401  13.865  11.947  0.00  0.00     0.233 C 
ENDROOT
BRANCH   5   6
HETATM    6  N   UNK N   1      35.352  13.343  13.326  0.00  0.00    -0.282 N 
HETATM    7  C   UNK N   1      36.052  14.001  14.325  0.00  0.00     0.331 A 
HETATM    8  O   UNK N   1      36.669  15.023  14.080  0.00  0.00    -0.246 OA
HETATM    9  N   UNK N   1      36.070  13.497  15.597  0.00  0.00    -0.275 N 
HETATM   10  C   UNK N   1      35.407  12.343  15.908  0.00  0.00     0.256 A 
HETATM   11  H   UNK N   1      36.567  13.974  16.300  0.00  0.00     0.173 HD
HETATM   12  O   UNK N   1      35.453  11.909  17.045  0.00  0.00    -0.267 OA
HETATM   13  C   UNK N   1      34.690  11.671  14.914  0.00  0.00     0.022 A 
HETATM   14  C   UNK N   1      33.959  10.405  15.209  0.00  0.00     0.056 C 
HETATM   15  C   UNK N   1      34.676  12.194  13.621  0.00  0.00     0.110 A 
ENDBRANCH   5   6
BRANCH   1  16
HETATM   16  C   UNK N   1      35.359  15.805   9.815  0.00  0.00     0.213 C 
BRANCH  16  17
HETATM   17  O   UNK N   1      35.037  17.148  10.039  0.00  0.00    -0.294 OA
BRANCH  17  18
HETATM   18  P   UNK N   1      34.318  17.745   8.569  0.00  0.00     0.390 P 
HETATM   19  O   UNK N   1      34.900  19.159   8.313  0.00  0.00    -0.632 OA
BRANCH  18  20
HETATM   20  O   UNK N   1      34.772  16.752   7.221  0.00  0.00    -0.307 OA
HETATM   21  H   UNK N   1      35.498  16.222   6.855  0.00  0.00     0.222 HD
ENDBRANCH  18  20
BRANCH  18  22
HETATM   22  O   UNK N   1      32.592  17.918   8.680  0.00  0.00    -0.307 OA
HETATM   23  H   UNK N   1      32.108  18.659   8.284  0.00  0.00     0.222 HD
ENDBRANCH  18  22
ENDBRANCH  17  18
ENDBRANCH  16  17
ENDBRANCH   1  16
BRANCH   3  24
HETATM   24  S   UNK N   1      34.871  13.075   8.118  0.00  0.00    -0.175 SA
HETATM   25  H   UNK N   1      34.082  12.483   7.183  0.00  0.00     0.102 HD
ENDBRANCH   3  24
TORSDOF 7
ENDMDL
MODEL 3
REMARK VINA RESULT:      -6.2      5.498      7.554
REMARK  7 active torsions:
REMARK  status: ('A' for Active; 'I' for Inactive)
REMARK    1  A    between atoms: P_1  and  O_3 
REMARK    2  A    between atoms: P_1  and  O_4 
REMARK    3  A    between atoms: P_1  and  O_5 
REMARK    4  A    between atoms: O_5  and  C_6 
REMARK    5  A    between atoms: C_7  and  C_6 
REMARK    6  A    between atoms: C_9  and  S_10 
REMARK    7  A    between atoms: C_12  and  N_13 
ROOT
HETATM    1  C   UNK N   1      35.186  12.901  13.050  0.00  0.00     0.162 C 
HETATM    2  O   UNK N   1      34.672  12.875  14.358  0.00  0.00    -0.358 OA
HETATM    3  C   UNK N   1      36.417  12.004  13.130  0.00  0.00     0.079 C 
HETATM    4  C   UNK N   1      36.985  12.319  14.490  0.00  0.00     0.072 C 
HETATM    5  C   UNK N   1      35.818  13.038  15.176  0.00  0.00     0.233 C 
ENDROOT
BRANCH   5   6
HETATM    6  N   UNK N   1      35.545  12.621  16.565  0.00  0.00    -0.282 N 
HETATM    7  C   UNK N   1      35.600  13.563  17.579  0.00  0.00     0.331 A 
HETATM    8  O   UNK N   1      35.829  14.733  17.326  0.00  0.00    -0.246 OA
HETATM    9  N   UNK N   1      35.411  13.184  18.880  0.00  0.00    -0.275 N 
HETATM   10  C   UNK N   1      35.170  11.880  19.206  0.00  0.00     0.256 A 
HETATM   11  H   UNK N   1      35.448  13.862  19.592  0.00  0.00     0.173 HD
HETATM   12  O   UNK N   1      35.021  11.568  20.374  0.00  0.00    -0.267 OA
HETATM   13  C   UNK N   1      35.104  10.917  18.195  0.00  0.00     0.022 A 
HETATM   14  C   UNK N   1      34.850   9.481  18.508  0.00  0.00     0.056 C 
HETATM   15  C   UNK N   1      35.296  11.314  16.872  0.00  0.00     0.110 A 
ENDBRANCH   5   6
BRANCH   1  16
HETATM   16  C   UNK N   1      35.422  14.382  12.657  0.00  0.00     0.213 C 
BRANCH  16  17
HETATM   17  O   UNK N   1      34.483  14.874  11.744  0.00  0.00    -0.294 OA
BRANCH  17  18
HETATM   18  P   UNK N   1      35.373  15.749  10.529  0.00  0.00     0.390 P 
HETATM   19  O   UNK N   1      35.375  14.881   9.244  0.00  0.00    -0.632 OA
BRANCH  18  20
HETATM   20  O   UNK N   1      34.571  17.238  10.140  0.00  0.00    -0.307 OA
HETATM   21  H   UNK N   1      34.723  18.148   9.839  0.00  0.00     0.222 HD
ENDBRANCH  18  20
BRANCH  18  22
HETATM   22  O   UNK N   1      37.034  16.015  10.967  0.00  0.00    -0.307 OA
HETATM   23  H   UNK N   1      37.524  15.429  11.564  0.00  0.00     0.222 HD
ENDBRANCH  18  22
ENDBRANCH  17  18
ENDBRANCH  16  17
ENDBRANCH   1  16
BRANCH   3  24
HETATM   24  S   UNK N   1      37.633  12.165  11.784  0.00  0.00    -0.175 SA
HETATM   25  H   UNK N   1      38.893  12.659  11.919  0.00  0.00     0.102 HD
ENDBRANCH   3  24
TORSDOF 7
ENDMDL
MODEL 4
REMARK VINA RESULT:      -6.1      4.083      6.437
REMARK  7 active torsions:
REMARK  status: ('A' for Active; 'I' for Inactive)
REMARK    1  A    between atoms: P_1  and  O_3 
REMARK    2  A    between atoms: P_1  and  O_4 
REMARK    3  A    between atoms: P_1  and  O_5 
REMARK    4  A    between atoms: O_5  and  C_6 
REMARK    5  A    between atoms: C_7  and  C_6 
REMARK    6  A    between atoms: C_9  and  S_10 
REMARK    7  A    between atoms: C_12  and  N_13 
ROOT
HETATM    1  C   UNK N   1      35.263  11.929   9.890  0.00  0.00     0.162 C 
HETATM    2  O   UNK N   1      35.639  13.281   9.800  0.00  0.00    -0.358 OA
HETATM    3  C   UNK N   1      34.067  11.826   8.949  0.00  0.00     0.079 C 
HETATM    4  C   UNK N   1      33.348  13.133   9.160  0.00  0.00     0.072 C 
HETATM    5  C   UNK N   1      34.408  13.980   9.873  0.00  0.00     0.233 C 
ENDROOT
BRANCH   5   6
HETATM    6  N   UNK N   1      34.552  15.363   9.380  0.00  0.00    -0.282 N 
HETATM    7  C   UNK N   1      34.993  16.350  10.247  0.00  0.00     0.331 A 
HETATM    8  O   UNK N   1      35.301  16.075  11.393  0.00  0.00    -0.246 OA
HETATM    9  N   UNK N   1      35.073  17.650   9.826  0.00  0.00    -0.275 N 
HETATM   10  C   UNK N   1      34.718  18.001   8.554  0.00  0.00     0.256 A 
HETATM   11  H   UNK N   1      35.391  18.342  10.448  0.00  0.00     0.173 HD
HETATM   12  O   UNK N   1      34.784  19.168   8.211  0.00  0.00    -0.267 OA
HETATM   13  C   UNK N   1      34.277  17.018   7.664  0.00  0.00     0.022 A 
HETATM   14  C   UNK N   1      33.874  17.360   6.270  0.00  0.00     0.056 C 
HETATM   15  C   UNK N   1      34.202  15.696   8.103  0.00  0.00     0.110 A 
ENDBRANCH   5   6
BRANCH   1  16
HETATM   16  C   UNK N   1      35.011  11.601  11.384  0.00  0.00     0.213 C 
BRANCH  16  17
HETATM   17  O   UNK N   1      36.186  11.416  12.121  0.00  0.00    -0.294 OA
BRANCH  17  18
HETATM   18  P   UNK N   1      36.428  12.867  13.053  0.00  0.00     0.390 P 
HETATM   19  O   UNK N   1      35.032  13.354  13.520  0.00  0.00    -0.632 OA
BRANCH  18  20
HETATM   20  O   UNK N   1      37.356  12.529  14.480  0.00  0.00    -0.307 OA
HETATM   21  H   UNK N   1      38.157  12.781  14.965  0.00  0.00     0.222 HD
ENDBRANCH  18  20
BRANCH  18  22
HETATM   22  O   UNK N   1      37.133  14.158  12.126  0.00  0.00    -0.307 OA
HETATM   23  H   UNK N   1      36.604  14.839  11.681  0.00  0.00     0.222 HD
ENDBRANCH  18  22
ENDBRANCH  17  18
ENDBRANCH  16  17
ENDBRANCH   1  16
BRANCH   3  24
HETATM   24  S   UNK N   1      32.992  10.369   9.153  0.00  0.00    -0.175 SA
HETATM   25  H   UNK N   1      33.421   9.081   9.222  0.00  0.00     0.102 HD
ENDBRANCH   3  24
TORSDOF 7
ENDMDL
MODEL 5
REMARK VINA RESULT:      -6.1      9.627     12.301
REMARK  7 active torsions:
REMARK  status: ('A' for Active; 'I' for Inactive)
REMARK    1  A    between atoms: P_1  and  O_3 
REMARK    2  A    between atoms: P_1  and  O_4 
REMARK    3  A    between atoms: P_1  and  O_5 
REMARK    4  A    between atoms: O_5  and  C_6 
REMARK    5  A    between atoms: C_7  and  C_6 
REMARK    6  A    between atoms: C_9  and  S_10 
REMARK    7  A    between atoms: C_12  and  N_13 
ROOT
HETATM    1  C   UNK N   1      21.090  18.785   4.058  0.00  0.00     0.162 C 
HETATM    2  O   UNK N   1      22.286  19.522   4.116  0.00  0.00    -0.358 OA
HETATM    3  C   UNK N   1      21.507  17.388   4.507  0.00  0.00     0.079 C 
HETATM    4  C   UNK N   1      22.874  17.223   3.895  0.00  0.00     0.072 C 
HETATM    5  C   UNK N   1      23.242  18.662   3.519  0.00  0.00     0.233 C 
ENDROOT
BRANCH   5   6
HETATM    6  N   UNK N   1      24.617  19.076   3.860  0.00  0.00    -0.282 N 
HETATM    7  C   UNK N   1      25.212  20.105   3.149  0.00  0.00     0.331 A 
HETATM    8  O   UNK N   1      24.597  20.693   2.278  0.00  0.00    -0.246 OA
HETATM    9  N   UNK N   1      26.508  20.460   3.409  0.00  0.00    -0.275 N 
HETATM   10  C   UNK N   1      27.238  19.812   4.365  0.00  0.00     0.256 A 
HETATM   11  H   UNK N   1      26.920  21.195   2.901  0.00  0.00     0.173 HD
HETATM   12  O   UNK N   1      28.394  20.139   4.565  0.00  0.00    -0.267 OA
HETATM   13  C   UNK N   1      26.651  18.777   5.097  0.00  0.00     0.022 A 
HETATM   14  C   UNK N   1      27.414  18.039   6.144  0.00  0.00     0.056 C 
HETATM   15  C   UNK N   1      25.329  18.424   4.826  0.00  0.00     0.110 A 
ENDBRANCH   5   6
BRANCH   1  16
HETATM   16  C   UNK N   1      20.514  18.919   2.626  0.00  0.00     0.213 C 
BRANCH  16  17
HETATM   17  O   UNK N   1      19.816  20.112   2.413  0.00  0.00    -0.294 OA
BRANCH  17  18
HETATM   18  P   UNK N   1      20.921  21.209   1.633  0.00  0.00     0.390 P 
HETATM   19  O   UNK N   1      21.700  20.397   0.566  0.00  0.00    -0.632 OA
BRANCH  18  20
HETATM   20  O   UNK N   1      20.054  22.456   0.794  0.00  0.00    -0.307 OA
HETATM   21  H   UNK N   1      19.608  22.667  -0.041  0.00  0.00     0.222 HD
ENDBRANCH  18  20
BRANCH  18  22
HETATM   22  O   UNK N   1      22.099  21.875   2.724  0.00  0.00    -0.307 OA
HETATM   23  H   UNK N   1      22.125  21.660   3.670  0.00  0.00     0.222 HD
ENDBRANCH  18  22
ENDBRANCH  17  18
ENDBRANCH  16  17
ENDBRANCH   1  16
BRANCH   3  24
HETATM   24  S   UNK N   1      20.366  16.027   4.104  0.00  0.00    -0.175 SA
HETATM   25  H   UNK N   1      19.765  15.211   5.011  0.00  0.00     0.102 HD
ENDBRANCH   3  24
TORSDOF 7
ENDMDL
MODEL 6
REMARK VINA RESULT:      -6.0      4.167      7.414
REMARK  7 active torsions:
REMARK  status: ('A' for Active; 'I' for Inactive)
REMARK    1  A    between atoms: P_1  and  O_3 
REMARK    2  A    between atoms: P_1  and  O_4 
REMARK    3  A    between atoms: P_1  and  O_5 
REMARK    4  A    between atoms: O_5  and  C_6 
REMARK    5  A    between atoms: C_7  and  C_6 
REMARK    6  A    between atoms: C_9  and  S_10 
REMARK    7  A    between atoms: C_12  and  N_13 
ROOT
HETATM    1  C   UNK N   1      32.546  16.311   5.459  0.00  0.00     0.162 C 
HETATM    2  O   UNK N   1      31.733  17.444   5.631  0.00  0.00    -0.358 OA
HETATM    3  C   UNK N   1      31.558  15.214   5.076  0.00  0.00     0.079 C 
HETATM    4  C   UNK N   1      30.353  15.524   5.926  0.00  0.00     0.072 C 
HETATM    5  C   UNK N   1      30.633  16.960   6.382  0.00  0.00     0.233 C 
ENDROOT
BRANCH   5   6
HETATM    6  N   UNK N   1      29.486  17.886   6.304  0.00  0.00    -0.282 N 
HETATM    7  C   UNK N   1      28.922  18.367   7.474  0.00  0.00     0.331 A 
HETATM    8  O   UNK N   1      29.390  18.066   8.558  0.00  0.00    -0.246 OA
HETATM    9  N   UNK N   1      27.819  19.176   7.423  0.00  0.00    -0.275 N 
HETATM   10  C   UNK N   1      27.253  19.521   6.229  0.00  0.00     0.256 A 
HETATM   11  H   UNK N   1      27.428  19.516   8.261  0.00  0.00     0.173 HD
HETATM   12  O   UNK N   1      26.262  20.231   6.214  0.00  0.00    -0.267 OA
HETATM   13  C   UNK N   1      27.813  19.051   5.038  0.00  0.00     0.022 A 
HETATM   14  C   UNK N   1      27.222  19.397   3.714  0.00  0.00     0.056 C 
HETATM   15  C   UNK N   1      28.938  18.228   5.101  0.00  0.00     0.110 A 
ENDBRANCH   5   6
BRANCH   1  16
HETATM   16  C   UNK N   1      33.357  16.100   6.763  0.00  0.00     0.213 C 
BRANCH  16  17
HETATM   17  O   UNK N   1      34.425  16.992   6.907  0.00  0.00    -0.294 OA
BRANCH  17  18
HETATM   18  P   UNK N   1      34.116  17.918   8.350  0.00  0.00     0.390 P 
HETATM   19  O   UNK N   1      35.060  19.149   8.319  0.00  0.00    -0.632 OA
BRANCH  18  20
HETATM   20  O   UNK N   1      32.489  18.520   8.352  0.00  0.00    -0.307 OA
HETATM   21  H   UNK N   1      31.560  18.251   8.278  0.00  0.00     0.222 HD
ENDBRANCH  18  20
BRANCH  18  22
HETATM   22  O   UNK N   1      34.473  17.040   9.808  0.00  0.00    -0.307 OA
HETATM   23  H   UNK N   1      35.142  17.328  10.448  0.00  0.00     0.222 HD
ENDBRANCH  18  22
ENDBRANCH  17  18
ENDBRANCH  16  17
ENDBRANCH   1  16
BRANCH   3  24
HETATM   24  S   UNK N   1      32.139  13.496   5.245  0.00  0.00    -0.175 SA
HETATM   25  H   UNK N   1      33.127  12.926   4.506  0.00  0.00     0.102 HD
ENDBRANCH   3  24
TORSDOF 7
ENDMDL
MODEL 7
REMARK VINA RESULT:      -5.8      3.084      4.342
REMARK  7 active torsions:
REMARK  status: ('A' for Active; 'I' for Inactive)
REMARK    1  A    between atoms: P_1  and  O_3 
REMARK    2  A    between atoms: P_1  and  O_4 
REMARK    3  A    between atoms: P_1  and  O_5 
REMARK    4  A    between atoms: O_5  and  C_6 
REMARK    5  A    between atoms: C_7  and  C_6 
REMARK    6  A    between atoms: C_9  and  S_10 
REMARK    7  A    between atoms: C_12  and  N_13 
ROOT
HETATM    1  C   UNK N   1      33.679  14.446   9.229  0.00  0.00     0.162 C 
HETATM    2  O   UNK N   1      34.183  14.361  10.538  0.00  0.00    -0.358 OA
HETATM    3  C   UNK N   1      33.799  13.019   8.704  0.00  0.00     0.079 C 
HETATM    4  C   UNK N   1      35.096  12.539   9.302  0.00  0.00     0.072 C 
HETATM    5  C   UNK N   1      35.356  13.578  10.399  0.00  0.00     0.233 C 
ENDROOT
BRANCH   5   6
HETATM    6  N   UNK N   1      35.790  13.032  11.700  0.00  0.00    -0.282 N 
HETATM    7  C   UNK N   1      37.141  12.844  11.940  0.00  0.00     0.331 A 
HETATM    8  O   UNK N   1      37.970  13.163  11.106  0.00  0.00    -0.246 OA
HETATM    9  N   UNK N   1      37.558  12.280  13.115  0.00  0.00    -0.275 N 
HETATM   10  C   UNK N   1      36.659  11.891  14.068  0.00  0.00     0.256 A 
HETATM   11  H   UNK N   1      38.521  12.154  13.278  0.00  0.00     0.173 HD
HETATM   12  O   UNK N   1      37.058  11.379  15.099  0.00  0.00    -0.267 OA
HETATM   13  C   UNK N   1      35.293  12.081  13.846  0.00  0.00     0.022 A 
HETATM   14  C   UNK N   1      34.278  11.664  14.856  0.00  0.00     0.056 C 
HETATM   15  C   UNK N   1      34.878  12.658  12.645  0.00  0.00     0.110 A 
ENDBRANCH   5   6
BRANCH   1  16
HETATM   16  C   UNK N   1      34.481  15.539   8.477  0.00  0.00     0.213 C 
BRANCH  16  17
HETATM   17  O   UNK N   1      34.644  16.718   9.213  0.00  0.00    -0.294 OA
BRANCH  17  18
HETATM   18  P   UNK N   1      34.353  18.040   8.116  0.00  0.00     0.390 P 
HETATM   19  O   UNK N   1      32.875  18.475   8.300  0.00  0.00    -0.632 OA
BRANCH  18  20
HETATM   20  O   UNK N   1      35.343  19.404   8.528  0.00  0.00    -0.307 OA
HETATM   21  H   UNK N   1      36.220  19.797   8.395  0.00  0.00     0.222 HD
ENDBRANCH  18  20
BRANCH  18  22
HETATM   22  O   UNK N   1      34.547  17.591   6.448  0.00  0.00    -0.307 OA
HETATM   23  H   UNK N   1      34.957  16.758   6.169  0.00  0.00     0.222 HD
ENDBRANCH  18  22
ENDBRANCH  17  18
ENDBRANCH  16  17
ENDBRANCH   1  16
BRANCH   3  24
HETATM   24  S   UNK N   1      33.714  12.803   6.897  0.00  0.00    -0.175 SA
HETATM   25  H   UNK N   1      34.626  13.276   6.006  0.00  0.00     0.102 HD
ENDBRANCH   3  24
TORSDOF 7
ENDMDL
MODEL 8
REMARK VINA RESULT:      -5.7     11.761     12.772
REMARK  7 active torsions:
REMARK  status: ('A' for Active; 'I' for Inactive)
REMARK    1  A    between atoms: P_1  and  O_3 
REMARK    2  A    between atoms: P_1  and  O_4 
REMARK    3  A    between atoms: P_1  and  O_5 
REMARK    4  A    between atoms: O_5  and  C_6 
REMARK    5  A    between atoms: C_7  and  C_6 
REMARK    6  A    between atoms: C_9  and  S_10 
REMARK    7  A    between atoms: C_12  and  N_13 
ROOT
HETATM    1  C   UNK N   1      22.349  17.287   3.872  0.00  0.00     0.162 C 
HETATM    2  O   UNK N   1      21.426  16.801   4.814  0.00  0.00    -0.358 OA
HETATM    3  C   UNK N   1      23.651  16.586   4.250  0.00  0.00     0.079 C 
HETATM    4  C   UNK N   1      23.602  16.556   5.756  0.00  0.00     0.072 C 
HETATM    5  C   UNK N   1      22.129  16.868   6.043  0.00  0.00     0.233 C 
ENDROOT
BRANCH   5   6
HETATM    6  N   UNK N   1      21.490  16.022   7.070  0.00  0.00    -0.282 N 
HETATM    7  C   UNK N   1      20.632  16.603   7.990  0.00  0.00     0.331 A 
HETATM    8  O   UNK N   1      20.373  17.792   7.930  0.00  0.00    -0.246 OA
HETATM    9  N   UNK N   1      20.079  15.846   8.987  0.00  0.00    -0.275 N 
HETATM   10  C   UNK N   1      20.361  14.514   9.099  0.00  0.00     0.256 A 
HETATM   11  H   UNK N   1      19.469  16.268   9.633  0.00  0.00     0.173 HD
HETATM   12  O   UNK N   1      19.866  13.868  10.005  0.00  0.00    -0.267 OA
HETATM   13  C   UNK N   1      21.218  13.910   8.175  0.00  0.00     0.022 A 
HETATM   14  C   UNK N   1      21.557  12.461   8.265  0.00  0.00     0.056 C 
HETATM   15  C   UNK N   1      21.775  14.690   7.161  0.00  0.00     0.110 A 
ENDBRANCH   5   6
BRANCH   1  16
HETATM   16  C   UNK N   1      22.340  18.836   3.947  0.00  0.00     0.213 C 
BRANCH  16  17
HETATM   17  O   UNK N   1      22.657  19.455   2.734  0.00  0.00    -0.294 OA
BRANCH  17  18
HETATM   18  P   UNK N   1      21.188  20.177   2.137  0.00  0.00     0.390 P 
HETATM   19  O   UNK N   1      21.494  20.749   0.729  0.00  0.00    -0.632 OA
BRANCH  18  20
HETATM   20  O   UNK N   1      19.952  18.974   1.944  0.00  0.00    -0.307 OA
HETATM   21  H   UNK N   1      18.994  18.851   1.853  0.00  0.00     0.222 HD
ENDBRANCH  18  20
BRANCH  18  22
HETATM   22  O   UNK N   1      20.639  21.504   3.117  0.00  0.00    -0.307 OA
HETATM   23  H   UNK N   1      20.106  22.234   2.767  0.00  0.00     0.222 HD
ENDBRANCH  18  22
ENDBRANCH  17  18
ENDBRANCH  16  17
ENDBRANCH   1  16
BRANCH   3  24
HETATM   24  S   UNK N   1      25.188  17.309   3.592  0.00  0.00    -0.175 SA
HETATM   25  H   UNK N   1      25.265  18.441   2.842  0.00  0.00     0.102 HD
ENDBRANCH   3  24
TORSDOF 7
ENDMDL
MODEL 9
REMARK VINA RESULT:      -5.7     15.573     18.004
REMARK  7 active torsions:
REMARK  status: ('A' for Active; 'I' for Inactive)
REMARK    1  A    between atoms: P_1  and  O_3 
REMARK    2  A    between atoms: P_1  and  O_4 
REMARK    3  A    between atoms: P_1  and  O_5 
REMARK    4  A    between atoms: O_5  and  C_6 
REMARK    5  A    between atoms: C_7  and  C_6 
REMARK    6  A    between atoms: C_9  and  S_10 
REMARK    7  A    between atoms: C_12  and  N_13 
ROOT
HETATM    1  C   UNK N   1      29.972  22.892  -5.832  0.00  0.00     0.162 C 
HETATM    2  O   UNK N   1      29.632  24.028  -5.077  0.00  0.00    -0.358 OA
HETATM    3  C   UNK N   1      28.905  22.853  -6.922  0.00  0.00     0.079 C 
HETATM    4  C   UNK N   1      27.660  23.304  -6.203  0.00  0.00     0.072 C 
HETATM    5  C   UNK N   1      28.227  23.922  -4.920  0.00  0.00     0.233 C 
ENDROOT
BRANCH   5   6
HETATM    6  N   UNK N   1      27.637  25.216  -4.525  0.00  0.00    -0.282 N 
HETATM    7  C   UNK N   1      26.872  25.288  -3.373  0.00  0.00     0.331 A 
HETATM    8  O   UNK N   1      26.719  24.307  -2.667  0.00  0.00    -0.246 OA
HETATM    9  N   UNK N   1      26.264  26.464  -3.024  0.00  0.00    -0.275 N 
HETATM   10  C   UNK N   1      26.395  27.581  -3.799  0.00  0.00     0.256 A 
HETATM   11  H   UNK N   1      25.726  26.506  -2.201  0.00  0.00     0.173 HD
HETATM   12  O   UNK N   1      25.831  28.611  -3.473  0.00  0.00    -0.267 OA
HETATM   13  C   UNK N   1      27.170  27.528  -4.961  0.00  0.00     0.022 A 
HETATM   14  C   UNK N   1      27.332  28.723  -5.839  0.00  0.00     0.056 C 
HETATM   15  C   UNK N   1      27.786  26.326  -5.307  0.00  0.00     0.110 A 
ENDBRANCH   5   6
BRANCH   1  16
HETATM   16  C   UNK N   1      30.035  21.678  -4.869  0.00  0.00     0.213 C 
BRANCH  16  17
HETATM   17  O   UNK N   1      30.607  21.979  -3.629  0.00  0.00    -0.294 OA
BRANCH  17  18
HETATM   18  P   UNK N   1      32.157  21.185  -3.583  0.00  0.00     0.390 P 
HETATM   19  O   UNK N   1      33.130  22.025  -4.452  0.00  0.00    -0.632 OA
BRANCH  18  20
HETATM   20  O   UNK N   1      32.791  21.175  -1.968  0.00  0.00    -0.307 OA
HETATM   21  H   UNK N   1      33.545  21.457  -1.426  0.00  0.00     0.222 HD
ENDBRANCH  18  20
BRANCH  18  22
HETATM   22  O   UNK N   1      32.120  19.586  -4.263  0.00  0.00    -0.307 OA
HETATM   23  H   UNK N   1      31.601  18.861  -3.880  0.00  0.00     0.222 HD
ENDBRANCH  18  22
ENDBRANCH  17  18
ENDBRANCH  16  17
ENDBRANCH   1  16
BRANCH   3  24
HETATM   24  S   UNK N   1      28.698  21.273  -7.805  0.00  0.00    -0.175 SA
HETATM   25  H   UNK N   1      28.052  20.180  -7.317  0.00  0.00     0.102 HD
ENDBRANCH   3  24
TORSDOF 7
ENDMDL
