MODEL 1
REMARK VINA RESULT:      -5.5      0.000      0.000
REMARK  2 active torsions:
REMARK  status: ('A' for Active; 'I' for Inactive)
REMARK       I    between atoms: C_2  and  N_3 
REMARK    1  A    between atoms: C_2  and  C_4 
REMARK    2  A    between atoms: C_4  and  C_5 
ROOT
HETATM    1  C   UNK N   1      22.284  19.704   3.373  0.00  0.00    -0.022 A 
HETATM    2  C   UNK N   1      21.955  18.650   4.226  0.00  0.00     0.097 A 
HETATM    3  N   UNK N   1      23.090  18.108   4.738  0.00  0.00    -0.365 N 
HETATM    4  C   UNK N   1      24.106  18.812   4.212  0.00  0.00     0.042 A 
HETATM    5  C   UNK N   1      23.648  19.790   3.379  0.00  0.00    -0.001 A 
HETATM    6  C   UNK N   1      25.467  18.628   4.441  0.00  0.00     0.030 A 
HETATM    7  C   UNK N   1      26.365  19.489   3.779  0.00  0.00     0.002 A 
HETATM    8  C   UNK N   1      25.884  20.501   2.916  0.00  0.00     0.001 A 
HETATM    9  C   UNK N   1      24.504  20.658   2.709  0.00  0.00     0.014 A 
HETATM   10  H   UNK N   1      23.155  17.352   5.366  0.00  0.00     0.165 HD
ENDROOT
BRANCH   1  11
HETATM   11  C   UNK N   1      21.394  20.614   2.571  0.00  0.00     0.143 C 
BRANCH  11  12
HETATM   12  C   UNK N   1      20.992  20.180   1.191  0.00  0.00     0.219 C 
HETATM   13  O   UNK N   1      21.308  20.877   0.243  0.00  0.00    -0.273 OA
HETATM   14  N   UNK N   1      20.294  19.048   0.977  0.00  0.00    -0.370 N 
HETATM   15  H   UNK N   1      20.044  18.789   0.061  0.00  0.00     0.159 HD
HETATM   16  H   UNK N   1      20.034  18.479   1.737  0.00  0.00     0.159 HD
ENDBRANCH  11  12
ENDBRANCH   1  11
TORSDOF 2
ENDMDL
MODEL 2
REMARK VINA RESULT:      -5.5      8.262      9.569
REMARK  2 active torsions:
REMARK  status: ('A' for Active; 'I' for Inactive)
REMARK       I    between atoms: C_2  and  N_3 
REMARK    1  A    between atoms: C_2  and  C_4 
REMARK    2  A    between atoms: C_4  and  C_5 
ROOT
HETATM    1  C   UNK N   1      30.240  17.328   7.761  0.00  0.00    -0.022 A 
HETATM    2  C   UNK N   1      29.611  16.825   6.621  0.00  0.00     0.097 A 
HETATM    3  N   UNK N   1      30.531  16.633   5.641  0.00  0.00    -0.365 N 
HETATM    4  C   UNK N   1      31.711  17.010   6.162  0.00  0.00     0.042 A 
HETATM    5  C   UNK N   1      31.566  17.437   7.449  0.00  0.00    -0.001 A 
HETATM    6  C   UNK N   1      32.954  16.995   5.534  0.00  0.00     0.030 A 
HETATM    7  C   UNK N   1      34.067  17.439   6.275  0.00  0.00     0.002 A 
HETATM    8  C   UNK N   1      33.911  17.881   7.609  0.00  0.00     0.001 A 
HETATM    9  C   UNK N   1      32.642  17.882   8.211  0.00  0.00     0.014 A 
HETATM   10  H   UNK N   1      30.367  16.288   4.733  0.00  0.00     0.165 HD
ENDROOT
BRANCH   1  11
HETATM   11  C   UNK N   1      29.664  17.702   9.099  0.00  0.00     0.143 C 
BRANCH  11  12
HETATM   12  C   UNK N   1      28.171  17.814   9.224  0.00  0.00     0.219 C 
HETATM   13  O   UNK N   1      27.555  16.893   9.730  0.00  0.00    -0.273 OA
HETATM   14  N   UNK N   1      27.502  18.902   8.795  0.00  0.00    -0.370 N 
HETATM   15  H   UNK N   1      26.524  18.948   8.890  0.00  0.00     0.159 HD
HETATM   16  H   UNK N   1      27.993  19.651   8.385  0.00  0.00     0.159 HD
ENDBRANCH  11  12
ENDBRANCH   1  11
TORSDOF 2
ENDMDL
MODEL 3
REMARK VINA RESULT:      -5.4     18.830     20.569
REMARK  2 active torsions:
REMARK  status: ('A' for Active; 'I' for Inactive)
REMARK       I    between atoms: C_2  and  N_3 
REMARK    1  A    between atoms: C_2  and  C_4 
REMARK    2  A    between atoms: C_4  and  C_5 
ROOT
HETATM    1  C   UNK N   1      35.361  13.220  17.025  0.00  0.00    -0.022 A 
HETATM    2  C   UNK N   1      35.314  14.192  18.025  0.00  0.00     0.097 A 
HETATM    3  N   UNK N   1      35.245  13.590  19.241  0.00  0.00    -0.365 N 
HETATM    4  C   UNK N   1      35.249  12.268  19.000  0.00  0.00     0.042 A 
HETATM    5  C   UNK N   1      35.319  12.012  17.662  0.00  0.00    -0.001 A 
HETATM    6  C   UNK N   1      35.192  11.239  19.937  0.00  0.00     0.030 A 
HETATM    7  C   UNK N   1      35.209   9.915  19.457  0.00  0.00     0.002 A 
HETATM    8  C   UNK N   1      35.282   9.655  18.069  0.00  0.00     0.001 A 
HETATM    9  C   UNK N   1      35.337  10.718  17.152  0.00  0.00     0.014 A 
HETATM   10  H   UNK N   1      35.201  14.032  20.120  0.00  0.00     0.165 HD
ENDROOT
BRANCH   1  11
HETATM   11  C   UNK N   1      35.441  13.373  15.531  0.00  0.00     0.143 C 
BRANCH  11  12
HETATM   12  C   UNK N   1      36.615  14.112  14.953  0.00  0.00     0.219 C 
HETATM   13  O   UNK N   1      37.502  14.479  15.703  0.00  0.00    -0.273 OA
HETATM   14  N   UNK N   1      36.710  14.375  13.636  0.00  0.00    -0.370 N 
HETATM   15  H   UNK N   1      37.491  14.861  13.285  0.00  0.00     0.159 HD
HETATM   16  H   UNK N   1      35.997  14.082  13.023  0.00  0.00     0.159 HD
ENDBRANCH  11  12
ENDBRANCH   1  11
TORSDOF 2
ENDMDL
MODEL 4
REMARK VINA RESULT:      -5.4      8.097      9.460
REMARK  2 active torsions:
REMARK  status: ('A' for Active; 'I' for Inactive)
REMARK       I    between atoms: C_2  and  N_3 
REMARK    1  A    between atoms: C_2  and  C_4 
REMARK    2  A    between atoms: C_4  and  C_5 
ROOT
HETATM    1  C   UNK N   1      30.361  17.303   7.810  0.00  0.00    -0.022 A 
HETATM    2  C   UNK N   1      31.114  17.426   8.978  0.00  0.00     0.097 A 
HETATM    3  N   UNK N   1      32.432  17.519   8.662  0.00  0.00    -0.365 N 
HETATM    4  C   UNK N   1      32.496  17.455   7.321  0.00  0.00     0.042 A 
HETATM    5  C   UNK N   1      31.253  17.324   6.775  0.00  0.00    -0.001 A 
HETATM    6  C   UNK N   1      33.639  17.509   6.527  0.00  0.00     0.030 A 
HETATM    7  C   UNK N   1      33.471  17.423   5.131  0.00  0.00     0.002 A 
HETATM    8  C   UNK N   1      32.180  17.287   4.570  0.00  0.00     0.001 A 
HETATM    9  C   UNK N   1      31.049  17.236   5.402  0.00  0.00     0.014 A 
HETATM   10  H   UNK N   1      33.187  17.614   9.287  0.00  0.00     0.165 HD
ENDROOT
BRANCH   1  11
HETATM   11  C   UNK N   1      28.874  17.170   7.628  0.00  0.00     0.143 C 
BRANCH  11  12
HETATM   12  C   UNK N   1      27.974  17.686   8.714  0.00  0.00     0.219 C 
HETATM   13  O   UNK N   1      27.614  16.919   9.590  0.00  0.00    -0.273 OA
HETATM   14  N   UNK N   1      27.559  18.967   8.745  0.00  0.00    -0.370 N 
HETATM   15  H   UNK N   1      26.970  19.277   9.469  0.00  0.00     0.159 HD
HETATM   16  H   UNK N   1      27.845  19.594   8.041  0.00  0.00     0.159 HD
ENDBRANCH  11  12
ENDBRANCH   1  11
TORSDOF 2
ENDMDL
MODEL 5
REMARK VINA RESULT:      -5.4      8.232     10.537
REMARK  2 active torsions:
REMARK  status: ('A' for Active; 'I' for Inactive)
REMARK       I    between atoms: C_2  and  N_3 
REMARK    1  A    between atoms: C_2  and  C_4 
REMARK    2  A    between atoms: C_4  and  C_5 
ROOT
HETATM    1  C   UNK N   1      31.738  16.684   7.341  0.00  0.00    -0.022 A 
HETATM    2  C   UNK N   1      31.203  16.069   6.209  0.00  0.00     0.097 A 
HETATM    3  N   UNK N   1      29.875  16.344   6.126  0.00  0.00    -0.365 N 
HETATM    4  C   UNK N   1      29.591  17.117   7.187  0.00  0.00     0.042 A 
HETATM    5  C   UNK N   1      30.703  17.341   7.945  0.00  0.00    -0.001 A 
HETATM    6  C   UNK N   1      28.354  17.654   7.532  0.00  0.00     0.030 A 
HETATM    7  C   UNK N   1      28.284  18.442   8.698  0.00  0.00     0.002 A 
HETATM    8  C   UNK N   1      29.440  18.671   9.480  0.00  0.00     0.001 A 
HETATM    9  C   UNK N   1      30.673  18.114   9.101  0.00  0.00     0.014 A 
HETATM   10  H   UNK N   1      29.249  16.040   5.429  0.00  0.00     0.165 HD
ENDROOT
BRANCH   1  11
HETATM   11  C   UNK N   1      33.146  16.682   7.869  0.00  0.00     0.143 C 
BRANCH  11  12
HETATM   12  C   UNK N   1      34.059  17.805   7.467  0.00  0.00     0.219 C 
HETATM   13  O   UNK N   1      34.284  17.982   6.283  0.00  0.00    -0.273 OA
HETATM   14  N   UNK N   1      34.631  18.616   8.378  0.00  0.00    -0.370 N 
HETATM   15  H   UNK N   1      35.225  19.344   8.086  0.00  0.00     0.159 HD
HETATM   16  H   UNK N   1      34.455  18.480   9.338  0.00  0.00     0.159 HD
ENDBRANCH  11  12
ENDBRANCH   1  11
TORSDOF 2
ENDMDL
MODEL 6
REMARK VINA RESULT:      -5.4      5.788      7.836
REMARK  2 active torsions:
REMARK  status: ('A' for Active; 'I' for Inactive)
REMARK       I    between atoms: C_2  and  N_3 
REMARK    1  A    between atoms: C_2  and  C_4 
REMARK    2  A    between atoms: C_4  and  C_5 
ROOT
HETATM    1  C   UNK N   1      28.649  18.395   7.312  0.00  0.00    -0.022 A 
HETATM    2  C   UNK N   1      29.161  17.377   6.506  0.00  0.00     0.097 A 
HETATM    3  N   UNK N   1      28.805  17.598   5.214  0.00  0.00    -0.365 N 
HETATM    4  C   UNK N   1      28.085  18.732   5.218  0.00  0.00     0.042 A 
HETATM    5  C   UNK N   1      27.973  19.240   6.479  0.00  0.00    -0.001 A 
HETATM    6  C   UNK N   1      27.501  19.364   4.123  0.00  0.00     0.030 A 
HETATM    7  C   UNK N   1      26.784  20.554   4.359  0.00  0.00     0.002 A 
HETATM    8  C   UNK N   1      26.671  21.076   5.669  0.00  0.00     0.001 A 
HETATM    9  C   UNK N   1      27.274  20.411   6.750  0.00  0.00     0.014 A 
HETATM   10  H   UNK N   1      29.029  17.041   4.434  0.00  0.00     0.165 HD
ENDROOT
BRANCH   1  11
HETATM   11  C   UNK N   1      28.765  18.602   8.797  0.00  0.00     0.143 C 
BRANCH  11  12
HETATM   12  C   UNK N   1      28.649  17.404   9.695  0.00  0.00     0.219 C 
HETATM   13  O   UNK N   1      27.581  16.820   9.756  0.00  0.00    -0.273 OA
HETATM   14  N   UNK N   1      29.688  16.963  10.430  0.00  0.00    -0.370 N 
HETATM   15  H   UNK N   1      29.583  16.175  11.009  0.00  0.00     0.159 HD
HETATM   16  H   UNK N   1      30.554  17.430  10.386  0.00  0.00     0.159 HD
ENDBRANCH  11  12
ENDBRANCH   1  11
TORSDOF 2
ENDMDL
MODEL 7
REMARK VINA RESULT:      -5.2      8.342     10.078
REMARK  2 active torsions:
REMARK  status: ('A' for Active; 'I' for Inactive)
REMARK       I    between atoms: C_2  and  N_3 
REMARK    1  A    between atoms: C_2  and  C_4 
REMARK    2  A    between atoms: C_4  and  C_5 
ROOT
HETATM    1  C   UNK N   1      21.898  12.652  10.108  0.00  0.00    -0.022 A 
HETATM    2  C   UNK N   1      20.646  12.945  10.652  0.00  0.00     0.097 A 
HETATM    3  N   UNK N   1      20.068  13.952   9.947  0.00  0.00    -0.365 N 
HETATM    4  C   UNK N   1      20.945  14.279   8.982  0.00  0.00     0.042 A 
HETATM    5  C   UNK N   1      22.067  13.506   9.055  0.00  0.00    -0.001 A 
HETATM    6  C   UNK N   1      20.798  15.261   8.006  0.00  0.00     0.030 A 
HETATM    7  C   UNK N   1      21.853  15.434   7.088  0.00  0.00     0.002 A 
HETATM    8  C   UNK N   1      23.013  14.630   7.168  0.00  0.00     0.001 A 
HETATM    9  C   UNK N   1      23.127  13.648   8.166  0.00  0.00     0.014 A 
HETATM   10  H   UNK N   1      19.187  14.359  10.109  0.00  0.00     0.165 HD
ENDROOT
BRANCH   1  11
HETATM   11  C   UNK N   1      22.918  11.629  10.526  0.00  0.00     0.143 C 
BRANCH  11  12
HETATM   12  C   UNK N   1      24.019  12.058  11.453  0.00  0.00     0.219 C 
HETATM   13  O   UNK N   1      23.854  11.933  12.654  0.00  0.00    -0.273 OA
HETATM   14  N   UNK N   1      25.175  12.574  10.993  0.00  0.00    -0.370 N 
HETATM   15  H   UNK N   1      25.879  12.847  11.625  0.00  0.00     0.159 HD
HETATM   16  H   UNK N   1      25.316  12.678  10.024  0.00  0.00     0.159 HD
ENDBRANCH  11  12
ENDBRANCH   1  11
TORSDOF 2
ENDMDL
MODEL 8
REMARK VINA RESULT:      -5.2      8.056      9.455
REMARK  2 active torsions:
REMARK  status: ('A' for Active; 'I' for Inactive)
REMARK       I    between atoms: C_2  and  N_3 
REMARK    1  A    between atoms: C_2  and  C_4 
REMARK    2  A    between atoms: C_4  and  C_5 
ROOT
HETATM    1  C   UNK N   1      22.354  13.550   8.472  0.00  0.00    -0.022 A 
HETATM    2  C   UNK N   1      23.531  13.773   7.756  0.00  0.00     0.097 A 
HETATM    3  N   UNK N   1      24.595  13.347   8.486  0.00  0.00    -0.365 N 
HETATM    4  C   UNK N   1      24.087  12.868   9.634  0.00  0.00     0.042 A 
HETATM    5  C   UNK N   1      22.728  12.978   9.655  0.00  0.00    -0.001 A 
HETATM    6  C   UNK N   1      24.791  12.319  10.703  0.00  0.00     0.030 A 
HETATM    7  C   UNK N   1      24.050  11.877  11.817  0.00  0.00     0.002 A 
HETATM    8  C   UNK N   1      22.640  11.993  11.833  0.00  0.00     0.001 A 
HETATM    9  C   UNK N   1      21.963  12.552  10.736  0.00  0.00     0.014 A 
HETATM   10  H   UNK N   1      25.544  13.382   8.226  0.00  0.00     0.165 HD
ENDROOT
BRANCH   1  11
HETATM   11  C   UNK N   1      20.926  13.844   8.101  0.00  0.00     0.143 C 
BRANCH  11  12
HETATM   12  C   UNK N   1      20.202  14.921   8.856  0.00  0.00     0.219 C 
HETATM   13  O   UNK N   1      19.261  14.609   9.564  0.00  0.00    -0.273 OA
HETATM   14  N   UNK N   1      20.565  16.216   8.769  0.00  0.00    -0.370 N 
HETATM   15  H   UNK N   1      20.072  16.901   9.276  0.00  0.00     0.159 HD
HETATM   16  H   UNK N   1      21.325  16.477   8.199  0.00  0.00     0.159 HD
ENDBRANCH  11  12
ENDBRANCH   1  11
TORSDOF 2
ENDMDL
MODEL 9
REMARK VINA RESULT:      -5.1      7.481      9.177
REMARK  2 active torsions:
REMARK  status: ('A' for Active; 'I' for Inactive)
REMARK       I    between atoms: C_2  and  N_3 
REMARK    1  A    between atoms: C_2  and  C_4 
REMARK    2  A    between atoms: C_4  and  C_5 
ROOT
HETATM    1  C   UNK N   1      30.049  17.109   6.487  0.00  0.00    -0.022 A 
HETATM    2  C   UNK N   1      30.136  16.913   5.108  0.00  0.00     0.097 A 
HETATM    3  N   UNK N   1      31.434  17.010   4.716  0.00  0.00    -0.365 N 
HETATM    4  C   UNK N   1      32.139  17.262   5.832  0.00  0.00     0.042 A 
HETATM    5  C   UNK N   1      31.324  17.328   6.924  0.00  0.00    -0.001 A 
HETATM    6  C   UNK N   1      33.515  17.443   5.937  0.00  0.00     0.030 A 
HETATM    7  C   UNK N   1      34.046  17.699   7.217  0.00  0.00     0.002 A 
HETATM    8  C   UNK N   1      33.197  17.767   8.346  0.00  0.00     0.001 A 
HETATM    9  C   UNK N   1      31.812  17.579   8.202  0.00  0.00     0.014 A 
HETATM   10  H   UNK N   1      31.786  16.915   3.801  0.00  0.00     0.165 HD
ENDROOT
BRANCH   1  11
HETATM   11  C   UNK N   1      28.846  17.100   7.390  0.00  0.00     0.143 C 
BRANCH  11  12
HETATM   12  C   UNK N   1      28.225  18.416   7.761  0.00  0.00     0.219 C 
HETATM   13  O   UNK N   1      28.166  19.294   6.918  0.00  0.00    -0.273 OA
HETATM   14  N   UNK N   1      27.734  18.648   8.994  0.00  0.00    -0.370 N 
HETATM   15  H   UNK N   1      27.332  19.520   9.209  0.00  0.00     0.159 HD
HETATM   16  H   UNK N   1      27.778  17.944   9.681  0.00  0.00     0.159 HD
ENDBRANCH  11  12
ENDBRANCH   1  11
TORSDOF 2
ENDMDL
