REMARK  2 active torsions:
REMARK  status: ('A' for Active; 'I' for Inactive)
REMARK       I    between atoms: C_2  and  N_3 
REMARK    1  A    between atoms: C_2  and  C_4 
REMARK    2  A    between atoms: C_4  and  C_5 
ROOT
HETATM    1  C   UNK N   1      -0.574   0.415   0.000  0.00  0.00    -0.022 A 
HETATM    2  C   UNK N   1      -1.333  -0.756   0.000  0.00  0.00     0.097 A 
HETATM    3  N   UNK N   1      -0.506  -1.834   0.000  0.00  0.00    -0.365 N 
HETATM    4  C   UNK N   1       0.744  -1.341   0.000  0.00  0.00     0.042 A 
HETATM    5  C   UNK N   1       0.735   0.023  -0.000  0.00  0.00    -0.001 A 
HETATM    6  C   UNK N   1       1.935  -2.062   0.000  0.00  0.00     0.030 A 
HETATM    7  C   UNK N   1       3.141  -1.334  -0.000  0.00  0.00     0.002 A 
HETATM    8  C   UNK N   1       3.126   0.080  -0.000  0.00  0.00     0.001 A 
HETATM    9  C   UNK N   1       1.905   0.775  -0.000  0.00  0.00     0.014 A 
HETATM   10  H   UNK N   1      -0.769  -2.783   0.000  0.00  0.00     0.165 HD
ENDROOT
BRANCH   1  11
HETATM   11  C   UNK N   1      -1.015   1.853   0.000  0.00  0.00     0.143 C 
BRANCH  11  12
HETATM   12  C   UNK N   1      -2.488   2.146   0.000  0.00  0.00     0.219 C 
HETATM   13  O   UNK N   1      -2.854   3.308  -0.000  0.00  0.00    -0.273 OA
HETATM   14  N   UNK N   1      -3.408   1.162  -0.000  0.00  0.00    -0.370 N 
HETATM   15  H   UNK N   1      -4.367   1.384  -0.000  0.00  0.00     0.159 HD
HETATM   16  H   UNK N   1      -3.121   0.220  -0.000  0.00  0.00     0.159 HD
ENDBRANCH  11  12
ENDBRANCH   1  11
TORSDOF 2
