MODEL 1
REMARK VINA RESULT:      -5.7      0.000      0.000
REMARK  2 active torsions:
REMARK  status: ('A' for Active; 'I' for Inactive)
REMARK    1  A    between atoms: C_2  and  O_1 
REMARK    2  A    between atoms: C_11  and  N_12 
ROOT
HETATM    1  C   UNK N   1      36.341  13.827  15.191  0.00  0.00     0.173 C 
HETATM    2  C   UNK N   1      35.950  13.059  16.433  0.00  0.00    -0.021 A 
HETATM    3  C   UNK N   1      35.447  13.759  17.536  0.00  0.00     0.010 A 
HETATM    4  C   UNK N   1      35.067  13.076  18.694  0.00  0.00     0.001 A 
HETATM    5  C   UNK N   1      35.198  11.688  18.762  0.00  0.00     0.001 A 
HETATM    6  C   UNK N   1      35.719  10.980  17.678  0.00  0.00     0.007 A 
HETATM    7  C   UNK N   1      36.103  11.653  16.511  0.00  0.00    -0.049 A 
HETATM    8  C   UNK N   1      36.700  10.850  15.385  0.00  0.00     0.041 C 
HETATM    9  C   UNK N   1      37.369  11.712  14.309  0.00  0.00     0.032 C 
HETATM   10  C   UNK N   1      36.489  12.903  13.972  0.00  0.00     0.107 C 
ENDROOT
BRANCH  10  11
HETATM   11  N   UNK N   1      37.050  13.633  12.845  0.00  0.00    -0.423 N 
HETATM   12  H   UNK N   1      37.304  14.618  12.913  0.00  0.00     0.150 HD
HETATM   13  H   UNK N   1      37.194  13.144  11.962  0.00  0.00     0.150 HD
ENDBRANCH  10  11
BRANCH   1  14
HETATM   14  O   UNK N   1      37.529  14.518  15.446  0.00  0.00    -0.389 OA
HETATM   15  H   UNK N   1      38.100  15.244  15.741  0.00  0.00     0.210 HD
ENDBRANCH   1  14
TORSDOF 2
ENDMDL
MODEL 2
REMARK VINA RESULT:      -5.4     12.555     14.054
REMARK  2 active torsions:
REMARK  status: ('A' for Active; 'I' for Inactive)
REMARK    1  A    between atoms: C_2  and  O_1 
REMARK    2  A    between atoms: C_11  and  N_12 
ROOT
HETATM    1  C   UNK N   1      28.471  18.969   8.464  0.00  0.00     0.173 C 
HETATM    2  C   UNK N   1      27.993  19.409   7.099  0.00  0.00    -0.021 A 
HETATM    3  C   UNK N   1      27.111  20.493   7.004  0.00  0.00     0.010 A 
HETATM    4  C   UNK N   1      26.660  20.930   5.756  0.00  0.00     0.001 A 
HETATM    5  C   UNK N   1      27.080  20.280   4.594  0.00  0.00     0.001 A 
HETATM    6  C   UNK N   1      27.941  19.184   4.676  0.00  0.00     0.007 A 
HETATM    7  C   UNK N   1      28.401  18.736   5.921  0.00  0.00    -0.049 A 
HETATM    8  C   UNK N   1      29.294  17.525   5.962  0.00  0.00     0.041 C 
HETATM    9  C   UNK N   1      29.469  16.942   7.367  0.00  0.00     0.032 C 
HETATM   10  C   UNK N   1      29.705  18.058   8.370  0.00  0.00     0.107 C 
ENDROOT
BRANCH  10  11
HETATM   11  N   UNK N   1      30.024  17.497   9.674  0.00  0.00    -0.423 N 
HETATM   12  H   UNK N   1      29.419  16.813  10.130  0.00  0.00     0.150 HD
HETATM   13  H   UNK N   1      30.877  17.794  10.145  0.00  0.00     0.150 HD
ENDBRANCH  10  11
BRANCH   1  14
HETATM   14  O   UNK N   1      27.419  18.325   9.122  0.00  0.00    -0.389 OA
HETATM   15  H   UNK N   1      26.883  17.588   9.452  0.00  0.00     0.210 HD
ENDBRANCH   1  14
TORSDOF 2
ENDMDL
MODEL 3
REMARK VINA RESULT:      -5.3      9.749     11.934
REMARK  2 active torsions:
REMARK  status: ('A' for Active; 'I' for Inactive)
REMARK    1  A    between atoms: C_2  and  O_1 
REMARK    2  A    between atoms: C_11  and  N_12 
ROOT
HETATM    1  C   UNK N   1      33.975  17.178   7.184  0.00  0.00     0.173 C 
HETATM    2  C   UNK N   1      33.059  17.133   5.982  0.00  0.00    -0.021 A 
HETATM    3  C   UNK N   1      33.620  17.044   4.702  0.00  0.00     0.010 A 
HETATM    4  C   UNK N   1      32.798  16.990   3.573  0.00  0.00     0.001 A 
HETATM    5  C   UNK N   1      31.410  17.035   3.715  0.00  0.00     0.001 A 
HETATM    6  C   UNK N   1      30.839  17.147   4.984  0.00  0.00     0.007 A 
HETATM    7  C   UNK N   1      31.651  17.201   6.124  0.00  0.00    -0.049 A 
HETATM    8  C   UNK N   1      30.990  17.364   7.467  0.00  0.00     0.041 C 
HETATM    9  C   UNK N   1      31.968  17.731   8.588  0.00  0.00     0.032 C 
HETATM   10  C   UNK N   1      33.221  16.878   8.488  0.00  0.00     0.107 C 
ENDROOT
BRANCH  10  11
HETATM   11  N   UNK N   1      34.078  17.117   9.639  0.00  0.00    -0.423 N 
HETATM   12  H   UNK N   1      34.921  16.569   9.808  0.00  0.00     0.150 HD
HETATM   13  H   UNK N   1      33.828  17.855  10.297  0.00  0.00     0.150 HD
ENDBRANCH  10  11
BRANCH   1  14
HETATM   14  O   UNK N   1      34.589  18.433   7.234  0.00  0.00    -0.389 OA
HETATM   15  H   UNK N   1      35.309  19.082   7.220  0.00  0.00     0.210 HD
ENDBRANCH   1  14
TORSDOF 2
ENDMDL
MODEL 4
REMARK VINA RESULT:      -5.0      2.306      3.309
REMARK  2 active torsions:
REMARK  status: ('A' for Active; 'I' for Inactive)
REMARK    1  A    between atoms: C_2  and  O_1 
REMARK    2  A    between atoms: C_11  and  N_12 
ROOT
HETATM    1  C   UNK N   1      35.306  13.049  12.418  0.00  0.00     0.173 C 
HETATM    2  C   UNK N   1      35.049  12.247  13.673  0.00  0.00    -0.021 A 
HETATM    3  C   UNK N   1      34.185  11.146  13.612  0.00  0.00     0.010 A 
HETATM    4  C   UNK N   1      33.936  10.379  14.753  0.00  0.00     0.001 A 
HETATM    5  C   UNK N   1      34.540  10.714  15.966  0.00  0.00     0.001 A 
HETATM    6  C   UNK N   1      35.384  11.823  16.046  0.00  0.00     0.007 A 
HETATM    7  C   UNK N   1      35.643  12.600  14.909  0.00  0.00    -0.049 A 
HETATM    8  C   UNK N   1      36.527  13.810  15.055  0.00  0.00     0.041 C 
HETATM    9  C   UNK N   1      36.479  14.749  13.846  0.00  0.00     0.032 C 
HETATM   10  C   UNK N   1      36.545  13.946  12.558  0.00  0.00     0.107 C 
ENDROOT
BRANCH  10  11
HETATM   11  N   UNK N   1      36.657  14.844  11.418  0.00  0.00    -0.423 N 
HETATM   12  H   UNK N   1      37.250  14.627  10.616  0.00  0.00     0.150 HD
HETATM   13  H   UNK N   1      36.127  15.714  11.421  0.00  0.00     0.150 HD
ENDBRANCH  10  11
BRANCH   1  14
HETATM   14  O   UNK N   1      34.167  13.805  12.126  0.00  0.00    -0.389 OA
HETATM   15  H   UNK N   1      33.491  14.237  11.582  0.00  0.00     0.210 HD
ENDBRANCH   1  14
TORSDOF 2
ENDMDL
MODEL 5
REMARK VINA RESULT:      -5.0     27.791     28.384
REMARK  2 active torsions:
REMARK  status: ('A' for Active; 'I' for Inactive)
REMARK    1  A    between atoms: C_2  and  O_1 
REMARK    2  A    between atoms: C_11  and  N_12 
ROOT
HETATM    1  C   UNK N   1      25.516  26.515  -5.338  0.00  0.00     0.173 C 
HETATM    2  C   UNK N   1      26.213  27.835  -5.097  0.00  0.00    -0.021 A 
HETATM    3  C   UNK N   1      25.891  28.576  -3.953  0.00  0.00     0.010 A 
HETATM    4  C   UNK N   1      26.525  29.794  -3.698  0.00  0.00     0.001 A 
HETATM    5  C   UNK N   1      27.479  30.286  -4.590  0.00  0.00     0.001 A 
HETATM    6  C   UNK N   1      27.793  29.568  -5.746  0.00  0.00     0.007 A 
HETATM    7  C   UNK N   1      27.164  28.345  -6.013  0.00  0.00    -0.049 A 
HETATM    8  C   UNK N   1      27.505  27.630  -7.293  0.00  0.00     0.041 C 
HETATM    9  C   UNK N   1      26.539  26.490  -7.631  0.00  0.00     0.032 C 
HETATM   10  C   UNK N   1      26.249  25.666  -6.388  0.00  0.00     0.107 C 
ENDROOT
BRANCH  10  11
HETATM   11  N   UNK N   1      25.458  24.496  -6.739  0.00  0.00    -0.423 N 
HETATM   12  H   UNK N   1      25.284  23.743  -6.074  0.00  0.00     0.150 HD
HETATM   13  H   UNK N   1      25.068  24.428  -7.678  0.00  0.00     0.150 HD
ENDBRANCH  10  11
BRANCH   1  14
HETATM   14  O   UNK N   1      24.197  26.767  -5.725  0.00  0.00    -0.389 OA
HETATM   15  H   UNK N   1      23.239  26.881  -5.630  0.00  0.00     0.210 HD
ENDBRANCH   1  14
TORSDOF 2
ENDMDL
MODEL 6
REMARK VINA RESULT:      -5.0      9.551     11.382
REMARK  2 active torsions:
REMARK  status: ('A' for Active; 'I' for Inactive)
REMARK    1  A    between atoms: C_2  and  O_1 
REMARK    2  A    between atoms: C_11  and  N_12 
ROOT
HETATM    1  C   UNK N   1      32.299  17.232   8.614  0.00  0.00     0.173 C 
HETATM    2  C   UNK N   1      31.615  17.301   7.268  0.00  0.00    -0.021 A 
HETATM    3  C   UNK N   1      30.217  17.365   7.218  0.00  0.00     0.010 A 
HETATM    4  C   UNK N   1      29.557  17.440   5.989  0.00  0.00     0.001 A 
HETATM    5  C   UNK N   1      30.288  17.442   4.800  0.00  0.00     0.001 A 
HETATM    6  C   UNK N   1      31.681  17.357   4.836  0.00  0.00     0.007 A 
HETATM    7  C   UNK N   1      32.356  17.281   6.061  0.00  0.00    -0.049 A 
HETATM    8  C   UNK N   1      33.855  17.148   6.046  0.00  0.00     0.041 C 
HETATM    9  C   UNK N   1      34.447  16.755   7.403  0.00  0.00     0.032 C 
HETATM   10  C   UNK N   1      33.796  17.565   8.511  0.00  0.00     0.107 C 
ENDROOT
BRANCH  10  11
HETATM   11  N   UNK N   1      34.464  17.303   9.777  0.00  0.00    -0.423 N 
HETATM   12  H   UNK N   1      35.481  17.282   9.856  0.00  0.00     0.150 HD
HETATM   13  H   UNK N   1      33.899  17.137  10.609  0.00  0.00     0.150 HD
ENDBRANCH  10  11
BRANCH   1  14
HETATM   14  O   UNK N   1      32.102  15.958   9.153  0.00  0.00    -0.389 OA
HETATM   15  H   UNK N   1      31.619  15.162   9.423  0.00  0.00     0.210 HD
ENDBRANCH   1  14
TORSDOF 2
ENDMDL
MODEL 7
REMARK VINA RESULT:      -4.9     10.984     12.587
REMARK  2 active torsions:
REMARK  status: ('A' for Active; 'I' for Inactive)
REMARK    1  A    between atoms: C_2  and  O_1 
REMARK    2  A    between atoms: C_11  and  N_12 
ROOT
HETATM    1  C   UNK N   1      30.187  17.065   4.914  0.00  0.00     0.173 C 
HETATM    2  C   UNK N   1      31.089  17.268   6.111  0.00  0.00    -0.021 A 
HETATM    3  C   UNK N   1      30.513  17.409   7.380  0.00  0.00     0.010 A 
HETATM    4  C   UNK N   1      31.321  17.587   8.505  0.00  0.00     0.001 A 
HETATM    5  C   UNK N   1      32.709  17.637   8.370  0.00  0.00     0.001 A 
HETATM    6  C   UNK N   1      33.294  17.521   7.108  0.00  0.00     0.007 A 
HETATM    7  C   UNK N   1      32.496  17.341   5.971  0.00  0.00    -0.049 A 
HETATM    8  C   UNK N   1      33.171  17.263   4.627  0.00  0.00     0.041 C 
HETATM    9  C   UNK N   1      32.200  17.390   3.449  0.00  0.00     0.032 C 
HETATM   10  C   UNK N   1      30.965  16.542   3.696  0.00  0.00     0.107 C 
ENDROOT
BRANCH  10  11
HETATM   11  N   UNK N   1      30.118  16.540   2.513  0.00  0.00    -0.423 N 
HETATM   12  H   UNK N   1      30.054  15.730   1.896  0.00  0.00     0.150 HD
HETATM   13  H   UNK N   1      29.572  17.373   2.295  0.00  0.00     0.150 HD
ENDBRANCH  10  11
BRANCH   1  14
HETATM   14  O   UNK N   1      29.548  18.273   4.623  0.00  0.00    -0.389 OA
HETATM   15  H   UNK N   1      29.190  19.160   4.779  0.00  0.00     0.210 HD
ENDBRANCH   1  14
TORSDOF 2
ENDMDL
MODEL 8
REMARK VINA RESULT:      -4.8     10.451     11.839
REMARK  2 active torsions:
REMARK  status: ('A' for Active; 'I' for Inactive)
REMARK    1  A    between atoms: C_2  and  O_1 
REMARK    2  A    between atoms: C_11  and  N_12 
ROOT
HETATM    1  C   UNK N   1      30.310  17.754   8.821  0.00  0.00     0.173 C 
HETATM    2  C   UNK N   1      31.484  17.599   7.882  0.00  0.00    -0.021 A 
HETATM    3  C   UNK N   1      32.783  17.698   8.395  0.00  0.00     0.010 A 
HETATM    4  C   UNK N   1      33.888  17.548   7.553  0.00  0.00     0.001 A 
HETATM    5  C   UNK N   1      33.703  17.309   6.190  0.00  0.00     0.001 A 
HETATM    6  C   UNK N   1      32.413  17.231   5.662  0.00  0.00     0.007 A 
HETATM    7  C   UNK N   1      31.297  17.379   6.495  0.00  0.00    -0.049 A 
HETATM    8  C   UNK N   1      29.927  17.329   5.872  0.00  0.00     0.041 C 
HETATM    9  C   UNK N   1      28.814  17.816   6.804  0.00  0.00     0.032 C 
HETATM   10  C   UNK N   1      29.006  17.235   8.195  0.00  0.00     0.107 C 
ENDROOT
BRANCH  10  11
HETATM   11  N   UNK N   1      27.867  17.572   9.036  0.00  0.00    -0.423 N 
HETATM   12  H   UNK N   1      27.755  17.184   9.973  0.00  0.00     0.150 HD
HETATM   13  H   UNK N   1      27.161  18.214   8.678  0.00  0.00     0.150 HD
ENDBRANCH  10  11
BRANCH   1  14
HETATM   14  O   UNK N   1      30.195  19.101   9.178  0.00  0.00    -0.389 OA
HETATM   15  H   UNK N   1      30.038  19.868   9.750  0.00  0.00     0.210 HD
ENDBRANCH   1  14
TORSDOF 2
ENDMDL
MODEL 9
REMARK VINA RESULT:      -4.8     10.256     11.070
REMARK  2 active torsions:
REMARK  status: ('A' for Active; 'I' for Inactive)
REMARK    1  A    between atoms: C_2  and  O_1 
REMARK    2  A    between atoms: C_11  and  N_12 
ROOT
HETATM    1  C   UNK N   1      32.379  17.884   8.324  0.00  0.00     0.173 C 
HETATM    2  C   UNK N   1      30.868  17.833   8.302  0.00  0.00    -0.021 A 
HETATM    3  C   UNK N   1      30.152  18.447   9.338  0.00  0.00     0.010 A 
HETATM    4  C   UNK N   1      28.755  18.426   9.339  0.00  0.00     0.001 A 
HETATM    5  C   UNK N   1      28.063  17.783   8.311  0.00  0.00     0.001 A 
HETATM    6  C   UNK N   1      28.766  17.148   7.285  0.00  0.00     0.007 A 
HETATM    7  C   UNK N   1      30.166  17.162   7.271  0.00  0.00    -0.049 A 
HETATM    8  C   UNK N   1      30.879  16.427   6.167  0.00  0.00     0.041 C 
HETATM    9  C   UNK N   1      32.376  16.239   6.426  0.00  0.00     0.032 C 
HETATM   10  C   UNK N   1      32.981  17.527   6.956  0.00  0.00     0.107 C 
ENDROOT
BRANCH  10  11
HETATM   11  N   UNK N   1      34.427  17.395   7.055  0.00  0.00    -0.423 N 
HETATM   12  H   UNK N   1      34.946  17.731   7.866  0.00  0.00     0.150 HD
HETATM   13  H   UNK N   1      34.936  16.952   6.290  0.00  0.00     0.150 HD
ENDBRANCH  10  11
BRANCH   1  14
HETATM   14  O   UNK N   1      32.843  17.019   9.319  0.00  0.00    -0.389 OA
HETATM   15  H   UNK N   1      33.482  16.581   9.902  0.00  0.00     0.210 HD
ENDBRANCH   1  14
TORSDOF 2
ENDMDL
