MODEL 1
REMARK VINA RESULT:      -6.2      0.000      0.000
REMARK  0 active torsions:
REMARK  status: ('A' for Active; 'I' for Inactive)
REMARK       I    between atoms: N_7  and  C_8 
ROOT
HETATM    1  C   UNK N   1      33.078  16.870   4.360  0.00  0.00     0.086 A 
HETATM    2  C   UNK N   1      33.756  17.176   5.706  0.00  0.00     0.012 A 
HETATM    3  C   UNK N   1      32.892  17.453   6.939  0.00  0.00     0.042 A 
HETATM    4  C   UNK N   1      31.422  17.399   6.710  0.00  0.00    -0.015 A 
HETATM    5  C   UNK N   1      30.771  17.128   5.519  0.00  0.00     0.095 A 
HETATM    6  C   UNK N   1      30.461  17.610   7.653  0.00  0.00    -0.000 A 
HETATM    7  N   UNK N   1      29.401  17.170   5.717  0.00  0.00    -0.278 N 
HETATM    8  C   UNK N   1      28.333  16.969   4.841  0.00  0.00     0.225 C 
HETATM    9  O   UNK N   1      27.185  17.060   5.251  0.00  0.00    -0.273 OA
HETATM   10  C   UNK N   1      28.501  16.644   3.401  0.00  0.00     0.118 C 
HETATM   11  C   UNK N   1      29.246  17.469   7.040  0.00  0.00     0.053 A 
HETATM   12  C   UNK N   1      30.589  17.917   9.005  0.00  0.00     0.014 A 
HETATM   13  C   UNK N   1      28.060  17.631   7.767  0.00  0.00     0.031 A 
HETATM   14  C   UNK N   1      29.414  18.084   9.753  0.00  0.00     0.001 A 
HETATM   15  C   UNK N   1      28.153  17.942   9.137  0.00  0.00     0.002 A 
HETATM   16  C   UNK N   1      31.574  16.853   4.300  0.00  0.00     0.177 A 
HETATM   17  O   UNK N   1      31.059  16.609   3.227  0.00  0.00    -0.291 OA
ENDROOT
TORSDOF 0
ENDMDL
MODEL 2
REMARK VINA RESULT:      -6.2     11.991     13.166
REMARK  0 active torsions:
REMARK  status: ('A' for Active; 'I' for Inactive)
REMARK       I    between atoms: N_7  and  C_8 
ROOT
HETATM    1  C   UNK N   1      35.700   7.610  15.135  0.00  0.00     0.086 A 
HETATM    2  C   UNK N   1      35.848   7.341  16.642  0.00  0.00     0.012 A 
HETATM    3  C   UNK N   1      35.758   8.510  17.628  0.00  0.00     0.042 A 
HETATM    4  C   UNK N   1      35.527   9.845  17.011  0.00  0.00    -0.015 A 
HETATM    5  C   UNK N   1      35.388  10.131  15.664  0.00  0.00     0.095 A 
HETATM    6  C   UNK N   1      35.412  11.024  17.685  0.00  0.00    -0.000 A 
HETATM    7  N   UNK N   1      35.186  11.490  15.495  0.00  0.00    -0.278 N 
HETATM    8  C   UNK N   1      34.994  12.262  14.347  0.00  0.00     0.225 C 
HETATM    9  O   UNK N   1      34.833  13.469  14.445  0.00  0.00    -0.273 OA
HETATM   10  C   UNK N   1      34.971  11.698  12.972  0.00  0.00     0.118 C 
HETATM   11  C   UNK N   1      35.207  12.008  16.757  0.00  0.00     0.053 A 
HETATM   12  C   UNK N   1      35.477  11.281  19.051  0.00  0.00     0.014 A 
HETATM   13  C   UNK N   1      35.050  13.341  17.158  0.00  0.00     0.031 A 
HETATM   14  C   UNK N   1      35.323  12.609  19.476  0.00  0.00     0.001 A 
HETATM   15  C   UNK N   1      35.111  13.636  18.533  0.00  0.00     0.002 A 
HETATM   16  C   UNK N   1      35.469   9.024  14.676  0.00  0.00     0.177 A 
HETATM   17  O   UNK N   1      35.355   9.214  13.481  0.00  0.00    -0.291 OA
ENDROOT
TORSDOF 0
ENDMDL
MODEL 3
REMARK VINA RESULT:      -6.2      5.995      8.243
REMARK  0 active torsions:
REMARK  status: ('A' for Active; 'I' for Inactive)
REMARK       I    between atoms: N_7  and  C_8 
ROOT
HETATM    1  C   UNK N   1      21.643  15.961   5.552  0.00  0.00     0.086 A 
HETATM    2  C   UNK N   1      23.054  15.482   5.936  0.00  0.00     0.012 A 
HETATM    3  C   UNK N   1      24.270  16.317   5.527  0.00  0.00     0.042 A 
HETATM    4  C   UNK N   1      23.961  17.560   4.768  0.00  0.00    -0.015 A 
HETATM    5  C   UNK N   1      22.711  18.028   4.402  0.00  0.00     0.095 A 
HETATM    6  C   UNK N   1      24.876  18.456   4.302  0.00  0.00    -0.000 A 
HETATM    7  N   UNK N   1      22.844  19.217   3.706  0.00  0.00    -0.278 N 
HETATM    8  C   UNK N   1      21.894  20.067   3.135  0.00  0.00     0.225 C 
HETATM    9  O   UNK N   1      22.254  21.082   2.559  0.00  0.00    -0.273 OA
HETATM   10  C   UNK N   1      20.431  19.812   3.182  0.00  0.00     0.118 C 
HETATM   11  C   UNK N   1      24.188  19.451   3.663  0.00  0.00     0.053 A 
HETATM   12  C   UNK N   1      26.264  18.449   4.404  0.00  0.00     0.014 A 
HETATM   13  C   UNK N   1      24.870  20.524   3.075  0.00  0.00     0.031 A 
HETATM   14  C   UNK N   1      26.969  19.514   3.823  0.00  0.00     0.001 A 
HETATM   15  C   UNK N   1      26.276  20.548   3.160  0.00  0.00     0.002 A 
HETATM   16  C   UNK N   1      21.505  17.246   4.780  0.00  0.00     0.177 A 
HETATM   17  O   UNK N   1      20.383  17.606   4.487  0.00  0.00    -0.291 OA
ENDROOT
TORSDOF 0
ENDMDL
MODEL 4
REMARK VINA RESULT:      -6.1      1.717      3.517
REMARK  0 active torsions:
REMARK  status: ('A' for Active; 'I' for Inactive)
REMARK       I    between atoms: N_7  and  C_8 
ROOT
HETATM    1  C   UNK N   1      30.856  16.424   3.169  0.00  0.00     0.086 A 
HETATM    2  C   UNK N   1      29.327  16.515   3.308  0.00  0.00     0.012 A 
HETATM    3  C   UNK N   1      28.715  16.899   4.659  0.00  0.00     0.042 A 
HETATM    4  C   UNK N   1      29.695  17.157   5.749  0.00  0.00    -0.015 A 
HETATM    5  C   UNK N   1      31.075  17.087   5.668  0.00  0.00     0.095 A 
HETATM    6  C   UNK N   1      29.387  17.512   7.029  0.00  0.00    -0.000 A 
HETATM    7  N   UNK N   1      31.631  17.398   6.897  0.00  0.00    -0.278 N 
HETATM    8  C   UNK N   1      32.959  17.466   7.322  0.00  0.00     0.225 C 
HETATM    9  O   UNK N   1      33.214  17.767   8.478  0.00  0.00    -0.273 OA
HETATM   10  C   UNK N   1      34.120  17.188   6.437  0.00  0.00     0.118 C 
HETATM   11  C   UNK N   1      30.565  17.654   7.710  0.00  0.00     0.053 A 
HETATM   12  C   UNK N   1      28.146  17.715   7.624  0.00  0.00     0.014 A 
HETATM   13  C   UNK N   1      30.565  18.017   9.063  0.00  0.00     0.031 A 
HETATM   14  C   UNK N   1      28.121  18.079   8.979  0.00  0.00     0.001 A 
HETATM   15  C   UNK N   1      29.326  18.230   9.697  0.00  0.00     0.002 A 
HETATM   16  C   UNK N   1      31.707  16.718   4.374  0.00  0.00     0.177 A 
HETATM   17  O   UNK N   1      32.912  16.641   4.242  0.00  0.00    -0.291 OA
ENDROOT
TORSDOF 0
ENDMDL
MODEL 5
REMARK VINA RESULT:      -6.1      5.763      7.459
REMARK  0 active torsions:
REMARK  status: ('A' for Active; 'I' for Inactive)
REMARK       I    between atoms: N_7  and  C_8 
ROOT
HETATM    1  C   UNK N   1      26.121  20.543   3.051  0.00  0.00     0.086 A 
HETATM    2  C   UNK N   1      26.970  19.519   3.823  0.00  0.00     0.012 A 
HETATM    3  C   UNK N   1      26.279  18.352   4.535  0.00  0.00     0.042 A 
HETATM    4  C   UNK N   1      24.796  18.319   4.407  0.00  0.00    -0.015 A 
HETATM    5  C   UNK N   1      23.995  19.217   3.724  0.00  0.00     0.095 A 
HETATM    6  C   UNK N   1      23.971  17.380   4.952  0.00  0.00    -0.000 A 
HETATM    7  N   UNK N   1      22.668  18.841   3.842  0.00  0.00    -0.278 N 
HETATM    8  C   UNK N   1      21.496  19.412   3.341  0.00  0.00     0.225 C 
HETATM    9  O   UNK N   1      20.416  18.892   3.580  0.00  0.00    -0.273 OA
HETATM   10  C   UNK N   1      21.472  20.645   2.512  0.00  0.00     0.118 C 
HETATM   11  C   UNK N   1      22.689  17.708   4.603  0.00  0.00     0.053 A 
HETATM   12  C   UNK N   1      24.277  16.267   5.729  0.00  0.00     0.014 A 
HETATM   13  C   UNK N   1      21.613  16.917   5.024  0.00  0.00     0.031 A 
HETATM   14  C   UNK N   1      23.214  15.459   6.163  0.00  0.00     0.001 A 
HETATM   15  C   UNK N   1      21.887  15.783   5.812  0.00  0.00     0.002 A 
HETATM   16  C   UNK N   1      24.628  20.363   3.020  0.00  0.00     0.177 A 
HETATM   17  O   UNK N   1      23.976  21.183   2.405  0.00  0.00    -0.291 OA
ENDROOT
TORSDOF 0
ENDMDL
MODEL 6
REMARK VINA RESULT:      -6.0      2.212      3.934
REMARK  0 active torsions:
REMARK  status: ('A' for Active; 'I' for Inactive)
REMARK       I    between atoms: N_7  and  C_8 
ROOT
HETATM    1  C   UNK N   1      30.495  16.989   8.878  0.00  0.00     0.086 A 
HETATM    2  C   UNK N   1      29.704  18.126   9.547  0.00  0.00     0.012 A 
HETATM    3  C   UNK N   1      28.750  18.976   8.704  0.00  0.00     0.042 A 
HETATM    4  C   UNK N   1      28.675  18.609   7.263  0.00  0.00    -0.015 A 
HETATM    5  C   UNK N   1      29.368  17.597   6.621  0.00  0.00     0.095 A 
HETATM    6  C   UNK N   1      27.899  19.221   6.325  0.00  0.00    -0.000 A 
HETATM    7  N   UNK N   1      29.024  17.576   5.280  0.00  0.00    -0.278 N 
HETATM    8  C   UNK N   1      29.443  16.756   4.231  0.00  0.00     0.225 C 
HETATM    9  O   UNK N   1      28.993  16.928   3.107  0.00  0.00    -0.273 OA
HETATM   10  C   UNK N   1      30.427  15.654   4.391  0.00  0.00     0.118 C 
HETATM   11  C   UNK N   1      28.120  18.587   5.133  0.00  0.00     0.053 A 
HETATM   12  C   UNK N   1      27.019  20.292   6.455  0.00  0.00     0.014 A 
HETATM   13  C   UNK N   1      27.453  19.002   3.973  0.00  0.00     0.031 A 
HETATM   14  C   UNK N   1      26.340  20.724   5.306  0.00  0.00     0.001 A 
HETATM   15  C   UNK N   1      26.555  20.082   4.069  0.00  0.00     0.002 A 
HETATM   16  C   UNK N   1      30.303  16.749   7.405  0.00  0.00     0.177 A 
HETATM   17  O   UNK N   1      30.938  15.846   6.896  0.00  0.00    -0.291 OA
ENDROOT
TORSDOF 0
ENDMDL
MODEL 7
REMARK VINA RESULT:      -6.0      7.272      9.125
REMARK  0 active torsions:
REMARK  status: ('A' for Active; 'I' for Inactive)
REMARK       I    between atoms: N_7  and  C_8 
ROOT
HETATM    1  C   UNK N   1      23.893  15.730   5.676  0.00  0.00     0.086 A 
HETATM    2  C   UNK N   1      24.963  14.701   6.081  0.00  0.00     0.012 A 
HETATM    3  C   UNK N   1      24.696  13.763   7.261  0.00  0.00     0.042 A 
HETATM    4  C   UNK N   1      23.378  13.941   7.930  0.00  0.00    -0.015 A 
HETATM    5  C   UNK N   1      22.389  14.852   7.600  0.00  0.00     0.095 A 
HETATM    6  C   UNK N   1      22.923  13.224   8.997  0.00  0.00    -0.000 A 
HETATM    7  N   UNK N   1      21.314  14.704   8.460  0.00  0.00    -0.278 N 
HETATM    8  C   UNK N   1      20.093  15.375   8.538  0.00  0.00     0.225 C 
HETATM    9  O   UNK N   1      19.282  15.066   9.399  0.00  0.00    -0.273 OA
HETATM   10  C   UNK N   1      19.698  16.473   7.618  0.00  0.00     0.118 C 
HETATM   11  C   UNK N   1      21.676  13.696   9.305  0.00  0.00     0.053 A 
HETATM   12  C   UNK N   1      23.533  12.193   9.704  0.00  0.00     0.014 A 
HETATM   13  C   UNK N   1      20.952  13.144  10.370  0.00  0.00     0.031 A 
HETATM   14  C   UNK N   1      22.826  11.626  10.775  0.00  0.00     0.001 A 
HETATM   15  C   UNK N   1      21.539  12.099  11.107  0.00  0.00     0.002 A 
HETATM   16  C   UNK N   1      22.610  15.780   6.461  0.00  0.00     0.177 A 
HETATM   17  O   UNK N   1      21.779  16.600   6.124  0.00  0.00    -0.291 OA
ENDROOT
TORSDOF 0
ENDMDL
MODEL 8
REMARK VINA RESULT:      -6.0     10.536     12.721
REMARK  0 active torsions:
REMARK  status: ('A' for Active; 'I' for Inactive)
REMARK       I    between atoms: N_7  and  C_8 
ROOT
HETATM    1  C   UNK N   1      31.173  19.867  -7.007  0.00  0.00     0.086 A 
HETATM    2  C   UNK N   1      29.997  20.310  -7.893  0.00  0.00     0.012 A 
HETATM    3  C   UNK N   1      29.037  21.390  -7.386  0.00  0.00     0.042 A 
HETATM    4  C   UNK N   1      29.343  21.928  -6.033  0.00  0.00    -0.015 A 
HETATM    5  C   UNK N   1      30.388  21.558  -5.203  0.00  0.00     0.095 A 
HETATM    6  C   UNK N   1      28.633  22.890  -5.378  0.00  0.00    -0.000 A 
HETATM    7  N   UNK N   1      30.331  22.289  -4.028  0.00  0.00    -0.278 N 
HETATM    8  C   UNK N   1      31.145  22.285  -2.894  0.00  0.00     0.225 C 
HETATM    9  O   UNK N   1      30.894  23.033  -1.961  0.00  0.00    -0.273 OA
HETATM   10  C   UNK N   1      32.333  21.405  -2.740  0.00  0.00     0.118 C 
HETATM   11  C   UNK N   1      29.240  23.097  -4.170  0.00  0.00     0.053 A 
HETATM   12  C   UNK N   1      27.496  23.586  -5.777  0.00  0.00     0.014 A 
HETATM   13  C   UNK N   1      28.727  24.040  -3.270  0.00  0.00     0.031 A 
HETATM   14  C   UNK N   1      26.964  24.535  -4.892  0.00  0.00     0.001 A 
HETATM   15  C   UNK N   1      27.577  24.763  -3.642  0.00  0.00     0.002 A 
HETATM   16  C   UNK N   1      31.341  20.514  -5.659  0.00  0.00     0.177 A 
HETATM   17  O   UNK N   1      32.277  20.149  -4.975  0.00  0.00    -0.291 OA
ENDROOT
TORSDOF 0
ENDMDL
MODEL 9
REMARK VINA RESULT:      -6.0      7.114      9.458
REMARK  0 active torsions:
REMARK  status: ('A' for Active; 'I' for Inactive)
REMARK       I    between atoms: N_7  and  C_8 
ROOT
HETATM    1  C   UNK N   1      20.926  17.057   6.691  0.00  0.00     0.086 A 
HETATM    2  C   UNK N   1      19.866  16.841   7.785  0.00  0.00     0.012 A 
HETATM    3  C   UNK N   1      20.032  15.687   8.777  0.00  0.00     0.042 A 
HETATM    4  C   UNK N   1      21.249  14.851   8.581  0.00  0.00    -0.015 A 
HETATM    5  C   UNK N   1      22.226  15.010   7.613  0.00  0.00     0.095 A 
HETATM    6  C   UNK N   1      21.606  13.775   9.338  0.00  0.00    -0.000 A 
HETATM    7  N   UNK N   1      23.194  14.032   7.764  0.00  0.00    -0.278 N 
HETATM    8  C   UNK N   1      24.364  13.769   7.048  0.00  0.00     0.225 C 
HETATM    9  O   UNK N   1      25.078  12.831   7.372  0.00  0.00    -0.273 OA
HETATM   10  C   UNK N   1      24.813  14.576   5.884  0.00  0.00     0.118 C 
HETATM   11  C   UNK N   1      22.782  13.291   8.833  0.00  0.00     0.053 A 
HETATM   12  C   UNK N   1      20.965  13.202  10.433  0.00  0.00     0.014 A 
HETATM   13  C   UNK N   1      23.398  12.174   9.414  0.00  0.00     0.031 A 
HETATM   14  C   UNK N   1      21.564  12.083  11.030  0.00  0.00     0.001 A 
HETATM   15  C   UNK N   1      22.776  11.570  10.523  0.00  0.00     0.002 A 
HETATM   16  C   UNK N   1      22.101  16.119   6.632  0.00  0.00     0.177 A 
HETATM   17  O   UNK N   1      22.926  16.307   5.760  0.00  0.00    -0.291 OA
ENDROOT
TORSDOF 0
ENDMDL
