MODEL 1
REMARK VINA RESULT:      -8.7      0.000      0.000
REMARK  4 active torsions:
REMARK  status: ('A' for Active; 'I' for Inactive)
REMARK    1  A    between atoms: C_1  and  C_2 
REMARK       I    between atoms: C_1  and  N_18 
REMARK    2  A    between atoms: C_11  and  N_17 
REMARK    3  A    between atoms: N_18  and  C_19 
REMARK    4  A    between atoms: C_19  and  C_21 
ROOT
HETATM    1  C   UNK N   1      27.522  24.443  -3.288  0.00  0.00     0.252 C 
HETATM    2  O   UNK N   1      27.078  23.683  -2.438  0.00  0.00    -0.268 OA
HETATM    3  N   UNK N   1      28.835  24.426  -3.610  0.00  0.00    -0.349 N 
HETATM    4  H   UNK N   1      29.125  25.078  -4.288  0.00  0.00     0.163 HD
ENDROOT
BRANCH   3   5
HETATM    5  C   UNK N   1      29.864  23.561  -3.076  0.00  0.00     0.114 C 
HETATM    6  C   UNK N   1      29.362  22.899  -1.800  0.00  0.00     0.037 C 
BRANCH   5   7
HETATM    7  C   UNK N   1      30.192  22.507  -4.127  0.00  0.00    -0.025 A 
HETATM    8  C   UNK N   1      31.335  21.677  -4.039  0.00  0.00    -0.018 A 
HETATM    9  C   UNK N   1      31.585  20.718  -5.056  0.00  0.00    -0.025 A 
HETATM   10  C   UNK N   1      32.235  21.783  -2.968  0.00  0.00     0.013 A 
HETATM   11  C   UNK N   1      30.712  20.592  -6.137  0.00  0.00     0.012 A 
HETATM   12  C   UNK N   1      32.708  19.893  -4.982  0.00  0.00     0.012 A 
HETATM   13  C   UNK N   1      29.590  21.410  -6.228  0.00  0.00     0.002 A 
HETATM   14  C   UNK N   1      29.335  22.354  -5.238  0.00  0.00     0.010 A 
HETATM   15  C   UNK N   1      33.592  20.010  -3.907  0.00  0.00     0.001 A 
HETATM   16  C   UNK N   1      33.357  20.952  -2.904  0.00  0.00     0.001 A 
ENDBRANCH   5   7
ENDBRANCH   3   5
BRANCH   1  17
HETATM   17  C   UNK N   1      26.650  25.411  -4.006  0.00  0.00     0.040 A 
HETATM   18  C   UNK N   1      25.914  25.109  -5.177  0.00  0.00    -0.046 A 
HETATM   19  C   UNK N   1      25.940  23.760  -5.810  0.00  0.00     0.049 C 
HETATM   20  C   UNK N   1      25.129  26.104  -5.776  0.00  0.00     0.010 A 
HETATM   21  C   UNK N   1      25.067  27.390  -5.229  0.00  0.00     0.029 A 
HETATM   22  C   UNK N   1      25.788  27.690  -4.076  0.00  0.00     0.026 A 
HETATM   23  C   UNK N   1      26.569  26.710  -3.474  0.00  0.00     0.046 A 
BRANCH  22  24
HETATM   24  N   UNK N   1      25.732  28.982  -3.517  0.00  0.00    -0.399 N 
HETATM   25  H   UNK N   1      26.190  29.731  -3.964  0.00  0.00     0.156 HD
HETATM   26  H   UNK N   1      25.234  29.135  -2.682  0.00  0.00     0.156 HD
ENDBRANCH  22  24
ENDBRANCH   1  17
TORSDOF 4
ENDMDL
MODEL 2
REMARK VINA RESULT:      -8.1     13.786     17.365
REMARK  4 active torsions:
REMARK  status: ('A' for Active; 'I' for Inactive)
REMARK    1  A    between atoms: C_1  and  C_2 
REMARK       I    between atoms: C_1  and  N_18 
REMARK    2  A    between atoms: C_11  and  N_17 
REMARK    3  A    between atoms: N_18  and  C_19 
REMARK    4  A    between atoms: C_19  and  C_21 
ROOT
HETATM    1  C   UNK N   1      34.947  16.415  10.068  0.00  0.00     0.252 C 
HETATM    2  O   UNK N   1      35.591  17.399  10.407  0.00  0.00    -0.268 OA
HETATM    3  N   UNK N   1      33.871  16.541   9.258  0.00  0.00    -0.349 N 
HETATM    4  H   UNK N   1      33.390  15.710   9.043  0.00  0.00     0.163 HD
ENDROOT
BRANCH   3   5
HETATM    5  C   UNK N   1      33.345  17.753   8.670  0.00  0.00     0.114 C 
HETATM    6  C   UNK N   1      34.441  18.454   7.879  0.00  0.00     0.037 C 
BRANCH   5   7
HETATM    7  C   UNK N   1      32.189  17.373   7.753  0.00  0.00    -0.025 A 
HETATM    8  C   UNK N   1      30.838  17.637   8.083  0.00  0.00    -0.018 A 
HETATM    9  C   UNK N   1      29.809  17.252   7.185  0.00  0.00    -0.025 A 
HETATM   10  C   UNK N   1      30.490  18.269   9.286  0.00  0.00     0.013 A 
HETATM   11  C   UNK N   1      30.121  16.616   5.983  0.00  0.00     0.012 A 
HETATM   12  C   UNK N   1      28.472  17.506   7.498  0.00  0.00     0.012 A 
HETATM   13  C   UNK N   1      31.448  16.351   5.657  0.00  0.00     0.002 A 
HETATM   14  C   UNK N   1      32.466  16.723   6.531  0.00  0.00     0.010 A 
HETATM   15  C   UNK N   1      28.143  18.139   8.698  0.00  0.00     0.001 A 
HETATM   16  C   UNK N   1      29.149  18.519   9.590  0.00  0.00     0.001 A 
ENDBRANCH   5   7
ENDBRANCH   3   5
BRANCH   1  17
HETATM   17  C   UNK N   1      35.312  15.046  10.520  0.00  0.00     0.040 A 
HETATM   18  C   UNK N   1      35.839  14.039   9.677  0.00  0.00    -0.046 A 
HETATM   19  C   UNK N   1      36.090  14.265   8.225  0.00  0.00     0.049 C 
HETATM   20  C   UNK N   1      36.139  12.778  10.210  0.00  0.00     0.010 A 
HETATM   21  C   UNK N   1      35.924  12.506  11.564  0.00  0.00     0.029 A 
HETATM   22  C   UNK N   1      35.407  13.496  12.398  0.00  0.00     0.026 A 
HETATM   23  C   UNK N   1      35.106  14.749  11.879  0.00  0.00     0.046 A 
BRANCH  22  24
HETATM   24  N   UNK N   1      35.185  13.231  13.764  0.00  0.00    -0.399 N 
HETATM   25  H   UNK N   1      35.838  12.698  14.274  0.00  0.00     0.156 HD
HETATM   26  H   UNK N   1      34.379  13.580  14.208  0.00  0.00     0.156 HD
ENDBRANCH  22  24
ENDBRANCH   1  17
TORSDOF 4
ENDMDL
MODEL 3
REMARK VINA RESULT:      -8.1      9.620     11.055
REMARK  4 active torsions:
REMARK  status: ('A' for Active; 'I' for Inactive)
REMARK    1  A    between atoms: C_1  and  C_2 
REMARK       I    between atoms: C_1  and  N_18 
REMARK    2  A    between atoms: C_11  and  N_17 
REMARK    3  A    between atoms: N_18  and  C_19 
REMARK    4  A    between atoms: C_19  and  C_21 
ROOT
HETATM    1  C   UNK N   1      25.372  20.070   3.733  0.00  0.00     0.252 C 
HETATM    2  O   UNK N   1      26.051  20.413   2.773  0.00  0.00    -0.268 OA
HETATM    3  N   UNK N   1      25.892  20.073   4.981  0.00  0.00    -0.349 N 
HETATM    4  H   UNK N   1      25.296  19.767   5.701  0.00  0.00     0.163 HD
ENDROOT
BRANCH   3   5
HETATM    5  C   UNK N   1      27.222  20.474   5.383  0.00  0.00     0.114 C 
HETATM    6  C   UNK N   1      27.140  21.745   6.219  0.00  0.00     0.037 C 
BRANCH   5   7
HETATM    7  C   UNK N   1      27.835  19.342   6.198  0.00  0.00    -0.025 A 
HETATM    8  C   UNK N   1      28.352  18.168   5.600  0.00  0.00    -0.018 A 
HETATM    9  C   UNK N   1      28.904  17.149   6.419  0.00  0.00    -0.025 A 
HETATM   10  C   UNK N   1      28.327  17.985   4.210  0.00  0.00     0.013 A 
HETATM   11  C   UNK N   1      28.938  17.297   7.806  0.00  0.00     0.012 A 
HETATM   12  C   UNK N   1      29.417  15.985   5.842  0.00  0.00     0.012 A 
HETATM   13  C   UNK N   1      28.426  18.448   8.397  0.00  0.00     0.002 A 
HETATM   14  C   UNK N   1      27.881  19.455   7.605  0.00  0.00     0.010 A 
HETATM   15  C   UNK N   1      29.388  15.821   4.456  0.00  0.00     0.001 A 
HETATM   16  C   UNK N   1      28.844  16.817   3.641  0.00  0.00     0.001 A 
ENDBRANCH   5   7
ENDBRANCH   3   5
BRANCH   1  17
HETATM   17  C   UNK N   1      23.957  19.641   3.578  0.00  0.00     0.040 A 
HETATM   18  C   UNK N   1      23.453  18.383   3.985  0.00  0.00    -0.046 A 
HETATM   19  C   UNK N   1      24.313  17.349   4.629  0.00  0.00     0.049 C 
HETATM   20  C   UNK N   1      22.099  18.081   3.781  0.00  0.00     0.010 A 
HETATM   21  C   UNK N   1      21.243  19.010   3.180  0.00  0.00     0.029 A 
HETATM   22  C   UNK N   1      21.736  20.250   2.779  0.00  0.00     0.026 A 
HETATM   23  C   UNK N   1      23.076  20.559   2.977  0.00  0.00     0.046 A 
BRANCH  22  24
HETATM   24  N   UNK N   1      20.882  21.192   2.172  0.00  0.00    -0.399 N 
HETATM   25  H   UNK N   1      20.360  20.942   1.376  0.00  0.00     0.156 HD
HETATM   26  H   UNK N   1      20.807  22.100   2.546  0.00  0.00     0.156 HD
ENDBRANCH  22  24
ENDBRANCH   1  17
TORSDOF 4
ENDMDL
MODEL 4
REMARK VINA RESULT:      -8.0     10.653     13.854
REMARK  4 active torsions:
REMARK  status: ('A' for Active; 'I' for Inactive)
REMARK    1  A    between atoms: C_1  and  C_2 
REMARK       I    between atoms: C_1  and  N_18 
REMARK    2  A    between atoms: C_11  and  N_17 
REMARK    3  A    between atoms: N_18  and  C_19 
REMARK    4  A    between atoms: C_19  and  C_21 
ROOT
HETATM    1  C   UNK N   1      30.424  16.841   6.979  0.00  0.00     0.252 C 
HETATM    2  O   UNK N   1      29.963  15.961   6.264  0.00  0.00    -0.268 OA
HETATM    3  N   UNK N   1      29.607  17.664   7.673  0.00  0.00    -0.349 N 
HETATM    4  H   UNK N   1      30.046  18.360   8.212  0.00  0.00     0.163 HD
ENDROOT
BRANCH   3   5
HETATM    5  C   UNK N   1      28.161  17.642   7.719  0.00  0.00     0.114 C 
HETATM    6  C   UNK N   1      27.689  18.043   9.110  0.00  0.00     0.037 C 
BRANCH   5   7
HETATM    7  C   UNK N   1      27.638  18.624   6.678  0.00  0.00    -0.025 A 
HETATM    8  C   UNK N   1      26.929  18.205   5.526  0.00  0.00    -0.018 A 
HETATM    9  C   UNK N   1      26.473  19.172   4.593  0.00  0.00    -0.025 A 
HETATM   10  C   UNK N   1      26.669  16.848   5.282  0.00  0.00     0.013 A 
HETATM   11  C   UNK N   1      26.720  20.529   4.804  0.00  0.00     0.012 A 
HETATM   12  C   UNK N   1      25.773  18.772   3.453  0.00  0.00     0.012 A 
HETATM   13  C   UNK N   1      27.421  20.944   5.932  0.00  0.00     0.002 A 
HETATM   14  C   UNK N   1      27.874  20.004   6.855  0.00  0.00     0.010 A 
HETATM   15  C   UNK N   1      25.520  17.418   3.226  0.00  0.00     0.001 A 
HETATM   16  C   UNK N   1      25.967  16.458   4.137  0.00  0.00     0.001 A 
ENDBRANCH   5   7
ENDBRANCH   3   5
BRANCH   1  17
HETATM   17  C   UNK N   1      31.891  17.045   7.123  0.00  0.00     0.040 A 
HETATM   18  C   UNK N   1      32.769  17.323   6.048  0.00  0.00    -0.046 A 
HETATM   19  C   UNK N   1      32.293  17.447   4.640  0.00  0.00     0.049 C 
HETATM   20  C   UNK N   1      34.138  17.488   6.299  0.00  0.00     0.010 A 
HETATM   21  C   UNK N   1      34.644  17.381   7.598  0.00  0.00     0.029 A 
HETATM   22  C   UNK N   1      33.782  17.110   8.658  0.00  0.00     0.026 A 
HETATM   23  C   UNK N   1      32.423  16.944   8.420  0.00  0.00     0.046 A 
BRANCH  22  24
HETATM   24  N   UNK N   1      34.282  16.999   9.971  0.00  0.00    -0.399 N 
HETATM   25  H   UNK N   1      33.803  17.428  10.717  0.00  0.00     0.156 HD
HETATM   26  H   UNK N   1      35.109  16.493  10.141  0.00  0.00     0.156 HD
ENDBRANCH  22  24
ENDBRANCH   1  17
TORSDOF 4
ENDMDL
MODEL 5
REMARK VINA RESULT:      -7.9      1.700      2.120
REMARK  4 active torsions:
REMARK  status: ('A' for Active; 'I' for Inactive)
REMARK    1  A    between atoms: C_1  and  C_2 
REMARK       I    between atoms: C_1  and  N_18 
REMARK    2  A    between atoms: C_11  and  N_17 
REMARK    3  A    between atoms: N_18  and  C_19 
REMARK    4  A    between atoms: C_19  and  C_21 
ROOT
HETATM    1  C   UNK N   1      28.598  25.515  -4.309  0.00  0.00     0.252 C 
HETATM    2  O   UNK N   1      29.473  26.265  -3.897  0.00  0.00    -0.268 OA
HETATM    3  N   UNK N   1      28.695  24.179  -4.129  0.00  0.00    -0.349 N 
HETATM    4  H   UNK N   1      27.964  23.636  -4.504  0.00  0.00     0.163 HD
ENDROOT
BRANCH   3   5
HETATM    5  C   UNK N   1      29.744  23.452  -3.449  0.00  0.00     0.114 C 
HETATM    6  C   UNK N   1      29.210  22.896  -2.135  0.00  0.00     0.037 C 
BRANCH   5   7
HETATM    7  C   UNK N   1      30.202  22.318  -4.358  0.00  0.00    -0.025 A 
HETATM    8  C   UNK N   1      31.378  21.571  -4.106  0.00  0.00    -0.018 A 
HETATM    9  C   UNK N   1      31.751  20.530  -4.996  0.00  0.00    -0.025 A 
HETATM   10  C   UNK N   1      32.191  21.839  -2.995  0.00  0.00     0.013 A 
HETATM   11  C   UNK N   1      30.968  20.242  -6.114  0.00  0.00     0.012 A 
HETATM   12  C   UNK N   1      32.909  19.785  -4.760  0.00  0.00     0.012 A 
HETATM   13  C   UNK N   1      29.814  20.977  -6.366  0.00  0.00     0.002 A 
HETATM   14  C   UNK N   1      29.438  22.001  -5.501  0.00  0.00     0.010 A 
HETATM   15  C   UNK N   1      33.705  20.064  -3.647  0.00  0.00     0.001 A 
HETATM   16  C   UNK N   1      33.348  21.088  -2.767  0.00  0.00     0.001 A 
ENDBRANCH   5   7
ENDBRANCH   3   5
BRANCH   1  17
HETATM   17  C   UNK N   1      27.396  26.030  -5.018  0.00  0.00     0.040 A 
HETATM   18  C   UNK N   1      26.326  26.710  -4.388  0.00  0.00    -0.046 A 
HETATM   19  C   UNK N   1      26.308  26.986  -2.923  0.00  0.00     0.049 C 
HETATM   20  C   UNK N   1      25.236  27.144  -5.155  0.00  0.00     0.010 A 
HETATM   21  C   UNK N   1      25.195  26.912  -6.533  0.00  0.00     0.029 A 
HETATM   22  C   UNK N   1      26.248  26.245  -7.157  0.00  0.00     0.026 A 
HETATM   23  C   UNK N   1      27.333  25.810  -6.405  0.00  0.00     0.046 A 
BRANCH  22  24
HETATM   24  N   UNK N   1      26.216  26.006  -8.545  0.00  0.00    -0.399 N 
HETATM   25  H   UNK N   1      26.986  25.581  -8.989  0.00  0.00     0.156 HD
HETATM   26  H   UNK N   1      25.424  26.262  -9.070  0.00  0.00     0.156 HD
ENDBRANCH  22  24
ENDBRANCH   1  17
TORSDOF 4
ENDMDL
MODEL 6
REMARK VINA RESULT:      -7.9      2.670      7.535
REMARK  4 active torsions:
REMARK  status: ('A' for Active; 'I' for Inactive)
REMARK    1  A    between atoms: C_1  and  C_2 
REMARK       I    between atoms: C_1  and  N_18 
REMARK    2  A    between atoms: C_11  and  N_17 
REMARK    3  A    between atoms: N_18  and  C_19 
REMARK    4  A    between atoms: C_19  and  C_21 
ROOT
HETATM    1  C   UNK N   1      28.916  24.792  -6.132  0.00  0.00     0.252 C 
HETATM    2  O   UNK N   1      29.696  25.490  -6.765  0.00  0.00    -0.268 OA
HETATM    3  N   UNK N   1      27.596  25.082  -6.107  0.00  0.00    -0.349 N 
HETATM    4  H   UNK N   1      27.031  24.488  -5.562  0.00  0.00     0.163 HD
ENDROOT
BRANCH   3   5
HETATM    5  C   UNK N   1      26.915  26.161  -6.787  0.00  0.00     0.114 C 
HETATM    6  C   UNK N   1      25.572  25.668  -7.311  0.00  0.00     0.037 C 
BRANCH   5   7
HETATM    7  C   UNK N   1      26.710  27.297  -5.791  0.00  0.00    -0.025 A 
HETATM    8  C   UNK N   1      27.403  28.527  -5.889  0.00  0.00    -0.018 A 
HETATM    9  C   UNK N   1      27.170  29.542  -4.924  0.00  0.00    -0.025 A 
HETATM   10  C   UNK N   1      28.324  28.768  -6.919  0.00  0.00     0.013 A 
HETATM   11  C   UNK N   1      26.264  29.332  -3.883  0.00  0.00     0.012 A 
HETATM   12  C   UNK N   1      27.846  30.760  -5.009  0.00  0.00     0.012 A 
HETATM   13  C   UNK N   1      25.585  28.122  -3.782  0.00  0.00     0.002 A 
HETATM   14  C   UNK N   1      25.806  27.119  -4.722  0.00  0.00     0.010 A 
HETATM   15  C   UNK N   1      28.757  30.984  -6.042  0.00  0.00     0.001 A 
HETATM   16  C   UNK N   1      28.997  29.991  -6.995  0.00  0.00     0.001 A 
ENDBRANCH   5   7
ENDBRANCH   3   5
BRANCH   1  17
HETATM   17  C   UNK N   1      29.374  23.599  -5.370  0.00  0.00     0.040 A 
HETATM   18  C   UNK N   1      29.662  22.341  -5.952  0.00  0.00    -0.046 A 
HETATM   19  C   UNK N   1      29.538  22.092  -7.417  0.00  0.00     0.049 C 
HETATM   20  C   UNK N   1      30.078  21.281  -5.135  0.00  0.00     0.010 A 
HETATM   21  C   UNK N   1      30.211  21.453  -3.754  0.00  0.00     0.029 A 
HETATM   22  C   UNK N   1      29.930  22.690  -3.178  0.00  0.00     0.026 A 
HETATM   23  C   UNK N   1      29.516  23.748  -3.980  0.00  0.00     0.046 A 
BRANCH  22  24
HETATM   24  N   UNK N   1      30.060  22.874  -1.788  0.00  0.00    -0.399 N 
HETATM   25  H   UNK N   1      29.877  22.127  -1.173  0.00  0.00     0.156 HD
HETATM   26  H   UNK N   1      30.335  23.750  -1.431  0.00  0.00     0.156 HD
ENDBRANCH  22  24
ENDBRANCH   1  17
TORSDOF 4
ENDMDL
MODEL 7
REMARK VINA RESULT:      -7.8     26.664     29.191
REMARK  4 active torsions:
REMARK  status: ('A' for Active; 'I' for Inactive)
REMARK    1  A    between atoms: C_1  and  C_2 
REMARK       I    between atoms: C_1  and  N_18 
REMARK    2  A    between atoms: C_11  and  N_17 
REMARK    3  A    between atoms: N_18  and  C_19 
REMARK    4  A    between atoms: C_19  and  C_21 
ROOT
HETATM    1  C   UNK N   1      35.063  10.670  20.371  0.00  0.00     0.252 C 
HETATM    2  O   UNK N   1      36.053  10.225  20.936  0.00  0.00    -0.268 OA
HETATM    3  N   UNK N   1      33.822  10.391  20.831  0.00  0.00    -0.349 N 
HETATM    4  H   UNK N   1      33.073  10.765  20.316  0.00  0.00     0.163 HD
ENDROOT
BRANCH   3   5
HETATM    5  C   UNK N   1      33.467   9.607  21.993  0.00  0.00     0.114 C 
HETATM    6  C   UNK N   1      32.829  10.510  23.041  0.00  0.00     0.037 C 
BRANCH   5   7
HETATM    7  C   UNK N   1      32.486   8.526  21.556  0.00  0.00    -0.025 A 
HETATM    8  C   UNK N   1      32.377   7.283  22.224  0.00  0.00    -0.018 A 
HETATM    9  C   UNK N   1      31.446   6.317  21.761  0.00  0.00    -0.025 A 
HETATM   10  C   UNK N   1      33.178   6.978  23.335  0.00  0.00     0.013 A 
HETATM   11  C   UNK N   1      30.640   6.587  20.655  0.00  0.00     0.012 A 
HETATM   12  C   UNK N   1      31.329   5.086  22.410  0.00  0.00     0.012 A 
HETATM   13  C   UNK N   1      30.747   7.807  19.994  0.00  0.00     0.002 A 
HETATM   14  C   UNK N   1      31.657   8.761  20.438  0.00  0.00     0.010 A 
HETATM   15  C   UNK N   1      32.131   4.801  23.517  0.00  0.00     0.001 A 
HETATM   16  C   UNK N   1      33.053   5.743  23.978  0.00  0.00     0.001 A 
ENDBRANCH   5   7
ENDBRANCH   3   5
BRANCH   1  17
HETATM   17  C   UNK N   1      35.171  11.533  19.164  0.00  0.00     0.040 A 
HETATM   18  C   UNK N   1      35.236  11.047  17.836  0.00  0.00    -0.046 A 
HETATM   19  C   UNK N   1      35.192   9.592  17.516  0.00  0.00     0.049 C 
HETATM   20  C   UNK N   1      35.346  11.954  16.773  0.00  0.00     0.010 A 
HETATM   21  C   UNK N   1      35.394  13.331  17.011  0.00  0.00     0.029 A 
HETATM   22  C   UNK N   1      35.329  13.813  18.317  0.00  0.00     0.026 A 
HETATM   23  C   UNK N   1      35.219  12.922  19.378  0.00  0.00     0.046 A 
BRANCH  22  24
HETATM   24  N   UNK N   1      35.377  15.198  18.567  0.00  0.00    -0.399 N 
HETATM   25  H   UNK N   1      34.580  15.755  18.408  0.00  0.00     0.156 HD
HETATM   26  H   UNK N   1      36.206  15.609  18.902  0.00  0.00     0.156 HD
ENDBRANCH  22  24
ENDBRANCH   1  17
TORSDOF 4
ENDMDL
MODEL 8
REMARK VINA RESULT:      -7.7     10.966     13.344
REMARK  4 active torsions:
REMARK  status: ('A' for Active; 'I' for Inactive)
REMARK    1  A    between atoms: C_1  and  C_2 
REMARK       I    between atoms: C_1  and  N_18 
REMARK    2  A    between atoms: C_11  and  N_17 
REMARK    3  A    between atoms: N_18  and  C_19 
REMARK    4  A    between atoms: C_19  and  C_21 
ROOT
HETATM    1  C   UNK N   1      29.685  17.170   6.032  0.00  0.00     0.252 C 
HETATM    2  O   UNK N   1      29.322  16.030   6.290  0.00  0.00    -0.268 OA
HETATM    3  N   UNK N   1      30.978  17.430   5.733  0.00  0.00    -0.349 N 
HETATM    4  H   UNK N   1      31.202  18.372   5.555  0.00  0.00     0.163 HD
ENDROOT
BRANCH   3   5
HETATM    5  C   UNK N   1      32.071  16.488   5.641  0.00  0.00     0.114 C 
HETATM    6  C   UNK N   1      32.847  16.731   4.353  0.00  0.00     0.037 C 
BRANCH   5   7
HETATM    7  C   UNK N   1      32.975  16.689   6.851  0.00  0.00    -0.025 A 
HETATM    8  C   UNK N   1      33.279  15.642   7.754  0.00  0.00    -0.018 A 
HETATM    9  C   UNK N   1      34.124  15.899   8.866  0.00  0.00    -0.025 A 
HETATM   10  C   UNK N   1      32.758  14.352   7.580  0.00  0.00     0.013 A 
HETATM   11  C   UNK N   1      34.653  17.173   9.071  0.00  0.00     0.012 A 
HETATM   12  C   UNK N   1      34.432  14.875   9.764  0.00  0.00     0.012 A 
HETATM   13  C   UNK N   1      34.352  18.205   8.188  0.00  0.00     0.002 A 
HETATM   14  C   UNK N   1      33.524  17.966   7.094  0.00  0.00     0.010 A 
HETATM   15  C   UNK N   1      33.908  13.596   9.574  0.00  0.00     0.001 A 
HETATM   16  C   UNK N   1      33.072  13.334   8.485  0.00  0.00     0.001 A 
ENDBRANCH   5   7
ENDBRANCH   3   5
BRANCH   1  17
HETATM   17  C   UNK N   1      28.734  18.314   6.031  0.00  0.00     0.040 A 
HETATM   18  C   UNK N   1      28.277  18.975   7.196  0.00  0.00    -0.046 A 
HETATM   19  C   UNK N   1      28.722  18.582   8.563  0.00  0.00     0.049 C 
HETATM   20  C   UNK N   1      27.371  20.038   7.077  0.00  0.00     0.010 A 
HETATM   21  C   UNK N   1      26.916  20.451   5.821  0.00  0.00     0.029 A 
HETATM   22  C   UNK N   1      27.365  19.804   4.672  0.00  0.00     0.026 A 
HETATM   23  C   UNK N   1      28.263  18.748   4.779  0.00  0.00     0.046 A 
BRANCH  22  24
HETATM   24  N   UNK N   1      26.912  20.211   3.402  0.00  0.00    -0.399 N 
HETATM   25  H   UNK N   1      27.544  20.604   2.757  0.00  0.00     0.156 HD
HETATM   26  H   UNK N   1      25.964  20.103   3.160  0.00  0.00     0.156 HD
ENDBRANCH  22  24
ENDBRANCH   1  17
TORSDOF 4
ENDMDL
MODEL 9
REMARK VINA RESULT:      -7.7     25.468     28.061
REMARK  4 active torsions:
REMARK  status: ('A' for Active; 'I' for Inactive)
REMARK    1  A    between atoms: C_1  and  C_2 
REMARK       I    between atoms: C_1  and  N_18 
REMARK    2  A    between atoms: C_11  and  N_17 
REMARK    3  A    between atoms: N_18  and  C_19 
REMARK    4  A    between atoms: C_19  and  C_21 
ROOT
HETATM    1  C   UNK N   1      35.199  10.851  19.822  0.00  0.00     0.252 C 
HETATM    2  O   UNK N   1      36.179  10.432  20.424  0.00  0.00    -0.268 OA
HETATM    3  N   UNK N   1      33.956  10.443  20.162  0.00  0.00    -0.349 N 
HETATM    4  H   UNK N   1      33.217  10.806  19.622  0.00  0.00     0.163 HD
ENDROOT
BRANCH   3   5
HETATM    5  C   UNK N   1      33.582   9.538  21.226  0.00  0.00     0.114 C 
HETATM    6  C   UNK N   1      32.831  10.304  22.307  0.00  0.00     0.037 C 
BRANCH   5   7
HETATM    7  C   UNK N   1      32.696   8.449  20.634  0.00  0.00    -0.025 A 
HETATM    8  C   UNK N   1      33.225   7.304  19.991  0.00  0.00    -0.018 A 
HETATM    9  C   UNK N   1      32.342   6.329  19.457  0.00  0.00    -0.025 A 
HETATM   10  C   UNK N   1      34.608   7.111  19.863  0.00  0.00     0.013 A 
HETATM   11  C   UNK N   1      30.961   6.494  19.562  0.00  0.00     0.012 A 
HETATM   12  C   UNK N   1      32.851   5.196  18.819  0.00  0.00     0.012 A 
HETATM   13  C   UNK N   1      30.437   7.621  20.189  0.00  0.00     0.002 A 
HETATM   14  C   UNK N   1      31.293   8.584  20.717  0.00  0.00     0.010 A 
HETATM   15  C   UNK N   1      34.230   5.018  18.704  0.00  0.00     0.001 A 
HETATM   16  C   UNK N   1      35.107   5.973  19.224  0.00  0.00     0.001 A 
ENDBRANCH   5   7
ENDBRANCH   3   5
BRANCH   1  17
HETATM   17  C   UNK N   1      35.324  11.821  18.702  0.00  0.00     0.040 A 
HETATM   18  C   UNK N   1      35.458  11.458  17.340  0.00  0.00    -0.046 A 
HETATM   19  C   UNK N   1      35.480  10.036  16.892  0.00  0.00     0.049 C 
HETATM   20  C   UNK N   1      35.578  12.459  16.366  0.00  0.00     0.010 A 
HETATM   21  C   UNK N   1      35.566  13.810  16.726  0.00  0.00     0.029 A 
HETATM   22  C   UNK N   1      35.432  14.171  18.065  0.00  0.00     0.026 A 
HETATM   23  C   UNK N   1      35.312  13.186  19.038  0.00  0.00     0.046 A 
BRANCH  22  24
HETATM   24  N   UNK N   1      35.419  15.529  18.438  0.00  0.00    -0.399 N 
HETATM   25  H   UNK N   1      35.911  15.825  19.238  0.00  0.00     0.156 HD
HETATM   26  H   UNK N   1      34.919  16.183  17.897  0.00  0.00     0.156 HD
ENDBRANCH  22  24
ENDBRANCH   1  17
TORSDOF 4
ENDMDL
