MODEL 1
REMARK VINA RESULT:      -8.7      0.000      0.000
REMARK  10 active torsions:
REMARK  status: ('A' for Active; 'I' for Inactive)
REMARK       I    between atoms: C_2  and  N_18 
REMARK       I    between atoms: C_2  and  N_3 
REMARK    1  A    between atoms: N_3  and  C_4 
REMARK    2  A    between atoms: C_6  and  S_7 
REMARK    3  A    between atoms: S_7  and  C_8 
REMARK    4  A    between atoms: N_18  and  C_19 
REMARK    5  A    between atoms: C_19  and  C_20 
REMARK    6  A    between atoms: C_25  and  C_26 
REMARK    7  A    between atoms: C_31  and  O_32 
REMARK    8  A    between atoms: O_32  and  C_33 
REMARK    9  A    between atoms: C_33  and  C_34 
REMARK   10  A    between atoms: C_34  and  O_35 
ROOT
HETATM    1  O   UNK N   1      35.633  17.544  10.394  0.00  0.00    -0.247 OA
HETATM    2  C   UNK N   1      35.295  16.418  10.734  0.00  0.00     0.322 C 
HETATM    3  N   UNK N   1      34.264  15.781  10.131  0.00  0.00    -0.289 N 
HETATM    4  N   UNK N   1      35.992  15.764  11.679  0.00  0.00    -0.336 N 
HETATM    5  H   UNK N   1      34.047  14.876  10.451  0.00  0.00     0.172 HD
HETATM    6  H   UNK N   1      36.798  16.167  12.075  0.00  0.00     0.164 HD
ENDROOT
BRANCH   4   7
HETATM    7  C   UNK N   1      35.538  14.462  12.105  0.00  0.00     0.201 C 
BRANCH   7   8
HETATM    8  C   UNK N   1      36.114  14.196  13.450  0.00  0.00     0.099 A 
HETATM    9  N   UNK N   1      36.911  15.041  14.135  0.00  0.00    -0.352 N 
HETATM   10  C   UNK N   1      36.917  14.567  15.401  0.00  0.00     0.119 A 
HETATM   11  H   UNK N   1      37.386  15.831  13.789  0.00  0.00     0.166 HD
HETATM   12  C   UNK N   1      36.134  13.427  15.423  0.00  0.00     0.059 A 
HETATM   13  N   UNK N   1      35.640  13.208  14.206  0.00  0.00    -0.343 N 
ATOM     14  HN  UNK N   1      35.028  12.446  13.914  1.00  0.00     0.167 HD
BRANCH  12  15
HETATM   15  C   UNK N   1      35.404  12.885  16.557  0.00  0.00    -0.008 A 
HETATM   16  C   UNK N   1      35.380  11.498  16.710  0.00  0.00     0.016 A 
HETATM   17  C   UNK N   1      35.319  10.954  17.991  0.00  0.00     0.037 A 
HETATM   18  C   UNK N   1      35.281  11.797  19.119  0.00  0.00     0.069 A 
HETATM   19  C   UNK N   1      35.183  13.174  18.949  0.00  0.00     0.037 A 
HETATM   20  C   UNK N   1      35.270  13.717  17.677  0.00  0.00     0.016 A 
BRANCH  18  21
HETATM   21  O   UNK N   1      35.412  11.312  20.374  0.00  0.00    -0.341 OA
BRANCH  21  22
HETATM   22  C   UNK N   1      34.961  10.067  20.746  0.00  0.00     0.285 C 
BRANCH  22  23
HETATM   23  C   UNK N   1      33.621  10.195  21.374  0.00  0.00     0.164 C 
HETATM   24  O   UNK N   1      32.809   9.294  21.257  0.00  0.00    -0.648 OA
BRANCH  23  25
HETATM   25  O   UNK N   1      33.319  11.288  22.098  0.00  0.00    -0.775 OA
HETATM   26  H   UNK N   1      33.971  11.943  22.252  0.00  0.00     0.167 HD
ENDBRANCH  23  25
ENDBRANCH  22  23
ENDBRANCH  21  22
ENDBRANCH  18  21
ENDBRANCH  12  15
ENDBRANCH   7   8
ENDBRANCH   4   7
BRANCH   3  27
HETATM   27  C   UNK N   1      33.479  16.297   9.094  0.00  0.00     0.153 A 
HETATM   28  N   UNK N   1      33.854  17.272   8.230  0.00  0.00    -0.344 N 
HETATM   29  C   UNK N   1      32.949  17.410   7.201  0.00  0.00     0.116 A 
ATOM     30  HN  UNK N   1      34.702  17.832   8.329  1.00  0.00     0.167 HD
HETATM   31  C   UNK N   1      31.857  16.527   7.276  0.00  0.00     0.066 A 
HETATM   32  S   UNK N   1      32.075  15.608   8.616  0.00  0.00    -0.045 SA
BRANCH  31  33
HETATM   33  S   UNK N   1      30.741  16.110   5.952  0.00  0.00    -0.064 SA
BRANCH  33  34
HETATM   34  C   UNK N   1      29.633  17.449   6.424  0.00  0.00     0.074 A 
HETATM   35  C   UNK N   1      29.354  17.713   7.776  0.00  0.00     0.037 A 
HETATM   36  C   UNK N   1      28.416  18.692   8.104  0.00  0.00     0.004 A 
HETATM   37  C   UNK N   1      27.775  19.402   7.089  0.00  0.00     0.017 A 
HETATM   38  C   UNK N   1      28.087  19.123   5.757  0.00  0.00     0.089 A 
HETATM   39  N   UNK N   1      28.994  18.154   5.454  0.00  0.00    -0.360 N 
ATOM     40  HN  UNK N   1      29.199  17.953   4.475  1.00  0.00     0.166 HD
ENDBRANCH  33  34
ENDBRANCH  31  33
ENDBRANCH   3  27
TORSDOF 10
ENDMDL
MODEL 2
REMARK VINA RESULT:      -8.1      2.173      3.295
REMARK  10 active torsions:
REMARK  status: ('A' for Active; 'I' for Inactive)
REMARK       I    between atoms: C_2  and  N_18 
REMARK       I    between atoms: C_2  and  N_3 
REMARK    1  A    between atoms: N_3  and  C_4 
REMARK    2  A    between atoms: C_6  and  S_7 
REMARK    3  A    between atoms: S_7  and  C_8 
REMARK    4  A    between atoms: N_18  and  C_19 
REMARK    5  A    between atoms: C_19  and  C_20 
REMARK    6  A    between atoms: C_25  and  C_26 
REMARK    7  A    between atoms: C_31  and  O_32 
REMARK    8  A    between atoms: O_32  and  C_33 
REMARK    9  A    between atoms: C_33  and  C_34 
REMARK   10  A    between atoms: C_34  and  O_35 
ROOT
HETATM    1  O   UNK N   1      34.711  18.146   7.723  0.00  0.00    -0.247 OA
HETATM    2  C   UNK N   1      34.383  17.537   8.733  0.00  0.00     0.322 C 
HETATM    3  N   UNK N   1      33.122  17.076   8.898  0.00  0.00    -0.289 N 
HETATM    4  N   UNK N   1      35.299  17.260   9.677  0.00  0.00    -0.336 N 
HETATM    5  H   UNK N   1      32.926  16.592   9.733  0.00  0.00     0.172 HD
HETATM    6  H   UNK N   1      36.243  17.507   9.547  0.00  0.00     0.164 HD
ENDROOT
BRANCH   4   7
HETATM    7  C   UNK N   1      34.876  16.594  10.886  0.00  0.00     0.201 C 
BRANCH   7   8
HETATM    8  C   UNK N   1      35.563  15.277  10.946  0.00  0.00     0.099 A 
HETATM    9  N   UNK N   1      36.837  15.047  10.568  0.00  0.00    -0.352 N 
HETATM   10  C   UNK N   1      37.146  13.842  11.096  0.00  0.00     0.119 A 
HETATM   11  H   UNK N   1      37.416  15.630  10.026  0.00  0.00     0.166 HD
HETATM   12  C   UNK N   1      36.023  13.375  11.757  0.00  0.00     0.059 A 
HETATM   13  N   UNK N   1      35.048  14.277  11.657  0.00  0.00    -0.343 N 
ATOM     14  HN  UNK N   1      34.106  14.215  12.044  1.00  0.00     0.167 HD
BRANCH  12  15
HETATM   15  C   UNK N   1      35.985  12.459  12.884  0.00  0.00    -0.008 A 
HETATM   16  C   UNK N   1      37.202  12.067  13.442  0.00  0.00     0.016 A 
HETATM   17  C   UNK N   1      37.269  11.785  14.805  0.00  0.00     0.037 A 
HETATM   18  C   UNK N   1      36.117  11.895  15.610  0.00  0.00     0.069 A 
HETATM   19  C   UNK N   1      34.887  12.168  15.021  0.00  0.00     0.037 A 
HETATM   20  C   UNK N   1      34.825  12.474  13.670  0.00  0.00     0.016 A 
BRANCH  18  21
HETATM   21  O   UNK N   1      36.182  11.815  16.957  0.00  0.00    -0.341 OA
BRANCH  21  22
HETATM   22  C   UNK N   1      35.078  11.942  17.769  0.00  0.00     0.285 C 
BRANCH  22  23
HETATM   23  C   UNK N   1      35.234  13.144  18.626  0.00  0.00     0.164 C 
HETATM   24  O   UNK N   1      35.240  14.253  18.120  0.00  0.00    -0.648 OA
BRANCH  23  25
HETATM   25  O   UNK N   1      35.333  13.011  19.961  0.00  0.00    -0.775 OA
HETATM   26  H   UNK N   1      36.007  13.464  20.428  0.00  0.00     0.167 HD
ENDBRANCH  23  25
ENDBRANCH  22  23
ENDBRANCH  21  22
ENDBRANCH  18  21
ENDBRANCH  12  15
ENDBRANCH   7   8
ENDBRANCH   4   7
BRANCH   3  27
HETATM   27  C   UNK N   1      32.070  17.227   7.987  0.00  0.00     0.153 A 
HETATM   28  N   UNK N   1      32.195  17.262   6.637  0.00  0.00    -0.344 N 
HETATM   29  C   UNK N   1      30.967  17.208   6.016  0.00  0.00     0.116 A 
ATOM     30  HN  UNK N   1      33.086  17.319   6.144  1.00  0.00     0.167 HD
HETATM   31  C   UNK N   1      29.878  17.133   6.904  0.00  0.00     0.066 A 
HETATM   32  S   UNK N   1      30.497  17.126   8.421  0.00  0.00    -0.045 SA
BRANCH  31  33
HETATM   33  S   UNK N   1      28.219  16.626   6.502  0.00  0.00    -0.064 SA
BRANCH  33  34
HETATM   34  C   UNK N   1      27.780  18.314   6.052  0.00  0.00     0.074 A 
HETATM   35  C   UNK N   1      27.903  18.764   4.727  0.00  0.00     0.037 A 
HETATM   36  C   UNK N   1      27.650  20.104   4.430  0.00  0.00     0.004 A 
HETATM   37  C   UNK N   1      27.270  20.976   5.450  0.00  0.00     0.017 A 
HETATM   38  C   UNK N   1      27.144  20.492   6.753  0.00  0.00     0.089 A 
HETATM   39  N   UNK N   1      27.409  19.185   7.028  0.00  0.00    -0.360 N 
ATOM     40  HN  UNK N   1      27.327  18.851   7.988  1.00  0.00     0.166 HD
ENDBRANCH  33  34
ENDBRANCH  31  33
ENDBRANCH   3  27
TORSDOF 10
ENDMDL
MODEL 3
REMARK VINA RESULT:      -7.8      1.572      1.711
REMARK  10 active torsions:
REMARK  status: ('A' for Active; 'I' for Inactive)
REMARK       I    between atoms: C_2  and  N_18 
REMARK       I    between atoms: C_2  and  N_3 
REMARK    1  A    between atoms: N_3  and  C_4 
REMARK    2  A    between atoms: C_6  and  S_7 
REMARK    3  A    between atoms: S_7  and  C_8 
REMARK    4  A    between atoms: N_18  and  C_19 
REMARK    5  A    between atoms: C_19  and  C_20 
REMARK    6  A    between atoms: C_25  and  C_26 
REMARK    7  A    between atoms: C_31  and  O_32 
REMARK    8  A    between atoms: O_32  and  C_33 
REMARK    9  A    between atoms: C_33  and  C_34 
REMARK   10  A    between atoms: C_34  and  O_35 
ROOT
HETATM    1  O   UNK N   1      35.206  12.753   9.267  0.00  0.00    -0.247 OA
HETATM    2  C   UNK N   1      34.973  13.589  10.129  0.00  0.00     0.322 C 
HETATM    3  N   UNK N   1      34.110  14.608   9.907  0.00  0.00    -0.289 N 
HETATM    4  N   UNK N   1      35.528  13.470  11.347  0.00  0.00    -0.336 N 
HETATM    5  H   UNK N   1      33.966  15.243  10.645  0.00  0.00     0.172 HD
HETATM    6  H   UNK N   1      36.093  12.693  11.566  0.00  0.00     0.164 HD
ENDROOT
BRANCH   4   7
HETATM    7  C   UNK N   1      35.287  14.501  12.329  0.00  0.00     0.201 C 
BRANCH   7   8
HETATM    8  C   UNK N   1      35.936  14.082  13.599  0.00  0.00     0.099 A 
HETATM    9  N   UNK N   1      36.880  14.784  14.259  0.00  0.00    -0.352 N 
HETATM   10  C   UNK N   1      36.934  14.227  15.489  0.00  0.00     0.119 A 
HETATM   11  H   UNK N   1      37.414  15.538  13.918  0.00  0.00     0.166 HD
HETATM   12  C   UNK N   1      36.028  13.182  15.514  0.00  0.00     0.059 A 
HETATM   13  N   UNK N   1      35.414  13.104  14.335  0.00  0.00    -0.343 N 
ATOM     14  HN  UNK N   1      34.695  12.436  14.055  1.00  0.00     0.167 HD
BRANCH  12  15
HETATM   15  C   UNK N   1      35.335  12.648  16.675  0.00  0.00    -0.008 A 
HETATM   16  C   UNK N   1      35.348  11.266  16.859  0.00  0.00     0.016 A 
HETATM   17  C   UNK N   1      35.326  10.749  18.153  0.00  0.00     0.037 A 
HETATM   18  C   UNK N   1      35.292  11.616  19.263  0.00  0.00     0.069 A 
HETATM   19  C   UNK N   1      35.157  12.986  19.064  0.00  0.00     0.037 A 
HETATM   20  C   UNK N   1      35.204  13.502  17.779  0.00  0.00     0.016 A 
BRANCH  18  21
HETATM   21  O   UNK N   1      35.460  11.162  20.524  0.00  0.00    -0.341 OA
BRANCH  21  22
HETATM   22  C   UNK N   1      34.871  10.010  20.991  0.00  0.00     0.285 C 
BRANCH  22  23
HETATM   23  C   UNK N   1      33.497  10.316  21.464  0.00  0.00     0.164 C 
HETATM   24  O   UNK N   1      32.588   9.539  21.226  0.00  0.00    -0.648 OA
BRANCH  23  25
HETATM   25  O   UNK N   1      33.264  11.428  22.182  0.00  0.00    -0.775 OA
HETATM   26  H   UNK N   1      32.658  12.070  21.868  0.00  0.00     0.167 HD
ENDBRANCH  23  25
ENDBRANCH  22  23
ENDBRANCH  21  22
ENDBRANCH  18  21
ENDBRANCH  12  15
ENDBRANCH   7   8
ENDBRANCH   4   7
BRANCH   3  27
HETATM   27  C   UNK N   1      33.406  14.838   8.720  0.00  0.00     0.153 A 
HETATM   28  N   UNK N   1      32.421  14.052   8.221  0.00  0.00    -0.344 N 
HETATM   29  C   UNK N   1      31.785  14.653   7.158  0.00  0.00     0.116 A 
ATOM     30  HN  UNK N   1      32.180  13.131   8.589  1.00  0.00     0.167 HD
HETATM   31  C   UNK N   1      32.292  15.924   6.831  0.00  0.00     0.066 A 
HETATM   32  S   UNK N   1      33.501  16.244   7.889  0.00  0.00    -0.045 SA
BRANCH  31  33
HETATM   33  S   UNK N   1      31.482  17.161   5.838  0.00  0.00    -0.064 SA
BRANCH  33  34
HETATM   34  C   UNK N   1      30.274  17.458   7.140  0.00  0.00     0.074 A 
HETATM   35  C   UNK N   1      30.657  18.032   8.364  0.00  0.00     0.037 A 
HETATM   36  C   UNK N   1      29.718  18.158   9.387  0.00  0.00     0.004 A 
HETATM   37  C   UNK N   1      28.409  17.721   9.180  0.00  0.00     0.017 A 
HETATM   38  C   UNK N   1      28.060  17.168   7.946  0.00  0.00     0.089 A 
HETATM   39  N   UNK N   1      28.992  17.040   6.964  0.00  0.00    -0.360 N 
ATOM     40  HN  UNK N   1      28.724  16.619   6.073  1.00  0.00     0.166 HD
ENDBRANCH  33  34
ENDBRANCH  31  33
ENDBRANCH   3  27
TORSDOF 10
ENDMDL
MODEL 4
REMARK VINA RESULT:      -7.7      4.471     11.956
REMARK  10 active torsions:
REMARK  status: ('A' for Active; 'I' for Inactive)
REMARK       I    between atoms: C_2  and  N_18 
REMARK       I    between atoms: C_2  and  N_3 
REMARK    1  A    between atoms: N_3  and  C_4 
REMARK    2  A    between atoms: C_6  and  S_7 
REMARK    3  A    between atoms: S_7  and  C_8 
REMARK    4  A    between atoms: N_18  and  C_19 
REMARK    5  A    between atoms: C_19  and  C_20 
REMARK    6  A    between atoms: C_25  and  C_26 
REMARK    7  A    between atoms: C_31  and  O_32 
REMARK    8  A    between atoms: O_32  and  C_33 
REMARK    9  A    between atoms: C_33  and  C_34 
REMARK   10  A    between atoms: C_34  and  O_35 
ROOT
HETATM    1  O   UNK N   1      34.075  11.310  14.007  0.00  0.00    -0.247 OA
HETATM    2  C   UNK N   1      34.854  12.249  14.098  0.00  0.00     0.322 C 
HETATM    3  N   UNK N   1      35.691  12.370  15.154  0.00  0.00    -0.289 N 
HETATM    4  N   UNK N   1      34.935  13.153  13.106  0.00  0.00    -0.336 N 
HETATM    5  H   UNK N   1      36.294  13.149  15.163  0.00  0.00     0.172 HD
HETATM    6  H   UNK N   1      34.401  13.045  12.286  0.00  0.00     0.164 HD
ENDROOT
BRANCH   4   7
HETATM    7  C   UNK N   1      35.817  14.285  13.263  0.00  0.00     0.201 C 
BRANCH   7   8
HETATM    8  C   UNK N   1      35.951  14.946  11.937  0.00  0.00     0.099 A 
HETATM    9  N   UNK N   1      36.908  14.675  11.026  0.00  0.00    -0.352 N 
HETATM   10  C   UNK N   1      36.465  15.231   9.878  0.00  0.00     0.119 A 
HETATM   11  H   UNK N   1      37.747  14.180  11.168  0.00  0.00     0.166 HD
HETATM   12  C   UNK N   1      35.256  15.845  10.150  0.00  0.00     0.059 A 
HETATM   13  N   UNK N   1      34.947  15.659  11.432  0.00  0.00    -0.343 N 
ATOM     14  HN  UNK N   1      34.117  15.992  11.924  1.00  0.00     0.167 HD
BRANCH  12  15
HETATM   15  C   UNK N   1      34.166  16.090   9.221  0.00  0.00    -0.008 A 
HETATM   16  C   UNK N   1      33.058  15.244   9.282  0.00  0.00     0.016 A 
HETATM   17  C   UNK N   1      31.798  15.744   8.964  0.00  0.00     0.037 A 
HETATM   18  C   UNK N   1      31.645  17.093   8.584  0.00  0.00     0.069 A 
HETATM   19  C   UNK N   1      32.769  17.893   8.410  0.00  0.00     0.037 A 
HETATM   20  C   UNK N   1      34.020  17.403   8.751  0.00  0.00     0.016 A 
BRANCH  18  21
HETATM   21  O   UNK N   1      30.426  17.660   8.453  0.00  0.00    -0.341 OA
BRANCH  21  22
HETATM   22  C   UNK N   1      29.724  18.182   9.515  0.00  0.00     0.285 C 
BRANCH  22  23
HETATM   23  C   UNK N   1      28.272  17.949   9.309  0.00  0.00     0.164 C 
HETATM   24  O   UNK N   1      27.738  16.976   9.815  0.00  0.00    -0.648 OA
BRANCH  23  25
HETATM   25  O   UNK N   1      27.543  18.825   8.596  0.00  0.00    -0.775 OA
HETATM   26  H   UNK N   1      27.722  19.743   8.658  0.00  0.00     0.167 HD
ENDBRANCH  23  25
ENDBRANCH  22  23
ENDBRANCH  21  22
ENDBRANCH  18  21
ENDBRANCH  12  15
ENDBRANCH   7   8
ENDBRANCH   4   7
BRANCH   3  27
HETATM   27  C   UNK N   1      35.774  11.487  16.236  0.00  0.00     0.153 A 
HETATM   28  N   UNK N   1      36.455  10.315  16.248  0.00  0.00    -0.344 N 
HETATM   29  C   UNK N   1      36.520   9.781  17.516  0.00  0.00     0.116 A 
ATOM     30  HN  UNK N   1      36.868   9.883  15.421  1.00  0.00     0.167 HD
HETATM   31  C   UNK N   1      35.875  10.556  18.497  0.00  0.00     0.066 A 
HETATM   32  S   UNK N   1      35.263  11.875  17.741  0.00  0.00    -0.045 SA
BRANCH  31  33
HETATM   33  S   UNK N   1      36.103  10.433  20.259  0.00  0.00    -0.064 SA
BRANCH  33  34
HETATM   34  C   UNK N   1      34.389   9.924  20.476  0.00  0.00     0.074 A 
HETATM   35  C   UNK N   1      33.601  10.461  21.508  0.00  0.00     0.037 A 
HETATM   36  C   UNK N   1      32.309   9.974  21.710  0.00  0.00     0.004 A 
HETATM   37  C   UNK N   1      31.814   8.968  20.880  0.00  0.00     0.017 A 
HETATM   38  C   UNK N   1      32.620   8.467  19.856  0.00  0.00     0.089 A 
HETATM   39  N   UNK N   1      33.883   8.944  19.682  0.00  0.00    -0.360 N 
ATOM     40  HN  UNK N   1      34.464   8.556  18.938  1.00  0.00     0.166 HD
ENDBRANCH  33  34
ENDBRANCH  31  33
ENDBRANCH   3  27
TORSDOF 10
ENDMDL
MODEL 5
REMARK VINA RESULT:      -7.7      5.305     13.852
REMARK  10 active torsions:
REMARK  status: ('A' for Active; 'I' for Inactive)
REMARK       I    between atoms: C_2  and  N_18 
REMARK       I    between atoms: C_2  and  N_3 
REMARK    1  A    between atoms: N_3  and  C_4 
REMARK    2  A    between atoms: C_6  and  S_7 
REMARK    3  A    between atoms: S_7  and  C_8 
REMARK    4  A    between atoms: N_18  and  C_19 
REMARK    5  A    between atoms: C_19  and  C_20 
REMARK    6  A    between atoms: C_25  and  C_26 
REMARK    7  A    between atoms: C_31  and  O_32 
REMARK    8  A    between atoms: O_32  and  C_33 
REMARK    9  A    between atoms: C_33  and  C_34 
REMARK   10  A    between atoms: C_34  and  O_35 
ROOT
HETATM    1  O   UNK N   1      32.558  14.424   7.437  0.00  0.00    -0.247 OA
HETATM    2  C   UNK N   1      32.327  15.406   8.129  0.00  0.00     0.322 C 
HETATM    3  N   UNK N   1      32.786  15.496   9.398  0.00  0.00    -0.289 N 
HETATM    4  N   UNK N   1      31.659  16.450   7.610  0.00  0.00    -0.336 N 
HETATM    5  H   UNK N   1      32.565  16.315   9.899  0.00  0.00     0.172 HD
HETATM    6  H   UNK N   1      31.386  16.451   6.664  0.00  0.00     0.164 HD
ENDROOT
BRANCH   4   7
HETATM    7  C   UNK N   1      31.345  17.572   8.463  0.00  0.00     0.201 C 
BRANCH   7   8
HETATM    8  C   UNK N   1      29.923  17.939   8.229  0.00  0.00     0.099 A 
HETATM    9  N   UNK N   1      29.114  18.533   9.131  0.00  0.00    -0.352 N 
HETATM   10  C   UNK N   1      28.060  18.980   8.413  0.00  0.00     0.119 A 
HETATM   11  H   UNK N   1      29.259  18.620  10.100  0.00  0.00     0.166 HD
HETATM   12  C   UNK N   1      28.265  18.612   7.095  0.00  0.00     0.059 A 
HETATM   13  N   UNK N   1      29.427  17.968   6.994  0.00  0.00    -0.343 N 
ATOM     14  HN  UNK N   1      29.847  17.579   6.150  1.00  0.00     0.167 HD
BRANCH  12  15
HETATM   15  C   UNK N   1      27.755  19.277   5.908  0.00  0.00    -0.008 A 
HETATM   16  C   UNK N   1      27.839  18.593   4.695  0.00  0.00     0.016 A 
HETATM   17  C   UNK N   1      26.863  18.804   3.723  0.00  0.00     0.037 A 
HETATM   18  C   UNK N   1      25.804  19.701   3.965  0.00  0.00     0.069 A 
HETATM   19  C   UNK N   1      25.798  20.466   5.126  0.00  0.00     0.037 A 
HETATM   20  C   UNK N   1      26.753  20.238   6.104  0.00  0.00     0.016 A 
BRANCH  18  21
HETATM   21  O   UNK N   1      24.744  19.790   3.131  0.00  0.00    -0.341 OA
BRANCH  21  22
HETATM   22  C   UNK N   1      23.464  19.457   3.507  0.00  0.00     0.285 C 
BRANCH  22  23
HETATM   23  C   UNK N   1      22.502  20.381   2.856  0.00  0.00     0.164 C 
HETATM   24  O   UNK N   1      22.723  21.580   2.850  0.00  0.00    -0.648 OA
BRANCH  23  25
HETATM   25  O   UNK N   1      21.408  19.893   2.244  0.00  0.00    -0.775 OA
HETATM   26  H   UNK N   1      20.974  20.400   1.586  0.00  0.00     0.167 HD
ENDBRANCH  23  25
ENDBRANCH  22  23
ENDBRANCH  21  22
ENDBRANCH  18  21
ENDBRANCH  12  15
ENDBRANCH   7   8
ENDBRANCH   4   7
BRANCH   3  27
HETATM   27  C   UNK N   1      33.544  14.526  10.064  0.00  0.00     0.153 A 
HETATM   28  N   UNK N   1      33.671  13.229   9.689  0.00  0.00    -0.344 N 
HETATM   29  C   UNK N   1      34.645  12.586  10.420  0.00  0.00     0.116 A 
ATOM     30  HN  UNK N   1      33.116  12.787   8.957  1.00  0.00     0.167 HD
HETATM   31  C   UNK N   1      35.277  13.402  11.376  0.00  0.00     0.066 A 
HETATM   32  S   UNK N   1      34.600  14.890  11.258  0.00  0.00    -0.045 SA
BRANCH  31  33
HETATM   33  S   UNK N   1      36.829  13.074  12.186  0.00  0.00    -0.064 SA
BRANCH  33  34
HETATM   34  C   UNK N   1      36.009  12.987  13.787  0.00  0.00     0.074 A 
HETATM   35  C   UNK N   1      36.576  13.590  14.923  0.00  0.00     0.037 A 
HETATM   36  C   UNK N   1      35.967  13.421  16.166  0.00  0.00     0.004 A 
HETATM   37  C   UNK N   1      34.799  12.665  16.265  0.00  0.00     0.017 A 
HETATM   38  C   UNK N   1      34.256  12.091  15.114  0.00  0.00     0.089 A 
HETATM   39  N   UNK N   1      34.871  12.254  13.911  0.00  0.00    -0.360 N 
ATOM     40  HN  UNK N   1      34.469  11.816  13.082  1.00  0.00     0.166 HD
ENDBRANCH  33  34
ENDBRANCH  31  33
ENDBRANCH   3  27
TORSDOF 10
ENDMDL
MODEL 6
REMARK VINA RESULT:      -7.6      2.052      2.526
REMARK  10 active torsions:
REMARK  status: ('A' for Active; 'I' for Inactive)
REMARK       I    between atoms: C_2  and  N_18 
REMARK       I    between atoms: C_2  and  N_3 
REMARK    1  A    between atoms: N_3  and  C_4 
REMARK    2  A    between atoms: C_6  and  S_7 
REMARK    3  A    between atoms: S_7  and  C_8 
REMARK    4  A    between atoms: N_18  and  C_19 
REMARK    5  A    between atoms: C_19  and  C_20 
REMARK    6  A    between atoms: C_25  and  C_26 
REMARK    7  A    between atoms: C_31  and  O_32 
REMARK    8  A    between atoms: O_32  and  C_33 
REMARK    9  A    between atoms: C_33  and  C_34 
REMARK   10  A    between atoms: C_34  and  O_35 
ROOT
HETATM    1  O   UNK N   1      34.221  12.533  10.276  0.00  0.00    -0.247 OA
HETATM    2  C   UNK N   1      34.673  13.545  10.792  0.00  0.00     0.322 C 
HETATM    3  N   UNK N   1      34.395  14.773  10.296  0.00  0.00    -0.289 N 
HETATM    4  N   UNK N   1      35.412  13.456  11.912  0.00  0.00    -0.336 N 
HETATM    5  H   UNK N   1      34.790  15.546  10.761  0.00  0.00     0.172 HD
HETATM    6  H   UNK N   1      35.560  12.584  12.345  0.00  0.00     0.164 HD
ENDROOT
BRANCH   4   7
HETATM    7  C   UNK N   1      35.985  14.658  12.468  0.00  0.00     0.201 C 
BRANCH   7   8
HETATM    8  C   UNK N   1      36.438  14.350  13.851  0.00  0.00     0.099 A 
HETATM    9  N   UNK N   1      37.174  15.169  14.629  0.00  0.00    -0.352 N 
HETATM   10  C   UNK N   1      37.065  14.659  15.875  0.00  0.00     0.119 A 
HETATM   11  H   UNK N   1      37.681  15.965  14.350  0.00  0.00     0.166 HD
HETATM   12  C   UNK N   1      36.278  13.523  15.794  0.00  0.00     0.059 A 
HETATM   13  N   UNK N   1      35.894  13.344  14.532  0.00  0.00    -0.343 N 
ATOM     14  HN  UNK N   1      35.308  12.594  14.164  1.00  0.00     0.167 HD
BRANCH  12  15
HETATM   15  C   UNK N   1      35.448  12.954  16.842  0.00  0.00    -0.008 A 
HETATM   16  C   UNK N   1      35.316  11.565  16.883  0.00  0.00     0.016 A 
HETATM   17  C   UNK N   1      35.143  10.932  18.112  0.00  0.00     0.037 A 
HETATM   18  C   UNK N   1      35.100  11.688  19.300  0.00  0.00     0.069 A 
HETATM   19  C   UNK N   1      35.110  13.077  19.235  0.00  0.00     0.037 A 
HETATM   20  C   UNK N   1      35.309  13.707  18.016  0.00  0.00     0.016 A 
BRANCH  18  21
HETATM   21  O   UNK N   1      35.124  11.101  20.517  0.00  0.00    -0.341 OA
BRANCH  21  22
HETATM   22  C   UNK N   1      34.407   9.965  20.815  0.00  0.00     0.285 C 
BRANCH  22  23
HETATM   23  C   UNK N   1      33.271  10.318  21.703  0.00  0.00     0.164 C 
HETATM   24  O   UNK N   1      32.460   9.464  22.017  0.00  0.00    -0.648 OA
BRANCH  23  25
HETATM   25  O   UNK N   1      33.157  11.568  22.185  0.00  0.00    -0.775 OA
HETATM   26  H   UNK N   1      33.569  12.282  21.740  0.00  0.00     0.167 HD
ENDBRANCH  23  25
ENDBRANCH  22  23
ENDBRANCH  21  22
ENDBRANCH  18  21
ENDBRANCH  12  15
ENDBRANCH   7   8
ENDBRANCH   4   7
BRANCH   3  27
HETATM   27  C   UNK N   1      33.598  15.041   9.178  0.00  0.00     0.153 A 
HETATM   28  N   UNK N   1      33.227  14.137   8.238  0.00  0.00    -0.344 N 
HETATM   29  C   UNK N   1      32.276  14.654   7.387  0.00  0.00     0.116 A 
ATOM     30  HN  UNK N   1      33.604  13.191   8.171  1.00  0.00     0.167 HD
HETATM   31  C   UNK N   1      31.911  15.982   7.675  0.00  0.00     0.066 A 
HETATM   32  S   UNK N   1      32.781  16.445   8.984  0.00  0.00    -0.045 SA
BRANCH  31  33
HETATM   33  S   UNK N   1      30.452  16.826   7.099  0.00  0.00    -0.064 SA
BRANCH  33  34
HETATM   34  C   UNK N   1      31.129  16.920   5.432  0.00  0.00     0.074 A 
HETATM   35  C   UNK N   1      30.485  16.289   4.355  0.00  0.00     0.037 A 
HETATM   36  C   UNK N   1      31.086  16.297   3.096  0.00  0.00     0.004 A 
HETATM   37  C   UNK N   1      32.313  16.937   2.921  0.00  0.00     0.017 A 
HETATM   38  C   UNK N   1      32.919  17.564   4.012  0.00  0.00     0.089 A 
HETATM   39  N   UNK N   1      32.325  17.535   5.236  0.00  0.00    -0.360 N 
ATOM     40  HN  UNK N   1      32.789  17.986   6.025  1.00  0.00     0.166 HD
ENDBRANCH  33  34
ENDBRANCH  31  33
ENDBRANCH   3  27
TORSDOF 10
ENDMDL
MODEL 7
REMARK VINA RESULT:      -7.5      5.315     12.934
REMARK  10 active torsions:
REMARK  status: ('A' for Active; 'I' for Inactive)
REMARK       I    between atoms: C_2  and  N_18 
REMARK       I    between atoms: C_2  and  N_3 
REMARK    1  A    between atoms: N_3  and  C_4 
REMARK    2  A    between atoms: C_6  and  S_7 
REMARK    3  A    between atoms: S_7  and  C_8 
REMARK    4  A    between atoms: N_18  and  C_19 
REMARK    5  A    between atoms: C_19  and  C_20 
REMARK    6  A    between atoms: C_25  and  C_26 
REMARK    7  A    between atoms: C_31  and  O_32 
REMARK    8  A    between atoms: O_32  and  C_33 
REMARK    9  A    between atoms: C_33  and  C_34 
REMARK   10  A    between atoms: C_34  and  O_35 
ROOT
HETATM    1  O   UNK N   1      34.201  14.059   7.117  0.00  0.00    -0.247 OA
HETATM    2  C   UNK N   1      34.003  15.229   7.412  0.00  0.00     0.322 C 
HETATM    3  N   UNK N   1      34.437  15.742   8.587  0.00  0.00    -0.289 N 
HETATM    4  N   UNK N   1      33.399  16.050   6.536  0.00  0.00    -0.336 N 
HETATM    5  H   UNK N   1      34.246  16.692   8.760  0.00  0.00     0.172 HD
HETATM    6  H   UNK N   1      33.148  15.728   5.639  0.00  0.00     0.164 HD
ENDROOT
BRANCH   4   7
HETATM    7  C   UNK N   1      33.122  17.411   6.930  0.00  0.00     0.201 C 
BRANCH   7   8
HETATM    8  C   UNK N   1      31.829  17.418   7.666  0.00  0.00     0.099 A 
HETATM    9  N   UNK N   1      31.644  17.915   8.906  0.00  0.00    -0.352 N 
HETATM   10  C   UNK N   1      30.304  18.027   9.041  0.00  0.00     0.119 A 
HETATM   11  H   UNK N   1      32.333  18.146   9.569  0.00  0.00     0.166 HD
HETATM   12  C   UNK N   1      29.726  17.563   7.872  0.00  0.00     0.059 A 
HETATM   13  N   UNK N   1      30.685  17.190   7.026  0.00  0.00    -0.343 N 
ATOM     14  HN  UNK N   1      30.568  16.809   6.086  1.00  0.00     0.167 HD
BRANCH  12  15
HETATM   15  C   UNK N   1      28.444  17.952   7.311  0.00  0.00    -0.008 A 
HETATM   16  C   UNK N   1      28.114  19.307   7.324  0.00  0.00     0.016 A 
HETATM   17  C   UNK N   1      27.321  19.828   6.304  0.00  0.00     0.037 A 
HETATM   18  C   UNK N   1      26.857  18.991   5.269  0.00  0.00     0.069 A 
HETATM   19  C   UNK N   1      27.090  17.621   5.332  0.00  0.00     0.037 A 
HETATM   20  C   UNK N   1      27.900  17.108   6.333  0.00  0.00     0.016 A 
BRANCH  18  21
HETATM   21  O   UNK N   1      26.250  19.490   4.170  0.00  0.00    -0.341 OA
BRANCH  21  22
HETATM   22  C   UNK N   1      25.077  20.208   4.223  0.00  0.00     0.285 C 
BRANCH  22  23
HETATM   23  C   UNK N   1      24.686  20.614   2.850  0.00  0.00     0.164 C 
HETATM   24  O   UNK N   1      25.548  20.882   2.029  0.00  0.00    -0.648 OA
BRANCH  23  25
HETATM   25  O   UNK N   1      23.388  20.653   2.503  0.00  0.00    -0.775 OA
HETATM   26  H   UNK N   1      23.023  19.969   1.977  0.00  0.00     0.167 HD
ENDBRANCH  23  25
ENDBRANCH  22  23
ENDBRANCH  21  22
ENDBRANCH  18  21
ENDBRANCH  12  15
ENDBRANCH   7   8
ENDBRANCH   4   7
BRANCH   3  27
HETATM   27  C   UNK N   1      35.131  15.040   9.578  0.00  0.00     0.153 A 
HETATM   28  N   UNK N   1      36.392  14.553   9.464  0.00  0.00    -0.344 N 
HETATM   29  C   UNK N   1      36.869  14.100  10.674  0.00  0.00     0.116 A 
ATOM     30  HN  UNK N   1      36.920  14.527   8.592  1.00  0.00     0.167 HD
HETATM   31  C   UNK N   1      35.958  14.238  11.737  0.00  0.00     0.066 A 
HETATM   32  S   UNK N   1      34.605  14.929  11.123  0.00  0.00    -0.045 SA
BRANCH  31  33
HETATM   33  S   UNK N   1      36.344  14.176  13.475  0.00  0.00    -0.064 SA
BRANCH  33  34
HETATM   34  C   UNK N   1      35.285  12.735  13.689  0.00  0.00     0.074 A 
HETATM   35  C   UNK N   1      34.580  12.529  14.887  0.00  0.00     0.037 A 
HETATM   36  C   UNK N   1      33.847  11.354  15.059  0.00  0.00     0.004 A 
HETATM   37  C   UNK N   1      33.816  10.405  14.037  0.00  0.00     0.017 A 
HETATM   38  C   UNK N   1      34.518  10.650  12.854  0.00  0.00     0.089 A 
HETATM   39  N   UNK N   1      35.239  11.794  12.709  0.00  0.00    -0.360 N 
ATOM     40  HN  UNK N   1      35.758  11.950  11.845  1.00  0.00     0.166 HD
ENDBRANCH  33  34
ENDBRANCH  31  33
ENDBRANCH   3  27
TORSDOF 10
ENDMDL
MODEL 8
REMARK VINA RESULT:      -7.5      4.641     12.419
REMARK  10 active torsions:
REMARK  status: ('A' for Active; 'I' for Inactive)
REMARK       I    between atoms: C_2  and  N_18 
REMARK       I    between atoms: C_2  and  N_3 
REMARK    1  A    between atoms: N_3  and  C_4 
REMARK    2  A    between atoms: C_6  and  S_7 
REMARK    3  A    between atoms: S_7  and  C_8 
REMARK    4  A    between atoms: N_18  and  C_19 
REMARK    5  A    between atoms: C_19  and  C_20 
REMARK    6  A    between atoms: C_25  and  C_26 
REMARK    7  A    between atoms: C_31  and  O_32 
REMARK    8  A    between atoms: O_32  and  C_33 
REMARK    9  A    between atoms: C_33  and  C_34 
REMARK   10  A    between atoms: C_34  and  O_35 
ROOT
HETATM    1  O   UNK N   1      34.460  12.435   9.670  0.00  0.00    -0.247 OA
HETATM    2  C   UNK N   1      34.801  13.548  10.047  0.00  0.00     0.322 C 
HETATM    3  N   UNK N   1      35.128  13.782  11.339  0.00  0.00    -0.289 N 
HETATM    4  N   UNK N   1      34.916  14.552   9.161  0.00  0.00    -0.336 N 
HETATM    5  H   UNK N   1      35.396  14.700  11.575  0.00  0.00     0.172 HD
HETATM    6  H   UNK N   1      34.767  14.392   8.201  0.00  0.00     0.164 HD
ENDROOT
BRANCH   4   7
HETATM    7  C   UNK N   1      35.259  15.870   9.640  0.00  0.00     0.201 C 
BRANCH   7   8
HETATM    8  C   UNK N   1      34.365  16.848   8.964  0.00  0.00     0.099 A 
HETATM    9  N   UNK N   1      34.613  17.435   7.776  0.00  0.00    -0.352 N 
HETATM   10  C   UNK N   1      33.429  17.960   7.392  0.00  0.00     0.119 A 
HETATM   11  H   UNK N   1      35.470  17.474   7.293  0.00  0.00     0.166 HD
HETATM   12  C   UNK N   1      32.508  17.687   8.389  0.00  0.00     0.059 A 
HETATM   13  N   UNK N   1      33.103  16.995   9.358  0.00  0.00    -0.343 N 
ATOM     14  HN  UNK N   1      32.681  16.649  10.221  1.00  0.00     0.167 HD
BRANCH  12  15
HETATM   15  C   UNK N   1      31.070  17.547   8.241  0.00  0.00    -0.008 A 
HETATM   16  C   UNK N   1      30.254  18.312   9.075  0.00  0.00     0.016 A 
HETATM   17  C   UNK N   1      29.014  18.744   8.608  0.00  0.00     0.037 A 
HETATM   18  C   UNK N   1      28.590  18.409   7.307  0.00  0.00     0.069 A 
HETATM   19  C   UNK N   1      29.357  17.546   6.531  0.00  0.00     0.037 A 
HETATM   20  C   UNK N   1      30.601  17.138   6.985  0.00  0.00     0.016 A 
BRANCH  18  21
HETATM   21  O   UNK N   1      27.488  18.962   6.755  0.00  0.00    -0.341 OA
BRANCH  21  22
HETATM   22  C   UNK N   1      27.495  20.191   6.136  0.00  0.00     0.285 C 
BRANCH  22  23
HETATM   23  C   UNK N   1      26.929  20.058   4.770  0.00  0.00     0.164 C 
HETATM   24  O   UNK N   1      27.597  19.553   3.884  0.00  0.00    -0.648 OA
BRANCH  23  25
HETATM   25  O   UNK N   1      25.671  20.462   4.521  0.00  0.00    -0.775 OA
HETATM   26  H   UNK N   1      25.413  20.680   3.646  0.00  0.00     0.167 HD
ENDBRANCH  23  25
ENDBRANCH  22  23
ENDBRANCH  21  22
ENDBRANCH  18  21
ENDBRANCH  12  15
ENDBRANCH   7   8
ENDBRANCH   4   7
BRANCH   3  27
HETATM   27  C   UNK N   1      35.119  12.836  12.369  0.00  0.00     0.153 A 
HETATM   28  N   UNK N   1      34.282  11.773  12.458  0.00  0.00    -0.344 N 
HETATM   29  C   UNK N   1      34.658  10.916  13.468  0.00  0.00     0.116 A 
ATOM     30  HN  UNK N   1      33.475  11.627  11.850  1.00  0.00     0.167 HD
HETATM   31  C   UNK N   1      35.804  11.329  14.171  0.00  0.00     0.066 A 
HETATM   32  S   UNK N   1      36.302  12.735  13.495  0.00  0.00    -0.045 SA
BRANCH  31  33
HETATM   33  S   UNK N   1      36.823  10.312  15.221  0.00  0.00    -0.064 SA
BRANCH  33  34
HETATM   34  C   UNK N   1      36.212  11.161  16.687  0.00  0.00     0.074 A 
HETATM   35  C   UNK N   1      36.107  10.492  17.918  0.00  0.00     0.037 A 
HETATM   36  C   UNK N   1      35.538  11.148  19.009  0.00  0.00     0.004 A 
HETATM   37  C   UNK N   1      35.089  12.461  18.868  0.00  0.00     0.017 A 
HETATM   38  C   UNK N   1      35.221  13.100  17.633  0.00  0.00     0.089 A 
HETATM   39  N   UNK N   1      35.765  12.440  16.575  0.00  0.00    -0.360 N 
ATOM     40  HN  UNK N   1      35.841  12.917  15.676  1.00  0.00     0.166 HD
ENDBRANCH  33  34
ENDBRANCH  31  33
ENDBRANCH   3  27
TORSDOF 10
ENDMDL
MODEL 9
REMARK VINA RESULT:      -7.3      4.813     12.887
REMARK  10 active torsions:
REMARK  status: ('A' for Active; 'I' for Inactive)
REMARK       I    between atoms: C_2  and  N_18 
REMARK       I    between atoms: C_2  and  N_3 
REMARK    1  A    between atoms: N_3  and  C_4 
REMARK    2  A    between atoms: C_6  and  S_7 
REMARK    3  A    between atoms: S_7  and  C_8 
REMARK    4  A    between atoms: N_18  and  C_19 
REMARK    5  A    between atoms: C_19  and  C_20 
REMARK    6  A    between atoms: C_25  and  C_26 
REMARK    7  A    between atoms: C_31  and  O_32 
REMARK    8  A    between atoms: O_32  and  C_33 
REMARK    9  A    between atoms: C_33  and  C_34 
REMARK   10  A    between atoms: C_34  and  O_35 
ROOT
HETATM    1  O   UNK N   1      36.795  16.140  10.638  0.00  0.00    -0.247 OA
HETATM    2  C   UNK N   1      35.768  15.575  10.288  0.00  0.00     0.322 C 
HETATM    3  N   UNK N   1      35.179  14.640  11.069  0.00  0.00    -0.289 N 
HETATM    4  N   UNK N   1      35.168  15.923   9.137  0.00  0.00    -0.336 N 
HETATM    5  H   UNK N   1      34.353  14.225  10.729  0.00  0.00     0.172 HD
HETATM    6  H   UNK N   1      35.525  16.659   8.589  0.00  0.00     0.164 HD
ENDROOT
BRANCH   4   7
HETATM    7  C   UNK N   1      33.992  15.199   8.716  0.00  0.00     0.201 C 
BRANCH   7   8
HETATM    8  C   UNK N   1      32.846  16.148   8.724  0.00  0.00     0.099 A 
HETATM    9  N   UNK N   1      32.931  17.468   8.987  0.00  0.00    -0.352 N 
HETATM   10  C   UNK N   1      31.758  17.985   8.560  0.00  0.00     0.119 A 
HETATM   11  H   UNK N   1      33.684  17.950   9.399  0.00  0.00     0.166 HD
HETATM   12  C   UNK N   1      30.992  16.940   8.076  0.00  0.00     0.059 A 
HETATM   13  N   UNK N   1      31.680  15.805   8.182  0.00  0.00    -0.343 N 
ATOM     14  HN  UNK N   1      31.378  14.870   7.906  1.00  0.00     0.167 HD
BRANCH  12  15
HETATM   15  C   UNK N   1      29.952  17.009   7.063  0.00  0.00    -0.008 A 
HETATM   16  C   UNK N   1      28.714  17.529   7.439  0.00  0.00     0.016 A 
HETATM   17  C   UNK N   1      27.950  18.220   6.500  0.00  0.00     0.037 A 
HETATM   18  C   UNK N   1      28.426  18.390   5.185  0.00  0.00     0.069 A 
HETATM   19  C   UNK N   1      29.603  17.764   4.790  0.00  0.00     0.037 A 
HETATM   20  C   UNK N   1      30.376  17.099   5.729  0.00  0.00     0.016 A 
BRANCH  18  21
HETATM   21  O   UNK N   1      27.807  19.210   4.306  0.00  0.00    -0.341 OA
BRANCH  21  22
HETATM   22  C   UNK N   1      26.532  18.985   3.841  0.00  0.00     0.285 C 
BRANCH  22  23
HETATM   23  C   UNK N   1      25.665  20.133   4.205  0.00  0.00     0.164 C 
HETATM   24  O   UNK N   1      25.942  20.817   5.176  0.00  0.00    -0.648 OA
BRANCH  23  25
HETATM   25  O   UNK N   1      24.599  20.439   3.445  0.00  0.00    -0.775 OA
HETATM   26  H   UNK N   1      23.799  20.715   3.849  0.00  0.00     0.167 HD
ENDBRANCH  23  25
ENDBRANCH  22  23
ENDBRANCH  21  22
ENDBRANCH  18  21
ENDBRANCH  12  15
ENDBRANCH   7   8
ENDBRANCH   4   7
BRANCH   3  27
HETATM   27  C   UNK N   1      35.641  14.208  12.317  0.00  0.00     0.153 A 
HETATM   28  N   UNK N   1      36.408  14.934  13.169  0.00  0.00    -0.344 N 
HETATM   29  C   UNK N   1      36.519  14.319  14.396  0.00  0.00     0.116 A 
ATOM     30  HN  UNK N   1      36.845  15.824  12.931  1.00  0.00     0.167 HD
HETATM   31  C   UNK N   1      35.828  13.097  14.489  0.00  0.00     0.066 A 
HETATM   32  S   UNK N   1      35.102  12.845  13.042  0.00  0.00    -0.045 SA
BRANCH  31  33
HETATM   33  S   UNK N   1      35.384  12.246  15.990  0.00  0.00    -0.064 SA
BRANCH  33  34
HETATM   34  C   UNK N   1      36.116  10.719  15.376  0.00  0.00     0.074 A 
HETATM   35  C   UNK N   1      37.489  10.643  15.084  0.00  0.00     0.037 A 
HETATM   36  C   UNK N   1      38.007   9.478  14.517  0.00  0.00     0.004 A 
HETATM   37  C   UNK N   1      37.159   8.402  14.256  0.00  0.00     0.017 A 
HETATM   38  C   UNK N   1      35.803   8.508  14.571  0.00  0.00     0.089 A 
HETATM   39  N   UNK N   1      35.311   9.656  15.110  0.00  0.00    -0.360 N 
ATOM     40  HN  UNK N   1      34.315   9.722  15.321  1.00  0.00     0.166 HD
ENDBRANCH  33  34
ENDBRANCH  31  33
ENDBRANCH   3  27
TORSDOF 10
ENDMDL
