MODEL 1
REMARK VINA RESULT:      -4.1      0.000      0.000
REMARK  6 active torsions:
REMARK  status: ('A' for Active; 'I' for Inactive)
REMARK    1  A    between atoms: C_2  and  O_3 
REMARK    2  A    between atoms: O_3  and  P_4 
REMARK    3  A    between atoms: P_4  and  N_6 
REMARK    4  A    between atoms: P_4  and  O_11 
REMARK    5  A    between atoms: N_6  and  C_7 
REMARK    6  A    between atoms: N_6  and  C_9 
ROOT
HETATM    1  P   UNK N   1      20.610  14.622   8.795  0.00  0.00     0.323 P 
HETATM    2  O   UNK N   1      20.352  13.740   7.539  0.00  0.00    -0.641 OA
ENDROOT
BRANCH   1   3
HETATM    3  O   UNK N   1      20.454  13.044   9.509  0.00  0.00    -0.307 OA
BRANCH   3   4
HETATM    4  C   UNK N   1      21.764  12.580   9.665  0.00  0.00     0.175 C 
HETATM    5  C   UNK N   1      21.998  12.205  11.114  0.00  0.00     0.034 C 
ENDBRANCH   3   4
ENDBRANCH   1   3
BRANCH   1   6
HETATM    6  N   UNK N   1      19.275  15.679   8.123  0.00  0.00    -0.223 NA
BRANCH   6   7
HETATM    7  C   UNK N   1      19.694  16.185   6.815  0.00  0.00     0.097 C 
HETATM    8  C   UNK N   1      20.834  17.174   6.972  0.00  0.00     0.021 C 
ENDBRANCH   6   7
BRANCH   6   9
HETATM    9  C   UNK N   1      19.170  16.879   8.959  0.00  0.00     0.097 C 
HETATM   10  C   UNK N   1      17.716  17.297   9.105  0.00  0.00     0.021 C 
ENDBRANCH   6   9
ENDBRANCH   1   6
BRANCH   1  11
HETATM   11  O   UNK N   1      19.208  14.361   9.802  0.00  0.00    -0.317 OA
HETATM   12  H   UNK N   1      18.297  14.659   9.939  0.00  0.00     0.221 HD
ENDBRANCH   1  11
TORSDOF 6
ENDMDL
MODEL 2
REMARK VINA RESULT:      -4.0      1.542      4.848
REMARK  6 active torsions:
REMARK  status: ('A' for Active; 'I' for Inactive)
REMARK    1  A    between atoms: C_2  and  O_3 
REMARK    2  A    between atoms: O_3  and  P_4 
REMARK    3  A    between atoms: P_4  and  N_6 
REMARK    4  A    between atoms: P_4  and  O_11 
REMARK    5  A    between atoms: N_6  and  C_7 
REMARK    6  A    between atoms: N_6  and  C_9 
ROOT
HETATM    1  P   UNK N   1      20.554  14.651   9.043  0.00  0.00     0.323 P 
HETATM    2  O   UNK N   1      19.268  14.312   9.850  0.00  0.00    -0.641 OA
ENDROOT
BRANCH   1   3
HETATM    3  O   UNK N   1      19.334  15.454   8.099  0.00  0.00    -0.307 OA
BRANCH   3   4
HETATM    4  C   UNK N   1      19.871  16.709   7.794  0.00  0.00     0.175 C 
HETATM    5  C   UNK N   1      19.493  17.697   8.878  0.00  0.00     0.034 C 
ENDBRANCH   3   4
ENDBRANCH   1   3
BRANCH   1   6
HETATM    6  N   UNK N   1      20.888  12.854   9.138  0.00  0.00    -0.223 NA
BRANCH   6   7
HETATM    7  C   UNK N   1      21.902  12.621  10.167  0.00  0.00     0.097 C 
HETATM    8  C   UNK N   1      21.251  12.125  11.446  0.00  0.00     0.021 C 
ENDBRANCH   6   7
BRANCH   6   9
HETATM    9  C   UNK N   1      21.536  12.437   7.890  0.00  0.00     0.097 C 
HETATM   10  C   UNK N   1      22.891  11.814   8.179  0.00  0.00     0.021 C 
ENDBRANCH   6   9
ENDBRANCH   1   6
BRANCH   1  11
HETATM   11  O   UNK N   1      20.250  14.000   7.452  0.00  0.00    -0.317 OA
HETATM   12  H   UNK N   1      20.476  14.122   6.518  0.00  0.00     0.221 HD
ENDBRANCH   1  11
TORSDOF 6
ENDMDL
MODEL 3
REMARK VINA RESULT:      -3.9     17.199     18.232
REMARK  6 active torsions:
REMARK  status: ('A' for Active; 'I' for Inactive)
REMARK    1  A    between atoms: C_2  and  O_3 
REMARK    2  A    between atoms: O_3  and  P_4 
REMARK    3  A    between atoms: P_4  and  N_6 
REMARK    4  A    between atoms: P_4  and  O_11 
REMARK    5  A    between atoms: N_6  and  C_7 
REMARK    6  A    between atoms: N_6  and  C_9 
ROOT
HETATM    1  P   UNK N   1      30.293  22.545  -2.778  0.00  0.00     0.323 P 
HETATM    2  O   UNK N   1      30.357  23.032  -1.301  0.00  0.00    -0.641 OA
ENDROOT
BRANCH   1   3
HETATM    3  O   UNK N   1      31.890  22.033  -2.315  0.00  0.00    -0.307 OA
BRANCH   3   4
HETATM    4  C   UNK N   1      32.464  21.518  -3.482  0.00  0.00     0.175 C 
HETATM    5  C   UNK N   1      33.716  20.742  -3.128  0.00  0.00     0.034 C 
ENDBRANCH   3   4
ENDBRANCH   1   3
BRANCH   1   6
HETATM    6  N   UNK N   1      29.729  24.248  -3.141  0.00  0.00    -0.223 NA
BRANCH   6   7
HETATM    7  C   UNK N   1      28.711  24.189  -4.190  0.00  0.00     0.097 C 
HETATM    8  C   UNK N   1      27.323  24.297  -3.585  0.00  0.00     0.021 C 
ENDBRANCH   6   7
BRANCH   6   9
HETATM    9  C   UNK N   1      30.840  24.982  -3.754  0.00  0.00     0.097 C 
HETATM   10  C   UNK N   1      30.653  26.479  -3.564  0.00  0.00     0.021 C 
ENDBRANCH   6   9
ENDBRANCH   1   6
BRANCH   1  11
HETATM   11  O   UNK N   1      31.625  23.358  -3.559  0.00  0.00    -0.317 OA
HETATM   12  H   UNK N   1      32.127  24.187  -3.552  0.00  0.00     0.221 HD
ENDBRANCH   1  11
TORSDOF 6
ENDMDL
MODEL 4
REMARK VINA RESULT:      -3.9     15.033     16.222
REMARK  6 active torsions:
REMARK  status: ('A' for Active; 'I' for Inactive)
REMARK    1  A    between atoms: C_2  and  O_3 
REMARK    2  A    between atoms: O_3  and  P_4 
REMARK    3  A    between atoms: P_4  and  N_6 
REMARK    4  A    between atoms: P_4  and  O_11 
REMARK    5  A    between atoms: N_6  and  C_7 
REMARK    6  A    between atoms: N_6  and  C_9 
ROOT
HETATM    1  P   UNK N   1      35.278  15.971  11.234  0.00  0.00     0.323 P 
HETATM    2  O   UNK N   1      34.613  15.405   9.946  0.00  0.00    -0.641 OA
ENDROOT
BRANCH   1   3
HETATM    3  O   UNK N   1      35.571  17.258  10.101  0.00  0.00    -0.307 OA
BRANCH   3   4
HETATM    4  C   UNK N   1      34.561  17.138   9.140  0.00  0.00     0.175 C 
HETATM    5  C   UNK N   1      34.573  18.359   8.242  0.00  0.00     0.034 C 
ENDBRANCH   3   4
ENDBRANCH   1   3
BRANCH   1   6
HETATM    6  N   UNK N   1      36.115  14.346  11.317  0.00  0.00    -0.223 NA
BRANCH   6   7
HETATM    7  C   UNK N   1      35.651  13.523  10.200  0.00  0.00     0.097 C 
HETATM    8  C   UNK N   1      35.917  12.054  10.481  0.00  0.00     0.021 C 
ENDBRANCH   6   7
BRANCH   6   9
HETATM    9  C   UNK N   1      35.637  13.640  12.511  0.00  0.00     0.097 C 
HETATM   10  C   UNK N   1      36.290  14.210  13.759  0.00  0.00     0.021 C 
ENDBRANCH   6   9
ENDBRANCH   1   6
BRANCH   1  11
HETATM   11  O   UNK N   1      36.941  16.241  10.779  0.00  0.00    -0.317 OA
HETATM   12  H   UNK N   1      37.846  16.204  11.125  0.00  0.00     0.221 HD
ENDBRANCH   1  11
TORSDOF 6
ENDMDL
MODEL 5
REMARK VINA RESULT:      -3.9      3.214      5.060
REMARK  6 active torsions:
REMARK  status: ('A' for Active; 'I' for Inactive)
REMARK    1  A    between atoms: C_2  and  O_3 
REMARK    2  A    between atoms: O_3  and  P_4 
REMARK    3  A    between atoms: P_4  and  N_6 
REMARK    4  A    between atoms: P_4  and  O_11 
REMARK    5  A    between atoms: N_6  and  C_7 
REMARK    6  A    between atoms: N_6  and  C_9 
ROOT
HETATM    1  P   UNK N   1      20.693  17.358   6.747  0.00  0.00     0.323 P 
HETATM    2  O   UNK N   1      22.141  16.816   6.925  0.00  0.00    -0.641 OA
ENDROOT
BRANCH   1   3
HETATM    3  O   UNK N   1      21.629  18.638   6.033  0.00  0.00    -0.307 OA
BRANCH   3   4
HETATM    4  C   UNK N   1      21.659  18.353   4.664  0.00  0.00     0.175 C 
HETATM    5  C   UNK N   1      21.011  19.488   3.898  0.00  0.00     0.034 C 
ENDBRANCH   3   4
ENDBRANCH   1   3
BRANCH   1   6
HETATM    6  N   UNK N   1      20.506  16.969   8.526  0.00  0.00    -0.223 NA
BRANCH   6   7
HETATM    7  C   UNK N   1      19.959  15.618   8.655  0.00  0.00     0.097 C 
HETATM    8  C   UNK N   1      20.944  14.718   9.379  0.00  0.00     0.021 C 
ENDBRANCH   6   7
BRANCH   6   9
HETATM    9  C   UNK N   1      19.464  17.838   9.082  0.00  0.00     0.097 C 
HETATM   10  C   UNK N   1      18.128  17.113   9.103  0.00  0.00     0.021 C 
ENDBRANCH   6   9
ENDBRANCH   1   6
BRANCH   1  11
HETATM   11  O   UNK N   1      20.694  18.883   7.595  0.00  0.00    -0.317 OA
HETATM   12  H   UNK N   1      20.735  19.265   8.484  0.00  0.00     0.221 HD
ENDBRANCH   1  11
TORSDOF 6
ENDMDL
MODEL 6
REMARK VINA RESULT:      -3.8     17.540     19.214
REMARK  6 active torsions:
REMARK  status: ('A' for Active; 'I' for Inactive)
REMARK    1  A    between atoms: C_2  and  O_3 
REMARK    2  A    between atoms: O_3  and  P_4 
REMARK    3  A    between atoms: P_4  and  N_6 
REMARK    4  A    between atoms: P_4  and  O_11 
REMARK    5  A    between atoms: N_6  and  C_7 
REMARK    6  A    between atoms: N_6  and  C_9 
ROOT
HETATM    1  P   UNK N   1      31.912  21.381  -3.448  0.00  0.00     0.323 P 
HETATM    2  O   UNK N   1      32.341  22.797  -3.932  0.00  0.00    -0.641 OA
ENDROOT
BRANCH   1   3
HETATM    3  O   UNK N   1      31.449  22.364  -2.090  0.00  0.00    -0.307 OA
BRANCH   3   4
HETATM    4  C   UNK N   1      30.533  23.290  -2.602  0.00  0.00     0.175 C 
HETATM    5  C   UNK N   1      29.145  22.960  -2.092  0.00  0.00     0.034 C 
ENDBRANCH   3   4
ENDBRANCH   1   3
BRANCH   1   6
HETATM    6  N   UNK N   1      33.603  20.882  -3.939  0.00  0.00    -0.223 NA
BRANCH   6   7
HETATM    7  C   UNK N   1      34.166  21.921  -4.802  0.00  0.00     0.097 C 
HETATM    8  C   UNK N   1      35.683  21.884  -4.752  0.00  0.00     0.021 C 
ENDBRANCH   6   7
BRANCH   6   9
HETATM    9  C   UNK N   1      33.504  19.704  -4.808  0.00  0.00     0.097 C 
HETATM   10  C   UNK N   1      34.149  18.500  -4.142  0.00  0.00     0.021 C 
ENDBRANCH   6   9
ENDBRANCH   1   6
BRANCH   1  11
HETATM   11  O   UNK N   1      32.811  21.138  -1.972  0.00  0.00    -0.317 OA
HETATM   12  H   UNK N   1      33.096  21.592  -1.165  0.00  0.00     0.221 HD
ENDBRANCH   1  11
TORSDOF 6
ENDMDL
MODEL 7
REMARK VINA RESULT:      -3.8     24.508     25.597
REMARK  6 active torsions:
REMARK  status: ('A' for Active; 'I' for Inactive)
REMARK    1  A    between atoms: C_2  and  O_3 
REMARK    2  A    between atoms: O_3  and  P_4 
REMARK    3  A    between atoms: P_4  and  N_6 
REMARK    4  A    between atoms: P_4  and  O_11 
REMARK    5  A    between atoms: N_6  and  C_7 
REMARK    6  A    between atoms: N_6  and  C_9 
ROOT
HETATM    1  P   UNK N   1      44.073  22.627   3.152  0.00  0.00     0.323 P 
HETATM    2  O   UNK N   1      43.898  22.985   4.657  0.00  0.00    -0.641 OA
ENDROOT
BRANCH   1   3
HETATM    3  O   UNK N   1      44.397  24.336   3.140  0.00  0.00    -0.307 OA
BRANCH   3   4
HETATM    4  C   UNK N   1      45.381  24.518   2.163  0.00  0.00     0.175 C 
HETATM    5  C   UNK N   1      45.846  25.960   2.177  0.00  0.00     0.034 C 
ENDBRANCH   3   4
ENDBRANCH   1   3
BRANCH   1   6
HETATM    6  N   UNK N   1      42.450  21.800   3.329  0.00  0.00    -0.223 NA
BRANCH   6   7
HETATM    7  C   UNK N   1      42.642  20.357   3.184  0.00  0.00     0.097 C 
HETATM    8  C   UNK N   1      44.112  20.039   2.974  0.00  0.00     0.021 C 
ENDBRANCH   6   7
BRANCH   6   9
HETATM    9  C   UNK N   1      41.614  22.172   2.184  0.00  0.00     0.097 C 
HETATM   10  C   UNK N   1      40.314  21.386   2.200  0.00  0.00     0.021 C 
ENDBRANCH   6   9
ENDBRANCH   1   6
BRANCH   1  11
HETATM   11  O   UNK N   1      42.907  23.632   2.330  0.00  0.00    -0.317 OA
HETATM   12  H   UNK N   1      41.973  23.671   2.076  0.00  0.00     0.221 HD
ENDBRANCH   1  11
TORSDOF 6
ENDMDL
MODEL 8
REMARK VINA RESULT:      -3.8     15.493     16.466
REMARK  6 active torsions:
REMARK  status: ('A' for Active; 'I' for Inactive)
REMARK    1  A    between atoms: C_2  and  O_3 
REMARK    2  A    between atoms: O_3  and  P_4 
REMARK    3  A    between atoms: P_4  and  N_6 
REMARK    4  A    between atoms: P_4  and  O_11 
REMARK    5  A    between atoms: N_6  and  C_7 
REMARK    6  A    between atoms: N_6  and  C_9 
ROOT
HETATM    1  P   UNK N   1      35.529  12.521  12.788  0.00  0.00     0.323 P 
HETATM    2  O   UNK N   1      36.647  13.399  13.422  0.00  0.00    -0.641 OA
ENDROOT
BRANCH   1   3
HETATM    3  O   UNK N   1      35.881  13.621  11.488  0.00  0.00    -0.307 OA
BRANCH   3   4
HETATM    4  C   UNK N   1      35.792  14.898  12.051  0.00  0.00     0.175 C 
HETATM    5  C   UNK N   1      36.116  15.938  10.999  0.00  0.00     0.034 C 
ENDBRANCH   3   4
ENDBRANCH   1   3
BRANCH   1   6
HETATM    6  N   UNK N   1      34.607  12.874  14.330  0.00  0.00    -0.223 NA
BRANCH   6   7
HETATM    7  C   UNK N   1      35.558  13.309  15.353  0.00  0.00     0.097 C 
HETATM    8  C   UNK N   1      35.000  13.040  16.739  0.00  0.00     0.021 C 
ENDBRANCH   6   7
BRANCH   6   9
HETATM    9  C   UNK N   1      34.071  11.611  14.847  0.00  0.00     0.097 C 
HETATM   10  C   UNK N   1      33.949  10.589  13.728  0.00  0.00     0.021 C 
ENDBRANCH   6   9
ENDBRANCH   1   6
BRANCH   1  11
HETATM   11  O   UNK N   1      34.272  13.656  12.371  0.00  0.00    -0.317 OA
HETATM   12  H   UNK N   1      33.352  13.889  12.569  0.00  0.00     0.221 HD
ENDBRANCH   1  11
TORSDOF 6
ENDMDL
MODEL 9
REMARK VINA RESULT:      -3.7     15.935     16.741
REMARK  6 active torsions:
REMARK  status: ('A' for Active; 'I' for Inactive)
REMARK    1  A    between atoms: C_2  and  O_3 
REMARK    2  A    between atoms: O_3  and  P_4 
REMARK    3  A    between atoms: P_4  and  N_6 
REMARK    4  A    between atoms: P_4  and  O_11 
REMARK    5  A    between atoms: N_6  and  C_7 
REMARK    6  A    between atoms: N_6  and  C_9 
ROOT
HETATM    1  P   UNK N   1      35.803  14.210  12.880  0.00  0.00     0.323 P 
HETATM    2  O   UNK N   1      36.768  13.127  13.444  0.00  0.00    -0.641 OA
ENDROOT
BRANCH   1   3
HETATM    3  O   UNK N   1      34.794  13.432  14.064  0.00  0.00    -0.307 OA
BRANCH   3   4
HETATM    4  C   UNK N   1      35.607  13.269  15.191  0.00  0.00     0.175 C 
HETATM    5  C   UNK N   1      34.739  13.008  16.405  0.00  0.00     0.034 C 
ENDBRANCH   3   4
ENDBRANCH   1   3
BRANCH   1   6
HETATM    6  N   UNK N   1      36.302  13.565  11.242  0.00  0.00    -0.223 NA
BRANCH   6   7
HETATM    7  C   UNK N   1      37.560  12.832  11.391  0.00  0.00     0.097 C 
HETATM    8  C   UNK N   1      38.529  13.219  10.288  0.00  0.00     0.021 C 
ENDBRANCH   6   7
BRANCH   6   9
HETATM    9  C   UNK N   1      36.645  14.703  10.382  0.00  0.00     0.097 C 
HETATM   10  C   UNK N   1      36.105  15.995  10.974  0.00  0.00     0.021 C 
ENDBRANCH   6   9
ENDBRANCH   1   6
BRANCH   1  11
HETATM   11  O   UNK N   1      34.446  13.302  12.265  0.00  0.00    -0.317 OA
HETATM   12  H   UNK N   1      34.150  12.793  11.495  0.00  0.00     0.221 HD
ENDBRANCH   1  11
TORSDOF 6
ENDMDL
