MODEL 1
REMARK VINA RESULT:      -7.4      0.000      0.000
REMARK  5 active torsions:
REMARK  status: ('A' for Active; 'I' for Inactive)
REMARK    1  A    between atoms: C_6  and  C_7 
REMARK    2  A    between atoms: C_10  and  S_11 
REMARK    3  A    between atoms: N_14  and  S_11 
REMARK    4  A    between atoms: C_20  and  C_19 
REMARK       I    between atoms: N_22  and  C_20 
REMARK    5  A    between atoms: N_23  and  N_22 
ROOT
HETATM    1  C   UNK N   1      31.663  17.173   6.947  0.00  0.00     0.019 A 
HETATM    2  C   UNK N   1      30.297  17.217   7.170  0.00  0.00     0.006 A 
HETATM    3  C   UNK N   1      29.235  16.895   6.334  0.00  0.00     0.040 A 
HETATM    4  C   UNK N   1      27.934  17.003   6.830  0.00  0.00     0.080 A 
HETATM    5  C   UNK N   1      27.712  17.437   8.158  0.00  0.00     0.027 A 
HETATM    6  C   UNK N   1      28.807  17.761   8.986  0.00  0.00     0.032 A 
HETATM    7  C   UNK N   1      30.091  17.627   8.453  0.00  0.00     0.044 A 
HETATM    8  N   UNK N   1      31.254  17.852   9.082  0.00  0.00    -0.350 N 
HETATM    9  C   UNK N   1      32.239  17.583   8.181  0.00  0.00     0.115 A 
HETATM   10  H   UNK N   1      31.373  18.152  10.012  0.00  0.00     0.166 HD
ENDROOT
BRANCH   9  11
HETATM   11  C   UNK N   1      33.662  17.752   8.579  0.00  0.00     0.287 C 
HETATM   12  O   UNK N   1      34.415  18.356   7.832  0.00  0.00    -0.264 OA
HETATM   13  N   UNK N   1      34.144  17.232   9.729  0.00  0.00    -0.271 N 
HETATM   14  H   UNK N   1      33.537  16.741  10.329  0.00  0.00     0.189 HD
BRANCH  13  15
HETATM   15  N   UNK N   1      35.479  17.376  10.078  0.00  0.00    -0.342 N 
HETATM   16  H   UNK N   1      36.171  17.607   9.365  0.00  0.00     0.176 HD
HETATM   17  H   UNK N   1      35.768  17.251  11.048  0.00  0.00     0.176 HD
ENDBRANCH  13  15
ENDBRANCH   9  11
BRANCH   1  18
HETATM   18  C   UNK N   1      32.266  16.737   5.639  0.00  0.00    -0.023 A 
HETATM   19  C   UNK N   1      32.967  15.535   5.498  0.00  0.00     0.012 A 
HETATM   20  C   UNK N   1      33.497  15.150   4.263  0.00  0.00     0.001 A 
HETATM   21  C   UNK N   1      33.331  15.967   3.143  0.00  0.00     0.000 A 
HETATM   22  C   UNK N   1      32.633  17.167   3.261  0.00  0.00     0.001 A 
HETATM   23  C   UNK N   1      32.106  17.544   4.497  0.00  0.00     0.012 A 
ENDBRANCH   1  18
BRANCH   4  24
HETATM   24  S   UNK N   1      26.587  16.487   5.778  0.00  0.00     0.256 S 
HETATM   25  O   UNK N   1      27.049  15.442   4.751  0.00  0.00    -0.201 OA
HETATM   26  O   UNK N   1      26.083  17.620   4.870  0.00  0.00    -0.201 OA
BRANCH  24  27
HETATM   27  N   UNK N   1      25.138  15.800   6.509  0.00  0.00    -0.324 N 
HETATM   28  H   UNK N   1      25.093  15.572   7.503  0.00  0.00     0.169 HD
HETATM   29  H   UNK N   1      24.322  15.626   5.922  0.00  0.00     0.169 HD
ENDBRANCH  24  27
ENDBRANCH   4  24
TORSDOF 5
ENDMDL
MODEL 2
REMARK VINA RESULT:      -7.1      5.868     10.015
REMARK  5 active torsions:
REMARK  status: ('A' for Active; 'I' for Inactive)
REMARK    1  A    between atoms: C_6  and  C_7 
REMARK    2  A    between atoms: C_10  and  S_11 
REMARK    3  A    between atoms: N_14  and  S_11 
REMARK    4  A    between atoms: C_20  and  C_19 
REMARK       I    between atoms: N_22  and  C_20 
REMARK    5  A    between atoms: N_23  and  N_22 
ROOT
HETATM    1  C   UNK N   1      23.189  18.983   3.980  0.00  0.00     0.019 A 
HETATM    2  C   UNK N   1      24.560  19.029   4.170  0.00  0.00     0.006 A 
HETATM    3  C   UNK N   1      25.396  18.207   4.916  0.00  0.00     0.040 A 
HETATM    4  C   UNK N   1      26.769  18.463   4.910  0.00  0.00     0.080 A 
HETATM    5  C   UNK N   1      27.288  19.544   4.161  0.00  0.00     0.027 A 
HETATM    6  C   UNK N   1      26.418  20.366   3.413  0.00  0.00     0.032 A 
HETATM    7  C   UNK N   1      25.055  20.066   3.438  0.00  0.00     0.044 A 
HETATM    8  N   UNK N   1      24.076  20.702   2.776  0.00  0.00    -0.350 N 
HETATM    9  C   UNK N   1      22.918  20.059   3.090  0.00  0.00     0.115 A 
HETATM   10  H   UNK N   1      24.176  21.478   2.180  0.00  0.00     0.166 HD
ENDROOT
BRANCH   9  11
HETATM   11  C   UNK N   1      21.634  20.541   2.514  0.00  0.00     0.287 C 
HETATM   12  O   UNK N   1      20.751  20.914   3.271  0.00  0.00    -0.264 OA
HETATM   13  N   UNK N   1      21.413  20.549   1.182  0.00  0.00    -0.271 N 
HETATM   14  H   UNK N   1      22.123  20.244   0.572  0.00  0.00     0.189 HD
BRANCH  13  15
HETATM   15  N   UNK N   1      20.202  20.979   0.658  0.00  0.00    -0.342 N 
HETATM   16  H   UNK N   1      19.459  21.295   1.281  0.00  0.00     0.176 HD
HETATM   17  H   UNK N   1      20.055  20.979  -0.351  0.00  0.00     0.176 HD
ENDBRANCH  13  15
ENDBRANCH   9  11
BRANCH   1  18
HETATM   18  C   UNK N   1      22.308  17.944   4.618  0.00  0.00    -0.023 A 
HETATM   19  C   UNK N   1      21.977  16.744   3.980  0.00  0.00     0.012 A 
HETATM   20  C   UNK N   1      21.172  15.790   4.610  0.00  0.00     0.001 A 
HETATM   21  C   UNK N   1      20.684  16.024   5.896  0.00  0.00     0.000 A 
HETATM   22  C   UNK N   1      21.004  17.212   6.551  0.00  0.00     0.001 A 
HETATM   23  C   UNK N   1      21.809  18.159   5.916  0.00  0.00     0.012 A 
ENDBRANCH   1  18
BRANCH   4  24
HETATM   24  S   UNK N   1      27.839  17.336   5.789  0.00  0.00     0.256 S 
HETATM   25  O   UNK N   1      29.277  17.871   5.860  0.00  0.00    -0.201 OA
HETATM   26  O   UNK N   1      28.033  16.007   5.043  0.00  0.00    -0.201 OA
BRANCH  24  27
HETATM   27  N   UNK N   1      27.438  16.883   7.444  0.00  0.00    -0.324 N 
HETATM   28  H   UNK N   1      27.431  17.566   8.203  0.00  0.00     0.169 HD
HETATM   29  H   UNK N   1      27.209  15.911   7.651  0.00  0.00     0.169 HD
ENDBRANCH  24  27
ENDBRANCH   4  24
TORSDOF 5
ENDMDL
MODEL 3
REMARK VINA RESULT:      -7.1      2.020      2.082
REMARK  5 active torsions:
REMARK  status: ('A' for Active; 'I' for Inactive)
REMARK    1  A    between atoms: C_6  and  C_7 
REMARK    2  A    between atoms: C_10  and  S_11 
REMARK    3  A    between atoms: N_14  and  S_11 
REMARK    4  A    between atoms: C_20  and  C_19 
REMARK       I    between atoms: N_22  and  C_20 
REMARK    5  A    between atoms: N_23  and  N_22 
ROOT
HETATM    1  C   UNK N   1      31.216  16.697   7.226  0.00  0.00     0.019 A 
HETATM    2  C   UNK N   1      30.078  17.468   7.387  0.00  0.00     0.006 A 
HETATM    3  C   UNK N   1      29.239  18.048   6.443  0.00  0.00     0.040 A 
HETATM    4  C   UNK N   1      28.123  18.763   6.885  0.00  0.00     0.080 A 
HETATM    5  C   UNK N   1      27.864  18.893   8.269  0.00  0.00     0.027 A 
HETATM    6  C   UNK N   1      28.733  18.297   9.208  0.00  0.00     0.032 A 
HETATM    7  C   UNK N   1      29.829  17.583   8.721  0.00  0.00     0.044 A 
HETATM    8  N   UNK N   1      30.747  16.922   9.443  0.00  0.00    -0.350 N 
HETATM    9  C   UNK N   1      31.613  16.368   8.551  0.00  0.00     0.115 A 
HETATM   10  H   UNK N   1      30.785  16.851  10.424  0.00  0.00     0.166 HD
ENDROOT
BRANCH   9  11
HETATM   11  C   UNK N   1      32.767  15.571   9.049  0.00  0.00     0.287 C 
HETATM   12  O   UNK N   1      33.716  15.379   8.304  0.00  0.00    -0.264 OA
HETATM   13  N   UNK N   1      32.776  15.035  10.288  0.00  0.00    -0.271 N 
HETATM   14  H   UNK N   1      32.010  15.186  10.886  0.00  0.00     0.189 HD
BRANCH  13  15
HETATM   15  N   UNK N   1      33.847  14.274  10.733  0.00  0.00    -0.342 N 
HETATM   16  H   UNK N   1      34.597  14.711  11.269  0.00  0.00     0.176 HD
HETATM   17  H   UNK N   1      33.885  13.276  10.526  0.00  0.00     0.176 HD
ENDBRANCH  13  15
ENDBRANCH   9  11
BRANCH   1  18
HETATM   18  C   UNK N   1      31.780  16.339   5.878  0.00  0.00    -0.023 A 
HETATM   19  C   UNK N   1      31.583  15.085   5.289  0.00  0.00     0.012 A 
HETATM   20  C   UNK N   1      32.103  14.792   4.024  0.00  0.00     0.001 A 
HETATM   21  C   UNK N   1      32.831  15.756   3.325  0.00  0.00     0.000 A 
HETATM   22  C   UNK N   1      33.036  17.013   3.892  0.00  0.00     0.001 A 
HETATM   23  C   UNK N   1      32.512  17.298   5.154  0.00  0.00     0.012 A 
ENDBRANCH   1  18
BRANCH   4  24
HETATM   24  S   UNK N   1      27.000  19.411   5.659  0.00  0.00     0.256 S 
HETATM   25  O   UNK N   1      27.688  19.561   4.293  0.00  0.00    -0.201 OA
HETATM   26  O   UNK N   1      26.575  20.858   5.957  0.00  0.00    -0.201 OA
BRANCH  24  27
HETATM   27  N   UNK N   1      25.500  18.549   5.322  0.00  0.00    -0.324 N 
HETATM   28  H   UNK N   1      25.098  18.516   4.384  0.00  0.00     0.169 HD
HETATM   29  H   UNK N   1      25.021  18.071   6.084  0.00  0.00     0.169 HD
ENDBRANCH  24  27
ENDBRANCH   4  24
TORSDOF 5
ENDMDL
MODEL 4
REMARK VINA RESULT:      -7.0     13.338     15.524
REMARK  5 active torsions:
REMARK  status: ('A' for Active; 'I' for Inactive)
REMARK    1  A    between atoms: C_6  and  C_7 
REMARK    2  A    between atoms: C_10  and  S_11 
REMARK    3  A    between atoms: N_14  and  S_11 
REMARK    4  A    between atoms: C_20  and  C_19 
REMARK       I    between atoms: N_22  and  C_20 
REMARK    5  A    between atoms: N_23  and  N_22 
ROOT
HETATM    1  C   UNK N   1      27.176  24.740  -4.773  0.00  0.00     0.019 A 
HETATM    2  C   UNK N   1      26.822  26.057  -4.531  0.00  0.00     0.006 A 
HETATM    3  C   UNK N   1      27.409  27.014  -3.712  0.00  0.00     0.040 A 
HETATM    4  C   UNK N   1      26.857  28.296  -3.675  0.00  0.00     0.080 A 
HETATM    5  C   UNK N   1      25.718  28.603  -4.455  0.00  0.00     0.027 A 
HETATM    6  C   UNK N   1      25.138  27.613  -5.277  0.00  0.00     0.032 A 
HETATM    7  C   UNK N   1      25.731  26.349  -5.292  0.00  0.00     0.044 A 
HETATM    8  N   UNK N   1      25.354  25.289  -6.024  0.00  0.00    -0.350 N 
HETATM    9  C   UNK N   1      26.223  24.285  -5.725  0.00  0.00     0.115 A 
HETATM   10  H   UNK N   1      24.598  25.247  -6.653  0.00  0.00     0.166 HD
ENDROOT
BRANCH   9  11
HETATM   11  C   UNK N   1      26.060  22.957  -6.375  0.00  0.00     0.287 C 
HETATM   12  O   UNK N   1      27.051  22.380  -6.794  0.00  0.00    -0.264 OA
HETATM   13  N   UNK N   1      24.844  22.392  -6.538  0.00  0.00    -0.271 N 
HETATM   14  H   UNK N   1      24.045  22.860  -6.205  0.00  0.00     0.189 HD
BRANCH  13  15
HETATM   15  N   UNK N   1      24.701  21.164  -7.167  0.00  0.00    -0.342 N 
HETATM   16  H   UNK N   1      25.396  20.432  -7.022  0.00  0.00     0.176 HD
HETATM   17  H   UNK N   1      23.901  20.992  -7.775  0.00  0.00     0.176 HD
ENDBRANCH  13  15
ENDBRANCH   9  11
BRANCH   1  18
HETATM   18  C   UNK N   1      28.359  24.077  -4.121  0.00  0.00    -0.023 A 
HETATM   19  C   UNK N   1      29.606  23.979  -4.747  0.00  0.00     0.012 A 
HETATM   20  C   UNK N   1      30.691  23.374  -4.104  0.00  0.00     0.001 A 
HETATM   21  C   UNK N   1      30.541  22.856  -2.816  0.00  0.00     0.000 A 
HETATM   22  C   UNK N   1      29.308  22.946  -2.173  0.00  0.00     0.001 A 
HETATM   23  C   UNK N   1      28.231  23.552  -2.821  0.00  0.00     0.012 A 
ENDBRANCH   1  18
BRANCH   4  24
HETATM   24  S   UNK N   1      27.684  29.541  -2.699  0.00  0.00     0.256 S 
HETATM   25  O   UNK N   1      27.599  29.224  -1.198  0.00  0.00    -0.201 OA
HETATM   26  O   UNK N   1      26.984  30.907  -2.772  0.00  0.00    -0.201 OA
BRANCH  24  27
HETATM   27  N   UNK N   1      29.388  29.878  -2.998  0.00  0.00    -0.324 N 
HETATM   28  H   UNK N   1      30.124  29.241  -2.691  0.00  0.00     0.169 HD
HETATM   29  H   UNK N   1      29.645  30.733  -3.491  0.00  0.00     0.169 HD
ENDBRANCH  24  27
ENDBRANCH   4  24
TORSDOF 5
ENDMDL
MODEL 5
REMARK VINA RESULT:      -6.8     11.261     13.363
REMARK  5 active torsions:
REMARK  status: ('A' for Active; 'I' for Inactive)
REMARK    1  A    between atoms: C_6  and  C_7 
REMARK    2  A    between atoms: C_10  and  S_11 
REMARK    3  A    between atoms: N_14  and  S_11 
REMARK    4  A    between atoms: C_20  and  C_19 
REMARK       I    between atoms: N_22  and  C_20 
REMARK    5  A    between atoms: N_23  and  N_22 
ROOT
HETATM    1  C   UNK N   1      35.980  11.583  15.653  0.00  0.00     0.019 A 
HETATM    2  C   UNK N   1      35.730  11.743  17.006  0.00  0.00     0.006 A 
HETATM    3  C   UNK N   1      35.781  10.826  18.049  0.00  0.00     0.040 A 
HETATM    4  C   UNK N   1      35.507  11.268  19.346  0.00  0.00     0.080 A 
HETATM    5  C   UNK N   1      35.181  12.623  19.581  0.00  0.00     0.027 A 
HETATM    6  C   UNK N   1      35.134  13.535  18.505  0.00  0.00     0.032 A 
HETATM    7  C   UNK N   1      35.426  13.052  17.228  0.00  0.00     0.044 A 
HETATM    8  N   UNK N   1      35.465  13.759  16.088  0.00  0.00    -0.350 N 
HETATM    9  C   UNK N   1      35.802  12.881  15.102  0.00  0.00     0.115 A 
HETATM   10  H   UNK N   1      35.287  14.721  15.984  0.00  0.00     0.166 HD
ENDROOT
BRANCH   9  11
HETATM   11  C   UNK N   1      35.917  13.364  13.700  0.00  0.00     0.287 C 
HETATM   12  O   UNK N   1      34.899  13.655  13.092  0.00  0.00    -0.264 OA
HETATM   13  N   UNK N   1      37.112  13.461  13.078  0.00  0.00    -0.271 N 
HETATM   14  H   UNK N   1      37.932  13.221  13.567  0.00  0.00     0.189 HD
BRANCH  13  15
HETATM   15  N   UNK N   1      37.204  13.889  11.762  0.00  0.00    -0.342 N 
HETATM   16  H   UNK N   1      37.176  13.211  11.001  0.00  0.00     0.176 HD
HETATM   17  H   UNK N   1      37.299  14.883  11.555  0.00  0.00     0.176 HD
ENDBRANCH  13  15
ENDBRANCH   9  11
BRANCH   1  18
HETATM   18  C   UNK N   1      36.374  10.265  15.044  0.00  0.00    -0.023 A 
HETATM   19  C   UNK N   1      35.433   9.331  14.599  0.00  0.00     0.012 A 
HETATM   20  C   UNK N   1      35.833   8.124  14.017  0.00  0.00     0.001 A 
HETATM   21  C   UNK N   1      37.190   7.833  13.870  0.00  0.00     0.000 A 
HETATM   22  C   UNK N   1      38.145   8.751  14.304  0.00  0.00     0.001 A 
HETATM   23  C   UNK N   1      37.737   9.954  14.882  0.00  0.00     0.012 A 
ENDBRANCH   1  18
BRANCH   4  24
HETATM   24  S   UNK N   1      35.678  10.101  20.685  0.00  0.00     0.256 S 
HETATM   25  O   UNK N   1      36.025   8.698  20.164  0.00  0.00    -0.201 OA
HETATM   26  O   UNK N   1      34.350   9.845  21.415  0.00  0.00    -0.201 OA
BRANCH  24  27
HETATM   27  N   UNK N   1      36.853  10.418  21.960  0.00  0.00    -0.324 N 
HETATM   28  H   UNK N   1      37.648  11.043  21.815  0.00  0.00     0.169 HD
HETATM   29  H   UNK N   1      36.737   9.965  22.866  0.00  0.00     0.169 HD
ENDBRANCH  24  27
ENDBRANCH   4  24
TORSDOF 5
ENDMDL
MODEL 6
REMARK VINA RESULT:      -6.5      2.734      6.110
REMARK  5 active torsions:
REMARK  status: ('A' for Active; 'I' for Inactive)
REMARK    1  A    between atoms: C_6  and  C_7 
REMARK    2  A    between atoms: C_10  and  S_11 
REMARK    3  A    between atoms: N_14  and  S_11 
REMARK    4  A    between atoms: C_20  and  C_19 
REMARK       I    between atoms: N_22  and  C_20 
REMARK    5  A    between atoms: N_23  and  N_22 
ROOT
HETATM    1  C   UNK N   1      28.867  16.294   6.175  0.00  0.00     0.019 A 
HETATM    2  C   UNK N   1      29.861  16.862   6.954  0.00  0.00     0.006 A 
HETATM    3  C   UNK N   1      31.242  16.852   6.805  0.00  0.00     0.040 A 
HETATM    4  C   UNK N   1      32.024  17.542   7.735  0.00  0.00     0.080 A 
HETATM    5  C   UNK N   1      31.411  18.231   8.807  0.00  0.00     0.027 A 
HETATM    6  C   UNK N   1      30.005  18.225   8.938  0.00  0.00     0.032 A 
HETATM    7  C   UNK N   1      29.264  17.532   7.980  0.00  0.00     0.044 A 
HETATM    8  N   UNK N   1      27.928  17.432   7.910  0.00  0.00    -0.350 N 
HETATM    9  C   UNK N   1      27.654  16.676   6.811  0.00  0.00     0.115 A 
HETATM   10  H   UNK N   1      27.274  17.828   8.529  0.00  0.00     0.166 HD
ENDROOT
BRANCH   9  11
HETATM   11  C   UNK N   1      26.240  16.371   6.465  0.00  0.00     0.287 C 
HETATM   12  O   UNK N   1      25.762  15.306   6.823  0.00  0.00    -0.264 OA
HETATM   13  N   UNK N   1      25.485  17.229   5.745  0.00  0.00    -0.271 N 
HETATM   14  H   UNK N   1      25.872  18.085   5.452  0.00  0.00     0.189 HD
BRANCH  13  15
HETATM   15  N   UNK N   1      24.175  16.923   5.408  0.00  0.00    -0.342 N 
HETATM   16  H   UNK N   1      23.404  17.433   5.840  0.00  0.00     0.176 HD
HETATM   17  H   UNK N   1      23.981  16.189   4.727  0.00  0.00     0.176 HD
ENDBRANCH  13  15
ENDBRANCH   9  11
BRANCH   1  18
HETATM   18  C   UNK N   1      29.156  15.495   4.933  0.00  0.00    -0.023 A 
HETATM   19  C   UNK N   1      29.552  14.154   4.977  0.00  0.00     0.012 A 
HETATM   20  C   UNK N   1      29.792  13.434   3.802  0.00  0.00     0.001 A 
HETATM   21  C   UNK N   1      29.637  14.049   2.559  0.00  0.00     0.000 A 
HETATM   22  C   UNK N   1      29.241  15.384   2.493  0.00  0.00     0.001 A 
HETATM   23  C   UNK N   1      29.002  16.095   3.670  0.00  0.00     0.012 A 
ENDBRANCH   1  18
BRANCH   4  24
HETATM   24  S   UNK N   1      33.787  17.606   7.470  0.00  0.00     0.256 S 
HETATM   25  O   UNK N   1      34.122  17.934   6.007  0.00  0.00    -0.201 OA
HETATM   26  O   UNK N   1      34.458  16.234   7.645  0.00  0.00    -0.201 OA
BRANCH  24  27
HETATM   27  N   UNK N   1      34.762  18.722   8.423  0.00  0.00    -0.324 N 
HETATM   28  H   UNK N   1      34.692  18.763   9.440  0.00  0.00     0.169 HD
HETATM   29  H   UNK N   1      35.414  19.344   7.945  0.00  0.00     0.169 HD
ENDBRANCH  24  27
ENDBRANCH   4  24
TORSDOF 5
ENDMDL
MODEL 7
REMARK VINA RESULT:      -6.4      8.503     11.184
REMARK  5 active torsions:
REMARK  status: ('A' for Active; 'I' for Inactive)
REMARK    1  A    between atoms: C_6  and  C_7 
REMARK    2  A    between atoms: C_10  and  S_11 
REMARK    3  A    between atoms: N_14  and  S_11 
REMARK    4  A    between atoms: C_20  and  C_19 
REMARK       I    between atoms: N_22  and  C_20 
REMARK    5  A    between atoms: N_23  and  N_22 
ROOT
HETATM    1  C   UNK N   1      36.337  12.399  14.707  0.00  0.00     0.019 A 
HETATM    2  C   UNK N   1      36.105  12.621  13.360  0.00  0.00     0.006 A 
HETATM    3  C   UNK N   1      35.887  13.803  12.663  0.00  0.00     0.040 A 
HETATM    4  C   UNK N   1      35.707  13.745  11.279  0.00  0.00     0.080 A 
HETATM    5  C   UNK N   1      35.742  12.499  10.610  0.00  0.00     0.027 A 
HETATM    6  C   UNK N   1      35.962  11.312  11.340  0.00  0.00     0.032 A 
HETATM    7  C   UNK N   1      36.149  11.419  12.719  0.00  0.00     0.044 A 
HETATM    8  N   UNK N   1      36.401  10.421  13.580  0.00  0.00    -0.350 N 
HETATM    9  C   UNK N   1      36.520  10.993  14.810  0.00  0.00     0.115 A 
HETATM   10  H   UNK N   1      36.483   9.465  13.365  0.00  0.00     0.166 HD
ENDROOT
BRANCH   9  11
HETATM   11  C   UNK N   1      36.792  10.134  15.994  0.00  0.00     0.287 C 
HETATM   12  O   UNK N   1      37.757   9.387  15.970  0.00  0.00    -0.264 OA
HETATM   13  N   UNK N   1      35.984  10.142  17.076  0.00  0.00    -0.271 N 
HETATM   14  H   UNK N   1      35.203  10.741  17.093  0.00  0.00     0.189 HD
BRANCH  13  15
HETATM   15  N   UNK N   1      36.234   9.319  18.164  0.00  0.00    -0.342 N 
HETATM   16  H   UNK N   1      37.193   9.155  18.471  0.00  0.00     0.176 HD
HETATM   17  H   UNK N   1      35.459   8.878  18.659  0.00  0.00     0.176 HD
ENDBRANCH  13  15
ENDBRANCH   9  11
BRANCH   1  18
HETATM   18  C   UNK N   1      36.386  13.508  15.723  0.00  0.00    -0.023 A 
HETATM   19  C   UNK N   1      37.248  14.603  15.600  0.00  0.00     0.012 A 
HETATM   20  C   UNK N   1      37.253  15.628  16.552  0.00  0.00     0.001 A 
HETATM   21  C   UNK N   1      36.389  15.571  17.647  0.00  0.00     0.000 A 
HETATM   22  C   UNK N   1      35.521  14.491  17.787  0.00  0.00     0.001 A 
HETATM   23  C   UNK N   1      35.520  13.473  16.832  0.00  0.00     0.012 A 
ENDBRANCH   1  18
BRANCH   4  24
HETATM   24  S   UNK N   1      35.533  15.281  10.388  0.00  0.00     0.256 S 
HETATM   25  O   UNK N   1      35.879  15.107   8.901  0.00  0.00    -0.201 OA
HETATM   26  O   UNK N   1      36.560  16.336  10.828  0.00  0.00    -0.201 OA
BRANCH  24  27
HETATM   27  N   UNK N   1      33.980  16.113  10.401  0.00  0.00    -0.324 N 
HETATM   28  H   UNK N   1      33.328  16.024  11.182  0.00  0.00     0.169 HD
HETATM   29  H   UNK N   1      33.725  16.700   9.607  0.00  0.00     0.169 HD
ENDBRANCH  24  27
ENDBRANCH   4  24
TORSDOF 5
ENDMDL
MODEL 8
REMARK VINA RESULT:      -6.4     11.581     13.127
REMARK  5 active torsions:
REMARK  status: ('A' for Active; 'I' for Inactive)
REMARK    1  A    between atoms: C_6  and  C_7 
REMARK    2  A    between atoms: C_10  and  S_11 
REMARK    3  A    between atoms: N_14  and  S_11 
REMARK    4  A    between atoms: C_20  and  C_19 
REMARK       I    between atoms: N_22  and  C_20 
REMARK    5  A    between atoms: N_23  and  N_22 
ROOT
HETATM    1  C   UNK N   1      31.215  20.859  -5.390  0.00  0.00     0.019 A 
HETATM    2  C   UNK N   1      30.528  21.793  -4.633  0.00  0.00     0.006 A 
HETATM    3  C   UNK N   1      29.412  22.562  -4.943  0.00  0.00     0.040 A 
HETATM    4  C   UNK N   1      28.895  23.418  -3.968  0.00  0.00     0.080 A 
HETATM    5  C   UNK N   1      29.505  23.497  -2.695  0.00  0.00     0.027 A 
HETATM    6  C   UNK N   1      30.639  22.708  -2.405  0.00  0.00     0.032 A 
HETATM    7  C   UNK N   1      31.114  21.858  -3.406  0.00  0.00     0.044 A 
HETATM    8  N   UNK N   1      32.151  21.010  -3.320  0.00  0.00    -0.350 N 
HETATM    9  C   UNK N   1      32.238  20.383  -4.525  0.00  0.00     0.115 A 
HETATM   10  H   UNK N   1      32.734  20.869  -2.539  0.00  0.00     0.166 HD
ENDROOT
BRANCH   9  11
HETATM   11  C   UNK N   1      33.311  19.378  -4.752  0.00  0.00     0.287 C 
HETATM   12  O   UNK N   1      33.809  19.288  -5.863  0.00  0.00    -0.264 OA
HETATM   13  N   UNK N   1      33.726  18.549  -3.770  0.00  0.00    -0.271 N 
HETATM   14  H   UNK N   1      33.321  18.619  -2.875  0.00  0.00     0.189 HD
BRANCH  13  15
HETATM   15  N   UNK N   1      34.711  17.600  -4.000  0.00  0.00    -0.342 N 
HETATM   16  H   UNK N   1      35.422  17.765  -4.712  0.00  0.00     0.176 HD
HETATM   17  H   UNK N   1      34.724  16.737  -3.457  0.00  0.00     0.176 HD
ENDBRANCH  13  15
ENDBRANCH   9  11
BRANCH   1  18
HETATM   18  C   UNK N   1      30.830  20.504  -6.801  0.00  0.00    -0.023 A 
HETATM   19  C   UNK N   1      29.863  19.537  -7.095  0.00  0.00     0.012 A 
HETATM   20  C   UNK N   1      29.513  19.246  -8.418  0.00  0.00     0.001 A 
HETATM   21  C   UNK N   1      30.130  19.924  -9.471  0.00  0.00     0.000 A 
HETATM   22  C   UNK N   1      31.094  20.892  -9.199  0.00  0.00     0.001 A 
HETATM   23  C   UNK N   1      31.436  21.178  -7.877  0.00  0.00     0.012 A 
ENDBRANCH   1  18
BRANCH   4  24
HETATM   24  S   UNK N   1      27.402  24.320  -4.346  0.00  0.00     0.256 S 
HETATM   25  O   UNK N   1      27.683  25.821  -4.514  0.00  0.00    -0.201 OA
HETATM   26  O   UNK N   1      26.401  24.316  -3.181  0.00  0.00    -0.201 OA
BRANCH  24  27
HETATM   27  N   UNK N   1      26.460  23.870  -5.766  0.00  0.00    -0.324 N 
HETATM   28  H   UNK N   1      26.494  22.928  -6.157  0.00  0.00     0.169 HD
HETATM   29  H   UNK N   1      25.865  24.570  -6.209  0.00  0.00     0.169 HD
ENDBRANCH  24  27
ENDBRANCH   4  24
TORSDOF 5
ENDMDL
MODEL 9
REMARK VINA RESULT:      -6.2     12.501     13.895
REMARK  5 active torsions:
REMARK  status: ('A' for Active; 'I' for Inactive)
REMARK    1  A    between atoms: C_6  and  C_7 
REMARK    2  A    between atoms: C_10  and  S_11 
REMARK    3  A    between atoms: N_14  and  S_11 
REMARK    4  A    between atoms: C_20  and  C_19 
REMARK       I    between atoms: N_22  and  C_20 
REMARK    5  A    between atoms: N_23  and  N_22 
ROOT
HETATM    1  C   UNK N   1      30.512  21.260  -5.992  0.00  0.00     0.019 A 
HETATM    2  C   UNK N   1      29.566  22.196  -5.610  0.00  0.00     0.006 A 
HETATM    3  C   UNK N   1      28.412  22.629  -6.253  0.00  0.00     0.040 A 
HETATM    4  C   UNK N   1      27.607  23.579  -5.621  0.00  0.00     0.080 A 
HETATM    5  C   UNK N   1      27.970  24.088  -4.353  0.00  0.00     0.027 A 
HETATM    6  C   UNK N   1      29.148  23.636  -3.722  0.00  0.00     0.032 A 
HETATM    7  C   UNK N   1      29.917  22.677  -4.385  0.00  0.00     0.044 A 
HETATM    8  N   UNK N   1      31.045  22.100  -3.943  0.00  0.00    -0.350 N 
HETATM    9  C   UNK N   1      31.434  21.225  -4.911  0.00  0.00     0.115 A 
HETATM   10  H   UNK N   1      31.500  22.274  -3.089  0.00  0.00     0.166 HD
ENDROOT
BRANCH   9  11
HETATM   11  C   UNK N   1      32.676  20.428  -4.721  0.00  0.00     0.287 C 
HETATM   12  O   UNK N   1      33.712  20.820  -5.235  0.00  0.00    -0.264 OA
HETATM   13  N   UNK N   1      32.678  19.274  -4.020  0.00  0.00    -0.271 N 
HETATM   14  H   UNK N   1      31.842  18.956  -3.609  0.00  0.00     0.189 HD
BRANCH  13  15
HETATM   15  N   UNK N   1      33.838  18.527  -3.869  0.00  0.00    -0.342 N 
HETATM   16  H   UNK N   1      33.782  17.551  -3.578  0.00  0.00     0.176 HD
HETATM   17  H   UNK N   1      34.746  18.953  -4.051  0.00  0.00     0.176 HD
ENDBRANCH  13  15
ENDBRANCH   9  11
BRANCH   1  18
HETATM   18  C   UNK N   1      30.435  20.499  -7.288  0.00  0.00    -0.023 A 
HETATM   19  C   UNK N   1      31.061  20.941  -8.458  0.00  0.00     0.012 A 
HETATM   20  C   UNK N   1      30.988  20.198  -9.641  0.00  0.00     0.001 A 
HETATM   21  C   UNK N   1      30.282  18.994  -9.669  0.00  0.00     0.000 A 
HETATM   22  C   UNK N   1      29.654  18.534  -8.514  0.00  0.00     0.001 A 
HETATM   23  C   UNK N   1      29.733  19.280  -7.337  0.00  0.00     0.012 A 
ENDBRANCH   1  18
BRANCH   4  24
HETATM   24  S   UNK N   1      26.077  24.045  -6.413  0.00  0.00     0.256 S 
HETATM   25  O   UNK N   1      25.116  22.852  -6.520  0.00  0.00    -0.201 OA
HETATM   26  O   UNK N   1      26.271  24.425  -7.889  0.00  0.00    -0.201 OA
BRANCH  24  27
HETATM   27  N   UNK N   1      25.112  25.348  -5.723  0.00  0.00    -0.324 N 
HETATM   28  H   UNK N   1      24.694  26.075  -6.306  0.00  0.00     0.169 HD
HETATM   29  H   UNK N   1      24.967  25.378  -4.714  0.00  0.00     0.169 HD
ENDBRANCH  24  27
ENDBRANCH   4  24
TORSDOF 5
ENDMDL
