MODEL 1
REMARK VINA RESULT:      -7.1      0.000      0.000
REMARK  4 active torsions:
REMARK  status: ('A' for Active; 'I' for Inactive)
REMARK    1  A    between atoms: C_4  and  O_5 
REMARK    2  A    between atoms: C_8  and  O_9 
REMARK    3  A    between atoms: C_17  and  O_18 
REMARK    4  A    between atoms: C_19  and  O_20 
ROOT
HETATM    1  O   UNK N   1      29.223  21.860  -7.237  0.00  0.00    -0.286 OA
HETATM    2  C   UNK N   1      29.040  22.381  -6.145  0.00  0.00     0.197 A 
HETATM    3  C   UNK N   1      27.880  23.283  -5.924  0.00  0.00     0.065 A 
HETATM    4  C   UNK N   1      26.966  23.557  -6.968  0.00  0.00     0.081 A 
HETATM    5  C   UNK N   1      25.884  24.403  -6.749  0.00  0.00     0.040 A 
HETATM    6  C   UNK N   1      25.689  24.988  -5.503  0.00  0.00     0.040 A 
HETATM    7  C   UNK N   1      26.573  24.736  -4.456  0.00  0.00     0.081 A 
HETATM    8  C   UNK N   1      27.683  23.879  -4.652  0.00  0.00     0.065 A 
HETATM    9  C   UNK N   1      28.648  23.591  -3.546  0.00  0.00     0.200 A 
HETATM   10  O   UNK N   1      28.484  24.102  -2.446  0.00  0.00    -0.286 OA
HETATM   11  C   UNK N   1      29.986  22.102  -5.052  0.00  0.00     0.032 A 
HETATM   12  C   UNK N   1      29.809  22.684  -3.779  0.00  0.00     0.065 A 
HETATM   13  C   UNK N   1      31.069  21.249  -5.289  0.00  0.00     0.019 A 
HETATM   14  C   UNK N   1      31.980  20.965  -4.280  0.00  0.00     0.040 A 
HETATM   15  C   UNK N   1      31.821  21.530  -3.017  0.00  0.00     0.099 A 
HETATM   16  C   UNK N   1      30.743  22.388  -2.756  0.00  0.00     0.114 A 
ENDROOT
BRANCH   4  17
HETATM   17  O   UNK N   1      27.122  23.009  -8.187  0.00  0.00    -0.360 OA
HETATM   18  H   UNK N   1      27.976  22.757  -8.482  0.00  0.00     0.217 HD
ENDBRANCH   4  17
BRANCH   7  19
HETATM   19  O   UNK N   1      26.347  25.323  -3.267  0.00  0.00    -0.360 OA
HETATM   20  H   UNK N   1      26.879  25.104  -2.528  0.00  0.00     0.217 HD
ENDBRANCH   7  19
BRANCH  16  21
HETATM   21  O   UNK N   1      30.614  22.921  -1.527  0.00  0.00    -0.357 OA
HETATM   22  H   UNK N   1      31.341  23.354  -1.124  0.00  0.00     0.217 HD
ENDBRANCH  16  21
BRANCH  15  23
HETATM   23  O   UNK N   1      32.711  21.245  -2.052  0.00  0.00    -0.358 OA
HETATM   24  H   UNK N   1      32.806  21.821  -1.318  0.00  0.00     0.217 HD
ENDBRANCH  15  23
TORSDOF 4
ENDMDL
MODEL 2
REMARK VINA RESULT:      -7.0     10.596     13.318
REMARK  4 active torsions:
REMARK  status: ('A' for Active; 'I' for Inactive)
REMARK    1  A    between atoms: C_4  and  O_5 
REMARK    2  A    between atoms: C_8  and  O_9 
REMARK    3  A    between atoms: C_17  and  O_18 
REMARK    4  A    between atoms: C_19  and  O_20 
ROOT
HETATM    1  O   UNK N   1      33.106  17.141   7.716  0.00  0.00    -0.286 OA
HETATM    2  C   UNK N   1      32.110  17.181   7.006  0.00  0.00     0.197 A 
HETATM    3  C   UNK N   1      32.215  16.922   5.546  0.00  0.00     0.065 A 
HETATM    4  C   UNK N   1      33.463  16.625   4.951  0.00  0.00     0.081 A 
HETATM    5  C   UNK N   1      33.548  16.384   3.584  0.00  0.00     0.040 A 
HETATM    6  C   UNK N   1      32.410  16.432   2.787  0.00  0.00     0.040 A 
HETATM    7  C   UNK N   1      31.167  16.722   3.347  0.00  0.00     0.081 A 
HETATM    8  C   UNK N   1      31.051  16.972   4.736  0.00  0.00     0.065 A 
HETATM    9  C   UNK N   1      29.731  17.285   5.363  0.00  0.00     0.200 A 
HETATM   10  O   UNK N   1      28.722  17.329   4.670  0.00  0.00    -0.286 OA
HETATM   11  C   UNK N   1      30.806  17.489   7.616  0.00  0.00     0.032 A 
HETATM   12  C   UNK N   1      29.637  17.543   6.829  0.00  0.00     0.065 A 
HETATM   13  C   UNK N   1      30.738  17.728   8.993  0.00  0.00     0.019 A 
HETATM   14  C   UNK N   1      29.524  18.022   9.600  0.00  0.00     0.040 A 
HETATM   15  C   UNK N   1      28.359  18.080   8.840  0.00  0.00     0.099 A 
HETATM   16  C   UNK N   1      28.404  17.843   7.458  0.00  0.00     0.114 A 
ENDROOT
BRANCH   4  17
HETATM   17  O   UNK N   1      34.587  16.570   5.688  0.00  0.00    -0.360 OA
HETATM   18  H   UNK N   1      35.424  16.565   5.267  0.00  0.00     0.217 HD
ENDBRANCH   4  17
BRANCH   7  19
HETATM   19  O   UNK N   1      30.091  16.759   2.541  0.00  0.00    -0.360 OA
HETATM   20  H   UNK N   1      29.538  17.515   2.531  0.00  0.00     0.217 HD
ENDBRANCH   7  19
BRANCH  16  21
HETATM   21  O   UNK N   1      27.262  17.906   6.747  0.00  0.00    -0.357 OA
HETATM   22  H   UNK N   1      26.755  17.131   6.604  0.00  0.00     0.217 HD
ENDBRANCH  16  21
BRANCH  15  23
HETATM   23  O   UNK N   1      27.193  18.365   9.442  0.00  0.00    -0.358 OA
HETATM   24  H   UNK N   1      26.604  17.673   9.673  0.00  0.00     0.217 HD
ENDBRANCH  15  23
TORSDOF 4
ENDMDL
MODEL 3
REMARK VINA RESULT:      -6.9     10.354     12.277
REMARK  4 active torsions:
REMARK  status: ('A' for Active; 'I' for Inactive)
REMARK    1  A    between atoms: C_4  and  O_5 
REMARK    2  A    between atoms: C_8  and  O_9 
REMARK    3  A    between atoms: C_17  and  O_18 
REMARK    4  A    between atoms: C_19  and  O_20 
ROOT
HETATM    1  O   UNK N   1      23.316  16.698   5.413  0.00  0.00    -0.286 OA
HETATM    2  C   UNK N   1      23.223  17.643   4.642  0.00  0.00     0.197 A 
HETATM    3  C   UNK N   1      24.409  18.485   4.334  0.00  0.00     0.065 A 
HETATM    4  C   UNK N   1      25.664  18.210   4.926  0.00  0.00     0.081 A 
HETATM    5  C   UNK N   1      26.767  19.005   4.630  0.00  0.00     0.040 A 
HETATM    6  C   UNK N   1      26.648  20.077   3.752  0.00  0.00     0.040 A 
HETATM    7  C   UNK N   1      25.424  20.370   3.155  0.00  0.00     0.081 A 
HETATM    8  C   UNK N   1      24.285  19.577   3.438  0.00  0.00     0.065 A 
HETATM    9  C   UNK N   1      22.959  19.869   2.812  0.00  0.00     0.200 A 
HETATM   10  O   UNK N   1      22.844  20.810   2.038  0.00  0.00    -0.286 OA
HETATM   11  C   UNK N   1      21.920  17.937   4.022  0.00  0.00     0.032 A 
HETATM   12  C   UNK N   1      21.775  19.019   3.127  0.00  0.00     0.065 A 
HETATM   13  C   UNK N   1      20.822  17.128   4.330  0.00  0.00     0.019 A 
HETATM   14  C   UNK N   1      19.578  17.377   3.762  0.00  0.00     0.040 A 
HETATM   15  C   UNK N   1      19.416  18.440   2.878  0.00  0.00     0.099 A 
HETATM   16  C   UNK N   1      20.503  19.264   2.554  0.00  0.00     0.114 A 
ENDROOT
BRANCH   4  17
HETATM   17  O   UNK N   1      25.819  17.183   5.780  0.00  0.00    -0.360 OA
HETATM   18  H   UNK N   1      26.489  16.545   5.629  0.00  0.00     0.217 HD
ENDBRANCH   4  17
BRANCH   7  19
HETATM   19  O   UNK N   1      25.353  21.415   2.311  0.00  0.00    -0.360 OA
HETATM   20  H   UNK N   1      24.731  22.100   2.465  0.00  0.00     0.217 HD
ENDBRANCH   7  19
BRANCH  16  21
HETATM   21  O   UNK N   1      20.318  20.285   1.696  0.00  0.00    -0.357 OA
HETATM   22  H   UNK N   1      20.107  21.138   2.020  0.00  0.00     0.217 HD
ENDBRANCH  16  21
BRANCH  15  23
HETATM   23  O   UNK N   1      18.208  18.668   2.337  0.00  0.00    -0.358 OA
HETATM   24  H   UNK N   1      17.583  17.972   2.277  0.00  0.00     0.217 HD
ENDBRANCH  15  23
TORSDOF 4
ENDMDL
MODEL 4
REMARK VINA RESULT:      -6.6     12.055     15.690
REMARK  4 active torsions:
REMARK  status: ('A' for Active; 'I' for Inactive)
REMARK    1  A    between atoms: C_4  and  O_5 
REMARK    2  A    between atoms: C_8  and  O_9 
REMARK    3  A    between atoms: C_17  and  O_18 
REMARK    4  A    between atoms: C_19  and  O_20 
ROOT
HETATM    1  O   UNK N   1      34.673  18.383   7.439  0.00  0.00    -0.286 OA
HETATM    2  C   UNK N   1      34.154  17.275   7.468  0.00  0.00     0.197 A 
HETATM    3  C   UNK N   1      34.295  16.406   8.666  0.00  0.00     0.065 A 
HETATM    4  C   UNK N   1      35.030  16.842   9.793  0.00  0.00     0.081 A 
HETATM    5  C   UNK N   1      35.154  16.021  10.909  0.00  0.00     0.040 A 
HETATM    6  C   UNK N   1      34.560  14.764  10.928  0.00  0.00     0.040 A 
HETATM    7  C   UNK N   1      33.830  14.309   9.831  0.00  0.00     0.081 A 
HETATM    8  C   UNK N   1      33.687  15.125   8.682  0.00  0.00     0.065 A 
HETATM    9  C   UNK N   1      32.911  14.662   7.492  0.00  0.00     0.200 A 
HETATM   10  O   UNK N   1      32.384  13.558   7.499  0.00  0.00    -0.286 OA
HETATM   11  C   UNK N   1      33.388  16.813   6.299  0.00  0.00     0.032 A 
HETATM   12  C   UNK N   1      32.776  15.541   6.295  0.00  0.00     0.065 A 
HETATM   13  C   UNK N   1      33.272  17.651   5.185  0.00  0.00     0.019 A 
HETATM   14  C   UNK N   1      32.557  17.246   4.066  0.00  0.00     0.040 A 
HETATM   15  C   UNK N   1      31.946  15.996   4.044  0.00  0.00     0.099 A 
HETATM   16  C   UNK N   1      32.048  15.138   5.148  0.00  0.00     0.114 A 
ENDROOT
BRANCH   4  17
HETATM   17  O   UNK N   1      35.619  18.051   9.812  0.00  0.00    -0.360 OA
HETATM   18  H   UNK N   1      36.428  18.171  10.270  0.00  0.00     0.217 HD
ENDBRANCH   4  17
BRANCH   7  19
HETATM   19  O   UNK N   1      33.272  13.087   9.892  0.00  0.00    -0.360 OA
HETATM   20  H   UNK N   1      32.369  12.995  10.128  0.00  0.00     0.217 HD
ENDBRANCH   7  19
BRANCH  16  21
HETATM   21  O   UNK N   1      31.447  13.934   5.100  0.00  0.00    -0.357 OA
HETATM   22  H   UNK N   1      30.828  13.745   4.423  0.00  0.00     0.217 HD
ENDBRANCH  16  21
BRANCH  15  23
HETATM   23  O   UNK N   1      31.257  15.618   2.954  0.00  0.00    -0.358 OA
HETATM   24  H   UNK N   1      30.335  15.779   2.903  0.00  0.00     0.217 HD
ENDBRANCH  15  23
TORSDOF 4
ENDMDL
MODEL 5
REMARK VINA RESULT:      -6.5     10.032     10.926
REMARK  4 active torsions:
REMARK  status: ('A' for Active; 'I' for Inactive)
REMARK    1  A    between atoms: C_4  and  O_5 
REMARK    2  A    between atoms: C_8  and  O_9 
REMARK    3  A    between atoms: C_17  and  O_18 
REMARK    4  A    between atoms: C_19  and  O_20 
ROOT
HETATM    1  O   UNK N   1      23.018  16.007   4.092  0.00  0.00    -0.286 OA
HETATM    2  C   UNK N   1      23.204  17.192   3.849  0.00  0.00     0.197 A 
HETATM    3  C   UNK N   1      22.064  18.080   3.502  0.00  0.00     0.065 A 
HETATM    4  C   UNK N   1      20.744  17.573   3.444  0.00  0.00     0.081 A 
HETATM    5  C   UNK N   1      19.685  18.413   3.117  0.00  0.00     0.040 A 
HETATM    6  C   UNK N   1      19.910  19.758   2.844  0.00  0.00     0.040 A 
HETATM    7  C   UNK N   1      21.200  20.283   2.894  0.00  0.00     0.081 A 
HETATM    8  C   UNK N   1      22.297  19.451   3.224  0.00  0.00     0.065 A 
HETATM    9  C   UNK N   1      23.690  19.988   3.284  0.00  0.00     0.200 A 
HETATM   10  O   UNK N   1      23.899  21.171   3.045  0.00  0.00    -0.286 OA
HETATM   11  C   UNK N   1      24.575  17.729   3.907  0.00  0.00     0.032 A 
HETATM   12  C   UNK N   1      24.828  19.089   3.634  0.00  0.00     0.065 A 
HETATM   13  C   UNK N   1      25.628  16.870   4.237  0.00  0.00     0.019 A 
HETATM   14  C   UNK N   1      26.933  17.343   4.300  0.00  0.00     0.040 A 
HETATM   15  C   UNK N   1      27.203  18.683   4.034  0.00  0.00     0.099 A 
HETATM   16  C   UNK N   1      26.162  19.562   3.701  0.00  0.00     0.114 A 
ENDROOT
BRANCH   4  17
HETATM   17  O   UNK N   1      20.487  16.278   3.702  0.00  0.00    -0.360 OA
HETATM   18  H   UNK N   1      19.635  15.927   3.530  0.00  0.00     0.217 HD
ENDBRANCH   4  17
BRANCH   7  19
HETATM   19  O   UNK N   1      21.373  21.590   2.623  0.00  0.00    -0.360 OA
HETATM   20  H   UNK N   1      22.229  21.968   2.667  0.00  0.00     0.217 HD
ENDBRANCH   7  19
BRANCH  16  21
HETATM   21  O   UNK N   1      26.451  20.853   3.448  0.00  0.00    -0.357 OA
HETATM   22  H   UNK N   1      27.036  21.321   4.010  0.00  0.00     0.217 HD
ENDBRANCH  16  21
BRANCH  15  23
HETATM   23  O   UNK N   1      28.469  19.125   4.099  0.00  0.00    -0.358 OA
HETATM   24  H   UNK N   1      28.654  19.962   4.478  0.00  0.00     0.217 HD
ENDBRANCH  15  23
TORSDOF 4
ENDMDL
MODEL 6
REMARK VINA RESULT:      -6.5     16.331     17.838
REMARK  4 active torsions:
REMARK  status: ('A' for Active; 'I' for Inactive)
REMARK    1  A    between atoms: C_4  and  O_5 
REMARK    2  A    between atoms: C_8  and  O_9 
REMARK    3  A    between atoms: C_17  and  O_18 
REMARK    4  A    between atoms: C_19  and  O_20 
ROOT
HETATM    1  O   UNK N   1      25.350  13.406   8.628  0.00  0.00    -0.286 OA
HETATM    2  C   UNK N   1      24.140  13.580   8.569  0.00  0.00     0.197 A 
HETATM    3  C   UNK N   1      23.251  13.066   9.645  0.00  0.00     0.065 A 
HETATM    4  C   UNK N   1      23.785  12.369  10.753  0.00  0.00     0.081 A 
HETATM    5  C   UNK N   1      22.943  11.893  11.753  0.00  0.00     0.040 A 
HETATM    6  C   UNK N   1      21.570  12.097  11.675  0.00  0.00     0.040 A 
HETATM    7  C   UNK N   1      21.017  12.781  10.594  0.00  0.00     0.081 A 
HETATM    8  C   UNK N   1      21.851  13.276   9.561  0.00  0.00     0.065 A 
HETATM    9  C   UNK N   1      21.284  14.013   8.390  0.00  0.00     0.200 A 
HETATM   10  O   UNK N   1      20.077  14.198   8.312  0.00  0.00    -0.286 OA
HETATM   11  C   UNK N   1      23.575  14.305   7.419  0.00  0.00     0.032 A 
HETATM   12  C   UNK N   1      22.184  14.524   7.317  0.00  0.00     0.065 A 
HETATM   13  C   UNK N   1      24.435  14.777   6.422  0.00  0.00     0.019 A 
HETATM   14  C   UNK N   1      23.935  15.464   5.323  0.00  0.00     0.040 A 
HETATM   15  C   UNK N   1      22.567  15.690   5.206  0.00  0.00     0.099 A 
HETATM   16  C   UNK N   1      21.685  15.226   6.193  0.00  0.00     0.114 A 
ENDROOT
BRANCH   4  17
HETATM   17  O   UNK N   1      25.108  12.152  10.864  0.00  0.00    -0.360 OA
HETATM   18  H   UNK N   1      25.618  11.968  10.100  0.00  0.00     0.217 HD
ENDBRANCH   4  17
BRANCH   7  19
HETATM   19  O   UNK N   1      19.684  12.956  10.557  0.00  0.00    -0.360 OA
HETATM   20  H   UNK N   1      19.113  12.273  10.849  0.00  0.00     0.217 HD
ENDBRANCH   7  19
BRANCH  16  21
HETATM   21  O   UNK N   1      20.366  15.459   6.054  0.00  0.00    -0.357 OA
HETATM   22  H   UNK N   1      19.773  15.218   6.738  0.00  0.00     0.217 HD
ENDBRANCH  16  21
BRANCH  15  23
HETATM   23  O   UNK N   1      22.098  16.357   4.137  0.00  0.00    -0.358 OA
HETATM   24  H   UNK N   1      21.278  16.807   4.189  0.00  0.00     0.217 HD
ENDBRANCH  15  23
TORSDOF 4
ENDMDL
MODEL 7
REMARK VINA RESULT:      -6.5      0.882      5.133
REMARK  4 active torsions:
REMARK  status: ('A' for Active; 'I' for Inactive)
REMARK    1  A    between atoms: C_4  and  O_5 
REMARK    2  A    between atoms: C_8  and  O_9 
REMARK    3  A    between atoms: C_17  and  O_18 
REMARK    4  A    between atoms: C_19  and  O_20 
ROOT
HETATM    1  O   UNK N   1      29.233  21.650  -7.256  0.00  0.00    -0.286 OA
HETATM    2  C   UNK N   1      29.101  22.204  -6.172  0.00  0.00     0.197 A 
HETATM    3  C   UNK N   1      30.066  21.947  -5.072  0.00  0.00     0.065 A 
HETATM    4  C   UNK N   1      31.153  21.059  -5.254  0.00  0.00     0.081 A 
HETATM    5  C   UNK N   1      32.049  20.827  -4.217  0.00  0.00     0.040 A 
HETATM    6  C   UNK N   1      31.889  21.462  -2.990  0.00  0.00     0.040 A 
HETATM    7  C   UNK N   1      30.827  22.341  -2.783  0.00  0.00     0.081 A 
HETATM    8  C   UNK N   1      29.899  22.597  -3.822  0.00  0.00     0.065 A 
HETATM    9  C   UNK N   1      28.752  23.534  -3.627  0.00  0.00     0.200 A 
HETATM   10  O   UNK N   1      28.602  24.099  -2.551  0.00  0.00    -0.286 OA
HETATM   11  C   UNK N   1      27.973  23.129  -5.973  0.00  0.00     0.032 A 
HETATM   12  C   UNK N   1      27.789  23.785  -4.738  0.00  0.00     0.065 A 
HETATM   13  C   UNK N   1      27.081  23.352  -7.027  0.00  0.00     0.019 A 
HETATM   14  C   UNK N   1      26.006  24.218  -6.872  0.00  0.00     0.040 A 
HETATM   15  C   UNK N   1      25.808  24.875  -5.661  0.00  0.00     0.099 A 
HETATM   16  C   UNK N   1      26.690  24.667  -4.591  0.00  0.00     0.114 A 
ENDROOT
BRANCH   4  17
HETATM   17  O   UNK N   1      31.342  20.426  -6.426  0.00  0.00    -0.360 OA
HETATM   18  H   UNK N   1      30.736  20.552  -7.130  0.00  0.00     0.217 HD
ENDBRANCH   4  17
BRANCH   7  19
HETATM   19  O   UNK N   1      30.709  22.935  -1.582  0.00  0.00    -0.360 OA
HETATM   20  H   UNK N   1      30.980  22.483  -0.807  0.00  0.00     0.217 HD
ENDBRANCH   7  19
BRANCH  16  21
HETATM   21  O   UNK N   1      26.475  25.315  -3.430  0.00  0.00    -0.357 OA
HETATM   22  H   UNK N   1      27.195  25.516  -2.865  0.00  0.00     0.217 HD
ENDBRANCH  16  21
BRANCH  15  23
HETATM   23  O   UNK N   1      24.764  25.710  -5.527  0.00  0.00    -0.358 OA
HETATM   24  H   UNK N   1      24.159  25.593  -4.821  0.00  0.00     0.217 HD
ENDBRANCH  15  23
TORSDOF 4
ENDMDL
MODEL 8
REMARK VINA RESULT:      -6.4     10.380     12.459
REMARK  4 active torsions:
REMARK  status: ('A' for Active; 'I' for Inactive)
REMARK    1  A    between atoms: C_4  and  O_5 
REMARK    2  A    between atoms: C_8  and  O_9 
REMARK    3  A    between atoms: C_17  and  O_18 
REMARK    4  A    between atoms: C_19  and  O_20 
ROOT
HETATM    1  O   UNK N   1      31.873  16.957   3.581  0.00  0.00    -0.286 OA
HETATM    2  C   UNK N   1      31.226  17.006   4.619  0.00  0.00     0.197 A 
HETATM    3  C   UNK N   1      29.745  16.883   4.590  0.00  0.00     0.065 A 
HETATM    4  C   UNK N   1      29.056  16.708   3.367  0.00  0.00     0.081 A 
HETATM    5  C   UNK N   1      27.670  16.595   3.353  0.00  0.00     0.040 A 
HETATM    6  C   UNK N   1      26.946  16.652   4.539  0.00  0.00     0.040 A 
HETATM    7  C   UNK N   1      27.599  16.823   5.759  0.00  0.00     0.081 A 
HETATM    8  C   UNK N   1      29.009  16.941   5.802  0.00  0.00     0.065 A 
HETATM    9  C   UNK N   1      29.735  17.126   7.096  0.00  0.00     0.200 A 
HETATM   10  O   UNK N   1      29.107  17.177   8.145  0.00  0.00    -0.286 OA
HETATM   11  C   UNK N   1      31.934  17.187   5.897  0.00  0.00     0.032 A 
HETATM   12  C   UNK N   1      31.221  17.248   7.113  0.00  0.00     0.065 A 
HETATM   13  C   UNK N   1      33.328  17.300   5.893  0.00  0.00     0.019 A 
HETATM   14  C   UNK N   1      34.027  17.472   7.081  0.00  0.00     0.040 A 
HETATM   15  C   UNK N   1      33.341  17.534   8.291  0.00  0.00     0.099 A 
HETATM   16  C   UNK N   1      31.943  17.424   8.319  0.00  0.00     0.114 A 
ENDROOT
BRANCH   4  17
HETATM   17  O   UNK N   1      29.721  16.649   2.199  0.00  0.00    -0.360 OA
HETATM   18  H   UNK N   1      29.247  16.619   1.391  0.00  0.00     0.217 HD
ENDBRANCH   4  17
BRANCH   7  19
HETATM   19  O   UNK N   1      26.861  16.873   6.882  0.00  0.00    -0.360 OA
HETATM   20  H   UNK N   1      27.256  17.131   7.691  0.00  0.00     0.217 HD
ENDBRANCH   7  19
BRANCH  16  21
HETATM   21  O   UNK N   1      31.306  17.487   9.503  0.00  0.00    -0.357 OA
HETATM   22  H   UNK N   1      30.523  17.996   9.588  0.00  0.00     0.217 HD
ENDBRANCH  16  21
BRANCH  15  23
HETATM   23  O   UNK N   1      34.031  17.701   9.431  0.00  0.00    -0.358 OA
HETATM   24  H   UNK N   1      33.907  18.475   9.945  0.00  0.00     0.217 HD
ENDBRANCH  15  23
TORSDOF 4
ENDMDL
MODEL 9
REMARK VINA RESULT:      -6.3     16.268     17.231
REMARK  4 active torsions:
REMARK  status: ('A' for Active; 'I' for Inactive)
REMARK    1  A    between atoms: C_4  and  O_5 
REMARK    2  A    between atoms: C_8  and  O_9 
REMARK    3  A    between atoms: C_17  and  O_18 
REMARK    4  A    between atoms: C_19  and  O_20 
ROOT
HETATM    1  O   UNK N   1      24.716  14.162   7.293  0.00  0.00    -0.286 OA
HETATM    2  C   UNK N   1      23.541  14.225   7.630  0.00  0.00     0.197 A 
HETATM    3  C   UNK N   1      22.566  15.004   6.824  0.00  0.00     0.065 A 
HETATM    4  C   UNK N   1      22.975  15.685   5.654  0.00  0.00     0.081 A 
HETATM    5  C   UNK N   1      22.052  16.411   4.907  0.00  0.00     0.040 A 
HETATM    6  C   UNK N   1      20.720  16.475   5.301  0.00  0.00     0.040 A 
HETATM    7  C   UNK N   1      20.290  15.813   6.450  0.00  0.00     0.081 A 
HETATM    8  C   UNK N   1      21.208  15.067   7.229  0.00  0.00     0.065 A 
HETATM    9  C   UNK N   1      20.774  14.348   8.465  0.00  0.00     0.200 A 
HETATM   10  O   UNK N   1      19.603  14.398   8.821  0.00  0.00    -0.286 OA
HETATM   11  C   UNK N   1      23.107  13.519   8.847  0.00  0.00     0.032 A 
HETATM   12  C   UNK N   1      21.761  13.569   9.268  0.00  0.00     0.065 A 
HETATM   13  C   UNK N   1      24.047  12.794   9.587  0.00  0.00     0.019 A 
HETATM   14  C   UNK N   1      23.670  12.117  10.740  0.00  0.00     0.040 A 
HETATM   15  C   UNK N   1      22.347  12.155  11.170  0.00  0.00     0.099 A 
HETATM   16  C   UNK N   1      21.387  12.875  10.444  0.00  0.00     0.114 A 
ENDROOT
BRANCH   4  17
HETATM   17  O   UNK N   1      24.254  15.647   5.240  0.00  0.00    -0.360 OA
HETATM   18  H   UNK N   1      24.539  16.208   4.545  0.00  0.00     0.217 HD
ENDBRANCH   4  17
BRANCH   7  19
HETATM   19  O   UNK N   1      18.993  15.901   6.796  0.00  0.00    -0.360 OA
HETATM   20  H   UNK N   1      18.679  15.450   7.554  0.00  0.00     0.217 HD
ENDBRANCH   7  19
BRANCH  16  21
HETATM   21  O   UNK N   1      20.114  12.895  10.883  0.00  0.00    -0.357 OA
HETATM   22  H   UNK N   1      19.704  12.102  11.169  0.00  0.00     0.217 HD
ENDBRANCH  16  21
BRANCH  15  23
HETATM   23  O   UNK N   1      21.998  11.494  12.286  0.00  0.00    -0.358 OA
HETATM   24  H   UNK N   1      21.187  11.026  12.320  0.00  0.00     0.217 HD
ENDBRANCH  15  23
TORSDOF 4
ENDMDL
