REMARK  4 active torsions:
REMARK  status: ('A' for Active; 'I' for Inactive)
REMARK    1  A    between atoms: C_4  and  O_5 
REMARK    2  A    between atoms: C_8  and  O_9 
REMARK    3  A    between atoms: C_17  and  O_18 
REMARK    4  A    between atoms: C_19  and  O_20 
ROOT
HETATM    1  O   UNK N   1       0.054   2.773   0.000  0.00  0.00    -0.286 OA
HETATM    2  C   UNK N   1       0.098   1.550   0.000  0.00  0.00     0.197 A 
HETATM    3  C   UNK N   1       1.405   0.842   0.000  0.00  0.00     0.065 A 
HETATM    4  C   UNK N   1       2.620   1.566   0.000  0.00  0.00     0.081 A 
HETATM    5  C   UNK N   1       3.837   0.892   0.000  0.00  0.00     0.040 A 
HETATM    6  C   UNK N   1       3.873  -0.498  -0.000  0.00  0.00     0.040 A 
HETATM    7  C   UNK N   1       2.691  -1.236  -0.000  0.00  0.00     0.081 A 
HETATM    8  C   UNK N   1       1.438  -0.576  -0.000  0.00  0.00     0.065 A 
HETATM    9  C   UNK N   1       0.155  -1.343  -0.000  0.00  0.00     0.200 A 
HETATM   10  O   UNK N   1       0.176  -2.567  -0.000  0.00  0.00    -0.286 OA
HETATM   11  C   UNK N   1      -1.162   0.788   0.000  0.00  0.00     0.032 A 
HETATM   12  C   UNK N   1      -1.151  -0.623  -0.000  0.00  0.00     0.065 A 
HETATM   13  C   UNK N   1      -2.377   1.481   0.000  0.00  0.00     0.019 A 
HETATM   14  C   UNK N   1      -3.584   0.793   0.000  0.00  0.00     0.040 A 
HETATM   15  C   UNK N   1      -3.593  -0.599  -0.000  0.00  0.00     0.099 A 
HETATM   16  C   UNK N   1      -2.387  -1.315  -0.000  0.00  0.00     0.114 A 
ENDROOT
BRANCH   4  17
HETATM   17  O   UNK N   1       2.626   2.911   0.000  0.00  0.00    -0.360 OA
HETATM   18  H   UNK N   1       3.440   3.376   0.000  0.00  0.00     0.217 HD
ENDBRANCH   4  17
BRANCH   7  19
HETATM   19  O   UNK N   1       2.771  -2.579  -0.000  0.00  0.00    -0.360 OA
HETATM   20  H   UNK N   1       1.989  -3.095  -0.000  0.00  0.00     0.217 HD
ENDBRANCH   7  19
BRANCH  16  21
HETATM   21  O   UNK N   1      -2.425  -2.661  -0.000  0.00  0.00    -0.357 OA
HETATM   22  H   UNK N   1      -3.249  -3.107  -0.000  0.00  0.00     0.217 HD
ENDBRANCH  16  21
BRANCH  15  23
HETATM   23  O   UNK N   1      -4.768  -1.250  -0.000  0.00  0.00    -0.358 OA
HETATM   24  H   UNK N   1      -5.571  -0.767  -0.000  0.00  0.00     0.217 HD
ENDBRANCH  15  23
TORSDOF 4
