REMARK  4 active torsions:
REMARK  status: ('A' for Active; 'I' for Inactive)
REMARK    1  A    between atoms: N_5  and  C_6 
REMARK    2  A    between atoms: C_7  and  C_6 
REMARK    3  A    between atoms: C_9  and  O_10 
REMARK    4  A    between atoms: C_12  and  N_13 
ROOT
HETATM    1  C   UNK N   1       0.203  -1.054   0.005  0.00  0.00     0.181 C 
HETATM    2  O   UNK N   1      -0.903  -0.359   0.546  0.00  0.00    -0.356 OA
HETATM    3  C   UNK N   1       1.222   0.030  -0.319  0.00  0.00     0.153 C 
HETATM    4  C   UNK N   1       0.345   1.172  -0.758  0.00  0.00     0.088 C 
HETATM    5  C   UNK N   1      -1.057   0.676  -0.416  0.00  0.00     0.235 C 
ENDROOT
BRANCH   5   6
HETATM    6  N   UNK N   1      -2.062   1.703  -0.049  0.00  0.00    -0.282 N 
HETATM    7  C   UNK N   1      -3.359   1.284   0.005  0.00  0.00     0.110 A 
HETATM    8  C   UNK N   1      -4.407   2.186   0.176  0.00  0.00     0.022 A 
HETATM    9  C   UNK N   1      -5.813   1.691   0.186  0.00  0.00     0.056 C 
HETATM   10  C   UNK N   1      -4.111   3.544   0.298  0.00  0.00     0.256 A 
HETATM   11  O   UNK N   1      -5.003   4.367   0.413  0.00  0.00    -0.267 OA
HETATM   12  N   UNK N   1      -2.808   3.953   0.281  0.00  0.00    -0.275 N 
HETATM   13  C   UNK N   1      -1.783   3.058   0.110  0.00  0.00     0.331 A 
HETATM   14  H   UNK N   1      -2.601   4.908   0.394  0.00  0.00     0.173 HD
HETATM   15  O   UNK N   1      -0.641   3.476   0.076  0.00  0.00    -0.246 OA
ENDBRANCH   5   6
BRANCH   1  16
HETATM   16  C   UNK N   1       0.777  -2.172   0.880  0.00  0.00     0.306 C 
BRANCH  16  17
HETATM   17  N   UNK N   1       1.763  -2.914   0.093  0.00  0.00     0.091 N 
HETATM   18  C   UNK N   1       3.106  -2.443   0.389  0.00  0.00     0.272 C 
HETATM   19  C   UNK N   1       4.034  -3.584   0.034  0.00  0.00     0.032 C 
HETATM   20  C   UNK N   1       3.164  -4.822   0.110  0.00  0.00     0.032 C 
HETATM   21  C   UNK N   1       1.786  -4.309   0.487  0.00  0.00     0.272 C 
ENDBRANCH  16  17
ENDBRANCH   1  16
BRANCH   3  22
HETATM   22  O   UNK N   1       1.900   0.427   0.837  0.00  0.00    -0.393 OA
HETATM   23  H   UNK N   1       2.373   0.157   1.640  0.00  0.00     0.210 HD
ENDBRANCH   3  22
TORSDOF 4
