MODEL 1
REMARK VINA RESULT:      -6.9      0.000      0.000
REMARK  4 active torsions:
REMARK  status: ('A' for Active; 'I' for Inactive)
REMARK    1  A    between atoms: N_5  and  C_6 
REMARK    2  A    between atoms: C_7  and  C_6 
REMARK    3  A    between atoms: C_9  and  O_10 
REMARK    4  A    between atoms: C_12  and  N_13 
ROOT
HETATM    1  C   UNK N   1      35.490  13.551  13.035  0.00  0.00     0.181 C 
HETATM    2  O   UNK N   1      35.088  14.802  12.514  0.00  0.00    -0.356 OA
HETATM    3  C   UNK N   1      36.348  12.932  11.941  0.00  0.00     0.153 C 
HETATM    4  C   UNK N   1      35.662  13.409  10.689  0.00  0.00     0.088 C 
HETATM    5  C   UNK N   1      34.645  14.416  11.220  0.00  0.00     0.235 C 
ENDROOT
BRANCH   5   6
HETATM    6  N   UNK N   1      34.297  15.551  10.332  0.00  0.00    -0.282 N 
HETATM    7  C   UNK N   1      33.135  15.431   9.628  0.00  0.00     0.110 A 
HETATM    8  C   UNK N   1      32.784  16.351   8.643  0.00  0.00     0.022 A 
HETATM    9  C   UNK N   1      31.526  16.159   7.867  0.00  0.00     0.056 C 
HETATM   10  C   UNK N   1      33.646  17.417   8.382  0.00  0.00     0.256 A 
HETATM   11  O   UNK N   1      33.390  18.223   7.503  0.00  0.00    -0.267 OA
HETATM   12  N   UNK N   1      34.789  17.553   9.116  0.00  0.00    -0.275 N 
HETATM   13  C   UNK N   1      35.128  16.641  10.083  0.00  0.00     0.331 A 
HETATM   14  H   UNK N   1      35.381  18.321   8.948  0.00  0.00     0.173 HD
HETATM   15  O   UNK N   1      36.170  16.793  10.691  0.00  0.00    -0.246 OA
ENDBRANCH   5   6
BRANCH   1  16
HETATM   16  C   UNK N   1      36.194  13.593  14.395  0.00  0.00     0.306 C 
BRANCH  16  17
HETATM   17  N   UNK N   1      35.574  12.595  15.267  0.00  0.00     0.091 N 
HETATM   18  C   UNK N   1      36.509  11.518  15.550  0.00  0.00     0.272 C 
HETATM   19  C   UNK N   1      36.047  10.897  16.849  0.00  0.00     0.032 C 
HETATM   20  C   UNK N   1      35.247  11.988  17.532  0.00  0.00     0.032 C 
HETATM   21  C   UNK N   1      35.288  13.162  16.570  0.00  0.00     0.272 C 
ENDBRANCH  16  17
ENDBRANCH   1  16
BRANCH   3  22
HETATM   22  O   UNK N   1      37.636  13.475  11.961  0.00  0.00    -0.393 OA
HETATM   23  H   UNK N   1      38.489  13.537  12.418  0.00  0.00     0.210 HD
ENDBRANCH   3  22
TORSDOF 4
ENDMDL
MODEL 2
REMARK VINA RESULT:      -6.8     12.299     14.797
REMARK  4 active torsions:
REMARK  status: ('A' for Active; 'I' for Inactive)
REMARK    1  A    between atoms: N_5  and  C_6 
REMARK    2  A    between atoms: C_7  and  C_6 
REMARK    3  A    between atoms: C_9  and  O_10 
REMARK    4  A    between atoms: C_12  and  N_13 
ROOT
HETATM    1  C   UNK N   1      21.855  14.523   8.363  0.00  0.00     0.181 C 
HETATM    2  O   UNK N   1      21.566  14.692   6.989  0.00  0.00    -0.356 OA
HETATM    3  C   UNK N   1      20.712  15.219   9.089  0.00  0.00     0.153 C 
HETATM    4  C   UNK N   1      20.421  16.385   8.182  0.00  0.00     0.088 C 
HETATM    5  C   UNK N   1      21.273  16.082   6.953  0.00  0.00     0.235 C 
ENDROOT
BRANCH   5   6
HETATM    6  N   UNK N   1      20.762  16.562   5.646  0.00  0.00    -0.282 N 
HETATM    7  C   UNK N   1      21.434  17.608   5.085  0.00  0.00     0.110 A 
HETATM    8  C   UNK N   1      20.954  18.252   3.946  0.00  0.00     0.022 A 
HETATM    9  C   UNK N   1      21.696  19.419   3.389  0.00  0.00     0.056 C 
HETATM   10  C   UNK N   1      19.763  17.805   3.374  0.00  0.00     0.256 A 
HETATM   11  O   UNK N   1      19.293  18.365   2.398  0.00  0.00    -0.267 OA
HETATM   12  N   UNK N   1      19.115  16.733   3.919  0.00  0.00    -0.275 N 
HETATM   13  C   UNK N   1      19.593  16.107   5.041  0.00  0.00     0.331 A 
HETATM   14  H   UNK N   1      18.289  16.404   3.498  0.00  0.00     0.173 HD
HETATM   15  O   UNK N   1      18.965  15.173   5.503  0.00  0.00    -0.246 OA
ENDBRANCH   5   6
BRANCH   1  16
HETATM   16  C   UNK N   1      22.065  13.078   8.825  0.00  0.00     0.306 C 
BRANCH  16  17
HETATM   17  N   UNK N   1      22.759  13.101  10.113  0.00  0.00     0.091 N 
HETATM   18  C   UNK N   1      22.074  12.250  11.073  0.00  0.00     0.272 C 
HETATM   19  C   UNK N   1      23.113  11.868  12.104  0.00  0.00     0.032 C 
HETATM   20  C   UNK N   1      24.439  12.026  11.388  0.00  0.00     0.032 C 
HETATM   21  C   UNK N   1      24.076  12.507   9.995  0.00  0.00     0.272 C 
ENDBRANCH  16  17
ENDBRANCH   1  16
BRANCH   3  22
HETATM   22  O   UNK N   1      19.579  14.401   9.116  0.00  0.00    -0.393 OA
HETATM   23  H   UNK N   1      19.163  13.571   8.834  0.00  0.00     0.210 HD
ENDBRANCH   3  22
TORSDOF 4
ENDMDL
MODEL 3
REMARK VINA RESULT:      -6.7      2.035      7.317
REMARK  4 active torsions:
REMARK  status: ('A' for Active; 'I' for Inactive)
REMARK    1  A    between atoms: N_5  and  C_6 
REMARK    2  A    between atoms: C_7  and  C_6 
REMARK    3  A    between atoms: C_9  and  O_10 
REMARK    4  A    between atoms: C_12  and  N_13 
ROOT
HETATM    1  C   UNK N   1      34.889  14.976  10.611  0.00  0.00     0.181 C 
HETATM    2  O   UNK N   1      34.498  14.417  11.849  0.00  0.00    -0.356 OA
HETATM    3  C   UNK N   1      36.045  14.105  10.139  0.00  0.00     0.153 C 
HETATM    4  C   UNK N   1      36.733  13.758  11.432  0.00  0.00     0.088 C 
HETATM    5  C   UNK N   1      35.762  14.283  12.486  0.00  0.00     0.235 C 
ENDROOT
BRANCH   5   6
HETATM    6  N   UNK N   1      35.718  13.558  13.779  0.00  0.00    -0.282 N 
HETATM    7  C   UNK N   1      34.926  12.448  13.820  0.00  0.00     0.110 A 
HETATM    8  C   UNK N   1      34.673  11.780  15.017  0.00  0.00     0.022 A 
HETATM    9  C   UNK N   1      33.767  10.596  15.024  0.00  0.00     0.056 C 
HETATM   10  C   UNK N   1      35.252  12.263  16.190  0.00  0.00     0.256 A 
HETATM   11  O   UNK N   1      35.026  11.727  17.262  0.00  0.00    -0.267 OA
HETATM   12  N   UNK N   1      36.074  13.352  16.137  0.00  0.00    -0.275 N 
HETATM   13  C   UNK N   1      36.315  14.005  14.955  0.00  0.00     0.331 A 
HETATM   14  H   UNK N   1      36.502  13.674  16.962  0.00  0.00     0.173 HD
HETATM   15  O   UNK N   1      37.035  14.986  14.964  0.00  0.00    -0.246 OA
ENDBRANCH   5   6
BRANCH   1  16
HETATM   16  C   UNK N   1      33.779  15.116   9.565  0.00  0.00     0.306 C 
BRANCH  16  17
HETATM   17  N   UNK N   1      34.227  16.060   8.540  0.00  0.00     0.091 N 
HETATM   18  C   UNK N   1      33.131  16.391   7.644  0.00  0.00     0.272 C 
HETATM   19  C   UNK N   1      33.479  17.735   7.042  0.00  0.00     0.032 C 
HETATM   20  C   UNK N   1      34.433  18.363   8.037  0.00  0.00     0.032 C 
HETATM   21  C   UNK N   1      34.586  17.331   9.138  0.00  0.00     0.272 C 
ENDBRANCH  16  17
ENDBRANCH   1  16
BRANCH   3  22
HETATM   22  O   UNK N   1      35.567  12.919   9.574  0.00  0.00    -0.393 OA
HETATM   23  H   UNK N   1      35.518  12.349   8.791  0.00  0.00     0.210 HD
ENDBRANCH   3  22
TORSDOF 4
ENDMDL
MODEL 4
REMARK VINA RESULT:      -6.6      4.583      7.447
REMARK  4 active torsions:
REMARK  status: ('A' for Active; 'I' for Inactive)
REMARK    1  A    between atoms: N_5  and  C_6 
REMARK    2  A    between atoms: C_7  and  C_6 
REMARK    3  A    between atoms: C_9  and  O_10 
REMARK    4  A    between atoms: C_12  and  N_13 
ROOT
HETATM    1  C   UNK N   1      31.858  16.213   7.590  0.00  0.00     0.181 C 
HETATM    2  O   UNK N   1      31.086  17.389   7.730  0.00  0.00    -0.356 OA
HETATM    3  C   UNK N   1      31.528  15.696   6.196  0.00  0.00     0.153 C 
HETATM    4  C   UNK N   1      30.073  16.055   6.058  0.00  0.00     0.088 C 
HETATM    5  C   UNK N   1      29.819  16.924   7.287  0.00  0.00     0.235 C 
ENDROOT
BRANCH   5   6
HETATM    6  N   UNK N   1      28.792  17.986   7.157  0.00  0.00    -0.282 N 
HETATM    7  C   UNK N   1      28.549  18.438   5.893  0.00  0.00     0.110 A 
HETATM    8  C   UNK N   1      27.732  19.542   5.661  0.00  0.00     0.022 A 
HETATM    9  C   UNK N   1      27.527  20.029   4.267  0.00  0.00     0.056 C 
HETATM   10  C   UNK N   1      27.151  20.188   6.752  0.00  0.00     0.256 A 
HETATM   11  O   UNK N   1      26.458  21.179   6.592  0.00  0.00    -0.267 OA
HETATM   12  N   UNK N   1      27.367  19.708   8.013  0.00  0.00    -0.275 N 
HETATM   13  C   UNK N   1      28.175  18.622   8.232  0.00  0.00     0.331 A 
HETATM   14  H   UNK N   1      26.935  20.150   8.778  0.00  0.00     0.173 HD
HETATM   15  O   UNK N   1      28.357  18.249   9.375  0.00  0.00    -0.246 OA
ENDBRANCH   5   6
BRANCH   1  16
HETATM   16  C   UNK N   1      33.363  16.374   7.827  0.00  0.00     0.306 C 
BRANCH  16  17
HETATM   17  N   UNK N   1      33.603  16.387   9.270  0.00  0.00     0.091 N 
HETATM   18  C   UNK N   1      33.684  15.029   9.783  0.00  0.00     0.272 C 
HETATM   19  C   UNK N   1      34.487  15.115  11.062  0.00  0.00     0.032 C 
HETATM   20  C   UNK N   1      35.306  16.381  10.915  0.00  0.00     0.032 C 
HETATM   21  C   UNK N   1      34.906  16.951   9.566  0.00  0.00     0.272 C 
ENDBRANCH  16  17
ENDBRANCH   1  16
BRANCH   3  22
HETATM   22  O   UNK N   1      32.241  16.408   5.227  0.00  0.00    -0.393 OA
HETATM   23  H   UNK N   1      33.072  16.843   4.980  0.00  0.00     0.210 HD
ENDBRANCH   3  22
TORSDOF 4
ENDMDL
MODEL 5
REMARK VINA RESULT:      -6.4      3.413      7.867
REMARK  4 active torsions:
REMARK  status: ('A' for Active; 'I' for Inactive)
REMARK    1  A    between atoms: N_5  and  C_6 
REMARK    2  A    between atoms: C_7  and  C_6 
REMARK    3  A    between atoms: C_9  and  O_10 
REMARK    4  A    between atoms: C_12  and  N_13 
ROOT
HETATM    1  C   UNK N   1      32.501  16.941   7.505  0.00  0.00     0.181 C 
HETATM    2  O   UNK N   1      33.289  15.901   8.048  0.00  0.00    -0.356 OA
HETATM    3  C   UNK N   1      33.497  18.033   7.138  0.00  0.00     0.153 C 
HETATM    4  C   UNK N   1      34.519  17.915   8.237  0.00  0.00     0.088 C 
HETATM    5  C   UNK N   1      34.100  16.635   8.956  0.00  0.00     0.235 C 
ENDROOT
BRANCH   5   6
HETATM    6  N   UNK N   1      35.177  15.838   9.592  0.00  0.00    -0.282 N 
HETATM    7  C   UNK N   1      35.612  14.749   8.894  0.00  0.00     0.110 A 
HETATM    8  C   UNK N   1      36.498  13.833   9.456  0.00  0.00     0.022 A 
HETATM    9  C   UNK N   1      36.914  12.634   8.675  0.00  0.00     0.056 C 
HETATM   10  C   UNK N   1      36.947  14.047  10.760  0.00  0.00     0.256 A 
HETATM   11  O   UNK N   1      37.695  13.249  11.298  0.00  0.00    -0.267 OA
HETATM   12  N   UNK N   1      36.538  15.159  11.439  0.00  0.00    -0.275 N 
HETATM   13  C   UNK N   1      35.664  16.054  10.878  0.00  0.00     0.331 A 
HETATM   14  H   UNK N   1      36.878  15.321  12.348  0.00  0.00     0.173 HD
HETATM   15  O   UNK N   1      35.309  17.015  11.535  0.00  0.00    -0.246 OA
ENDBRANCH   5   6
BRANCH   1  16
HETATM   16  C   UNK N   1      31.592  16.545   6.337  0.00  0.00     0.306 C 
BRANCH  16  17
HETATM   17  N   UNK N   1      30.206  16.564   6.805  0.00  0.00     0.091 N 
HETATM   18  C   UNK N   1      30.097  17.323   8.040  0.00  0.00     0.272 C 
HETATM   19  C   UNK N   1      28.659  17.785   8.119  0.00  0.00     0.032 C 
HETATM   20  C   UNK N   1      28.175  17.774   6.683  0.00  0.00     0.032 C 
HETATM   21  C   UNK N   1      29.363  17.289   5.873  0.00  0.00     0.272 C 
ENDBRANCH  16  17
ENDBRANCH   1  16
BRANCH   3  22
HETATM   22  O   UNK N   1      34.129  17.734   5.928  0.00  0.00    -0.393 OA
HETATM   23  H   UNK N   1      34.779  18.000   5.258  0.00  0.00     0.210 HD
ENDBRANCH   3  22
TORSDOF 4
ENDMDL
MODEL 6
REMARK VINA RESULT:      -6.4      3.931      8.911
REMARK  4 active torsions:
REMARK  status: ('A' for Active; 'I' for Inactive)
REMARK    1  A    between atoms: N_5  and  C_6 
REMARK    2  A    between atoms: C_7  and  C_6 
REMARK    3  A    between atoms: C_9  and  O_10 
REMARK    4  A    between atoms: C_12  and  N_13 
ROOT
HETATM    1  C   UNK N   1      30.857  17.192   5.984  0.00  0.00     0.181 C 
HETATM    2  O   UNK N   1      31.480  16.777   7.183  0.00  0.00    -0.356 OA
HETATM    3  C   UNK N   1      31.920  17.009   4.910  0.00  0.00     0.153 C 
HETATM    4  C   UNK N   1      33.184  17.363   5.648  0.00  0.00     0.088 C 
HETATM    5  C   UNK N   1      32.712  17.481   7.094  0.00  0.00     0.235 C 
ENDROOT
BRANCH   5   6
HETATM    6  N   UNK N   1      33.691  17.130   8.151  0.00  0.00    -0.282 N 
HETATM    7  C   UNK N   1      33.592  15.873   8.671  0.00  0.00     0.110 A 
HETATM    8  C   UNK N   1      34.343  15.483   9.777  0.00  0.00     0.022 A 
HETATM    9  C   UNK N   1      34.172  14.114  10.340  0.00  0.00     0.056 C 
HETATM   10  C   UNK N   1      35.216  16.405  10.355  0.00  0.00     0.256 A 
HETATM   11  O   UNK N   1      35.863  16.113  11.346  0.00  0.00    -0.267 OA
HETATM   12  N   UNK N   1      35.339  17.650   9.807  0.00  0.00    -0.275 N 
HETATM   13  C   UNK N   1      34.594  18.026   8.719  0.00  0.00     0.331 A 
HETATM   14  H   UNK N   1      35.975  18.290  10.200  0.00  0.00     0.173 HD
HETATM   15  O   UNK N   1      34.721  19.155   8.284  0.00  0.00    -0.246 OA
ENDBRANCH   5   6
BRANCH   1  16
HETATM   16  C   UNK N   1      29.538  16.491   5.645  0.00  0.00     0.306 C 
BRANCH  16  17
HETATM   17  N   UNK N   1      28.458  17.475   5.729  0.00  0.00     0.091 N 
HETATM   18  C   UNK N   1      28.556  18.231   6.967  0.00  0.00     0.272 C 
HETATM   19  C   UNK N   1      27.837  19.538   6.713  0.00  0.00     0.032 C 
HETATM   20  C   UNK N   1      27.876  19.710   5.209  0.00  0.00     0.032 C 
HETATM   21  C   UNK N   1      28.600  18.480   4.693  0.00  0.00     0.272 C 
ENDBRANCH  16  17
ENDBRANCH   1  16
BRANCH   3  22
HETATM   22  O   UNK N   1      32.006  15.667   4.528  0.00  0.00    -0.393 OA
HETATM   23  H   UNK N   1      31.674  14.959   3.954  0.00  0.00     0.210 HD
ENDBRANCH   3  22
TORSDOF 4
ENDMDL
MODEL 7
REMARK VINA RESULT:      -6.4      8.514     12.627
REMARK  4 active torsions:
REMARK  status: ('A' for Active; 'I' for Inactive)
REMARK    1  A    between atoms: N_5  and  C_6 
REMARK    2  A    between atoms: C_7  and  C_6 
REMARK    3  A    between atoms: C_9  and  O_10 
REMARK    4  A    between atoms: C_12  and  N_13 
ROOT
HETATM    1  C   UNK N   1      27.377  18.424   5.447  0.00  0.00     0.181 C 
HETATM    2  O   UNK N   1      26.021  18.200   5.117  0.00  0.00    -0.356 OA
HETATM    3  C   UNK N   1      27.413  19.844   5.996  0.00  0.00     0.153 C 
HETATM    4  C   UNK N   1      26.379  20.539   5.152  0.00  0.00     0.088 C 
HETATM    5  C   UNK N   1      25.729  19.387   4.391  0.00  0.00     0.235 C 
ENDROOT
BRANCH   5   6
HETATM    6  N   UNK N   1      24.299  19.543   4.029  0.00  0.00    -0.282 N 
HETATM    7  C   UNK N   1      23.420  18.731   4.683  0.00  0.00     0.110 A 
HETATM    8  C   UNK N   1      22.078  18.667   4.315  0.00  0.00     0.022 A 
HETATM    9  C   UNK N   1      21.160  17.734   5.028  0.00  0.00     0.056 C 
HETATM   10  C   UNK N   1      21.634  19.459   3.255  0.00  0.00     0.256 A 
HETATM   11  O   UNK N   1      20.475  19.404   2.881  0.00  0.00    -0.267 OA
HETATM   12  N   UNK N   1      22.511  20.298   2.629  0.00  0.00    -0.275 N 
HETATM   13  C   UNK N   1      23.831  20.352   2.997  0.00  0.00     0.331 A 
HETATM   14  H   UNK N   1      22.189  20.875   1.900  0.00  0.00     0.173 HD
HETATM   15  O   UNK N   1      24.577  21.097   2.390  0.00  0.00    -0.246 OA
ENDBRANCH   5   6
BRANCH   1  16
HETATM   16  C   UNK N   1      28.007  17.400   6.396  0.00  0.00     0.306 C 
BRANCH  16  17
HETATM   17  N   UNK N   1      29.416  17.748   6.580  0.00  0.00     0.091 N 
HETATM   18  C   UNK N   1      29.776  17.679   7.987  0.00  0.00     0.272 C 
HETATM   19  C   UNK N   1      31.272  17.461   8.023  0.00  0.00     0.032 C 
HETATM   20  C   UNK N   1      31.602  16.843   6.680  0.00  0.00     0.032 C 
HETATM   21  C   UNK N   1      30.273  16.762   5.951  0.00  0.00     0.272 C 
ENDBRANCH  16  17
ENDBRANCH   1  16
BRANCH   3  22
HETATM   22  O   UNK N   1      26.974  19.868   7.322  0.00  0.00    -0.393 OA
HETATM   23  H   UNK N   1      26.455  20.325   8.003  0.00  0.00     0.210 HD
ENDBRANCH   3  22
TORSDOF 4
ENDMDL
MODEL 8
REMARK VINA RESULT:      -6.4      2.990      8.168
REMARK  4 active torsions:
REMARK  status: ('A' for Active; 'I' for Inactive)
REMARK    1  A    between atoms: N_5  and  C_6 
REMARK    2  A    between atoms: C_7  and  C_6 
REMARK    3  A    between atoms: C_9  and  O_10 
REMARK    4  A    between atoms: C_12  and  N_13 
ROOT
HETATM    1  C   UNK N   1      35.198  13.454  13.676  0.00  0.00     0.181 C 
HETATM    2  O   UNK N   1      34.880  12.688  14.821  0.00  0.00    -0.356 OA
HETATM    3  C   UNK N   1      36.673  13.797  13.835  0.00  0.00     0.153 C 
HETATM    4  C   UNK N   1      36.800  13.977  15.324  0.00  0.00     0.088 C 
HETATM    5  C   UNK N   1      35.448  13.497  15.843  0.00  0.00     0.235 C 
ENDROOT
BRANCH   5   6
HETATM    6  N   UNK N   1      35.425  12.879  17.191  0.00  0.00    -0.282 N 
HETATM    7  C   UNK N   1      35.375  11.517  17.228  0.00  0.00     0.110 A 
HETATM    8  C   UNK N   1      35.185  10.829  18.425  0.00  0.00     0.022 A 
HETATM    9  C   UNK N   1      35.093   9.342  18.415  0.00  0.00     0.056 C 
HETATM   10  C   UNK N   1      35.049  11.561  19.605  0.00  0.00     0.256 A 
HETATM   11  O   UNK N   1      34.845  10.997  20.666  0.00  0.00    -0.267 OA
HETATM   12  N   UNK N   1      35.138  12.923  19.566  0.00  0.00    -0.275 N 
HETATM   13  C   UNK N   1      35.323  13.591  18.383  0.00  0.00     0.331 A 
HETATM   14  H   UNK N   1      35.068  13.435  20.404  0.00  0.00     0.173 HD
HETATM   15  O   UNK N   1      35.369  14.807  18.399  0.00  0.00    -0.246 OA
ENDBRANCH   5   6
BRANCH   1  16
HETATM   16  C   UNK N   1      34.878  12.800  12.329  0.00  0.00     0.306 C 
BRANCH  16  17
HETATM   17  N   UNK N   1      35.231  13.739  11.264  0.00  0.00     0.091 N 
HETATM   18  C   UNK N   1      35.060  13.116   9.962  0.00  0.00     0.272 C 
HETATM   19  C   UNK N   1      34.862  14.251   8.981  0.00  0.00     0.032 C 
HETATM   20  C   UNK N   1      34.351  15.401   9.825  0.00  0.00     0.032 C 
HETATM   21  C   UNK N   1      34.307  14.856  11.241  0.00  0.00     0.272 C 
ENDBRANCH  16  17
ENDBRANCH   1  16
BRANCH   3  22
HETATM   22  O   UNK N   1      37.471  12.711  13.463  0.00  0.00    -0.393 OA
HETATM   23  H   UNK N   1      37.957  11.920  13.744  0.00  0.00     0.210 HD
ENDBRANCH   3  22
TORSDOF 4
ENDMDL
MODEL 9
REMARK VINA RESULT:      -6.3      2.463      8.023
REMARK  4 active torsions:
REMARK  status: ('A' for Active; 'I' for Inactive)
REMARK    1  A    between atoms: N_5  and  C_6 
REMARK    2  A    between atoms: C_7  and  C_6 
REMARK    3  A    between atoms: C_9  and  O_10 
REMARK    4  A    between atoms: C_12  and  N_13 
ROOT
HETATM    1  C   UNK N   1      33.399  16.455   7.493  0.00  0.00     0.181 C 
HETATM    2  O   UNK N   1      34.424  16.422   8.466  0.00  0.00    -0.356 OA
HETATM    3  C   UNK N   1      32.112  16.234   8.277  0.00  0.00     0.153 C 
HETATM    4  C   UNK N   1      32.552  15.274   9.349  0.00  0.00     0.088 C 
HETATM    5  C   UNK N   1      34.068  15.245   9.180  0.00  0.00     0.235 C 
ENDROOT
BRANCH   5   6
HETATM    6  N   UNK N   1      34.876  15.007  10.401  0.00  0.00    -0.282 N 
HETATM    7  C   UNK N   1      34.755  13.774  10.972  0.00  0.00     0.110 A 
HETATM    8  C   UNK N   1      35.332  13.486  12.207  0.00  0.00     0.022 A 
HETATM    9  C   UNK N   1      35.139  12.140  12.816  0.00  0.00     0.056 C 
HETATM   10  C   UNK N   1      36.050  14.487  12.862  0.00  0.00     0.256 A 
HETATM   11  O   UNK N   1      36.539  14.284  13.960  0.00  0.00    -0.267 OA
HETATM   12  N   UNK N   1      36.200  15.707  12.268  0.00  0.00    -0.275 N 
HETATM   13  C   UNK N   1      35.627  15.982  11.053  0.00  0.00     0.331 A 
HETATM   14  H   UNK N   1      36.730  16.402  12.720  0.00  0.00     0.173 HD
HETATM   15  O   UNK N   1      35.768  17.093  10.577  0.00  0.00    -0.246 OA
ENDBRANCH   5   6
BRANCH   1  16
HETATM   16  C   UNK N   1      33.357  17.709   6.616  0.00  0.00     0.306 C 
BRANCH  16  17
HETATM   17  N   UNK N   1      33.688  17.324   5.243  0.00  0.00     0.091 N 
HETATM   18  C   UNK N   1      33.833  15.881   5.143  0.00  0.00     0.272 C 
HETATM   19  C   UNK N   1      33.581  15.538   3.691  0.00  0.00     0.032 C 
HETATM   20  C   UNK N   1      32.748  16.690   3.166  0.00  0.00     0.032 C 
HETATM   21  C   UNK N   1      32.590  17.630   4.347  0.00  0.00     0.272 C 
ENDBRANCH  16  17
ENDBRANCH   1  16
BRANCH   3  22
HETATM   22  O   UNK N   1      31.708  17.419   8.899  0.00  0.00    -0.393 OA
HETATM   23  H   UNK N   1      31.668  18.388   8.864  0.00  0.00     0.210 HD
ENDBRANCH   3  22
TORSDOF 4
ENDMDL
