MODEL 1
REMARK VINA RESULT:      -7.2      0.000      0.000
REMARK  4 active torsions:
REMARK  status: ('A' for Active; 'I' for Inactive)
REMARK    1  A    between atoms: C_1  and  C_12 
REMARK    2  A    between atoms: C_5  and  O_22 
REMARK    3  A    between atoms: C_6  and  C_12 
REMARK    4  A    between atoms: C_12  and  C_13 
ROOT
HETATM    1  C   UNK N   1      34.913  14.808  10.335  0.00  0.00     0.060 A 
HETATM    2  C   UNK N   1      35.421  16.148  10.344  0.00  0.00     0.298 A 
HETATM    3  C   UNK N   1      33.691  16.943   9.003  0.00  0.00     0.092 A 
HETATM    4  C   UNK N   1      33.107  15.668   8.924  0.00  0.00     0.032 A 
HETATM    5  C   UNK N   1      33.705  14.595   9.611  0.00  0.00     0.091 A 
HETATM    6  C   UNK N   1      33.128  18.020   8.309  0.00  0.00     0.038 A 
HETATM    7  C   UNK N   1      31.992  17.830   7.521  0.00  0.00     0.003 A 
HETATM    8  C   UNK N   1      31.409  16.562   7.430  0.00  0.00     0.001 A 
HETATM    9  C   UNK N   1      31.959  15.485   8.135  0.00  0.00     0.017 A 
HETATM   10  O   UNK N   1      36.455  16.419  10.924  0.00  0.00    -0.259 OA
HETATM   11  O   UNK N   1      34.790  17.129   9.708  0.00  0.00    -0.274 OA
ENDROOT
BRANCH   1  12
HETATM   12  C   UNK N   1      35.760  13.673  11.006  0.00  0.00     0.064 C 
BRANCH  12  13
HETATM   13  C   UNK N   1      35.726  13.414  12.530  0.00  0.00    -0.049 A 
HETATM   14  C   UNK N   1      34.903  12.402  13.069  0.00  0.00     0.009 A 
HETATM   15  C   UNK N   1      34.750  12.244  14.447  0.00  0.00     0.019 A 
HETATM   16  C   UNK N   1      35.422  13.093  15.321  0.00  0.00     0.011 A 
HETATM   17  C   UNK N   1      36.245  14.103  14.814  0.00  0.00     0.019 A 
HETATM   18 Br   UNK N   1      35.190  12.893  17.203  0.00  0.00    -0.051 Br
HETATM   19  C   UNK N   1      36.378  14.275  13.429  0.00  0.00     0.009 A 
ENDBRANCH  12  13
BRANCH  12  20
HETATM   20  C   UNK N   1      37.214  13.646  10.449  0.00  0.00    -0.010 C 
HETATM   21  C   UNK N   1      37.284  13.639   8.927  0.00  0.00     0.010 C 
HETATM   22  C   UNK N   1      38.113  12.584  11.058  0.00  0.00     0.010 C 
ENDBRANCH  12  20
ENDBRANCH   1  12
BRANCH   5  23
HETATM   23  O   UNK N   1      33.134  13.385   9.527  0.00  0.00    -0.359 OA
HETATM   24  H   UNK N   1      33.531  12.706   9.018  0.00  0.00     0.217 HD
ENDBRANCH   5  23
TORSDOF 4
ENDMDL
MODEL 2
REMARK VINA RESULT:      -7.2     10.401     13.174
REMARK  4 active torsions:
REMARK  status: ('A' for Active; 'I' for Inactive)
REMARK    1  A    between atoms: C_1  and  C_12 
REMARK    2  A    between atoms: C_5  and  O_22 
REMARK    3  A    between atoms: C_6  and  C_12 
REMARK    4  A    between atoms: C_12  and  C_13 
ROOT
HETATM    1  C   UNK N   1      25.182  19.528   3.801  0.00  0.00     0.060 A 
HETATM    2  C   UNK N   1      24.992  20.501   2.766  0.00  0.00     0.298 A 
HETATM    3  C   UNK N   1      22.679  20.233   2.771  0.00  0.00     0.092 A 
HETATM    4  C   UNK N   1      22.748  19.263   3.785  0.00  0.00     0.032 A 
HETATM    5  C   UNK N   1      24.003  18.922   4.323  0.00  0.00     0.091 A 
HETATM    6  C   UNK N   1      21.444  20.571   2.204  0.00  0.00     0.038 A 
HETATM    7  C   UNK N   1      20.278  19.934   2.631  0.00  0.00     0.003 A 
HETATM    8  C   UNK N   1      20.340  18.963   3.635  0.00  0.00     0.001 A 
HETATM    9  C   UNK N   1      21.570  18.632   4.216  0.00  0.00     0.017 A 
HETATM   10  O   UNK N   1      25.943  21.058   2.252  0.00  0.00    -0.259 OA
HETATM   11  O   UNK N   1      23.777  20.811   2.326  0.00  0.00    -0.274 OA
ENDROOT
BRANCH   1  12
HETATM   12  C   UNK N   1      26.643  19.122   4.199  0.00  0.00     0.064 C 
BRANCH  12  13
HETATM   13  C   UNK N   1      27.256  17.762   3.794  0.00  0.00    -0.049 A 
HETATM   14  C   UNK N   1      28.656  17.606   3.697  0.00  0.00     0.009 A 
HETATM   15  C   UNK N   1      29.226  16.433   3.200  0.00  0.00     0.019 A 
HETATM   16  C   UNK N   1      28.407  15.384   2.791  0.00  0.00     0.011 A 
HETATM   17  C   UNK N   1      27.018  15.512   2.876  0.00  0.00     0.019 A 
HETATM   18 Br   UNK N   1      29.187  13.793   2.085  0.00  0.00    -0.051 Br
HETATM   19  C   UNK N   1      26.447  16.700   3.355  0.00  0.00     0.009 A 
ENDBRANCH  12  13
BRANCH  12  20
HETATM   20  C   UNK N   1      26.942  19.468   5.688  0.00  0.00    -0.010 C 
HETATM   21  C   UNK N   1      27.547  20.853   5.882  0.00  0.00     0.010 C 
HETATM   22  C   UNK N   1      27.714  18.405   6.449  0.00  0.00     0.010 C 
ENDBRANCH  12  20
ENDBRANCH   1  12
BRANCH   5  23
HETATM   23  O   UNK N   1      24.053  17.996   5.292  0.00  0.00    -0.359 OA
HETATM   24  H   UNK N   1      23.433  17.294   5.312  0.00  0.00     0.217 HD
ENDBRANCH   5  23
TORSDOF 4
ENDMDL
MODEL 3
REMARK VINA RESULT:      -7.1     16.895     19.943
REMARK  4 active torsions:
REMARK  status: ('A' for Active; 'I' for Inactive)
REMARK    1  A    between atoms: C_1  and  C_12 
REMARK    2  A    between atoms: C_5  and  O_22 
REMARK    3  A    between atoms: C_6  and  C_12 
REMARK    4  A    between atoms: C_12  and  C_13 
ROOT
HETATM    1  C   UNK N   1      27.659  24.600  -4.784  0.00  0.00     0.060 A 
HETATM    2  C   UNK N   1      26.838  24.729  -3.617  0.00  0.00     0.298 A 
HETATM    3  C   UNK N   1      26.635  27.035  -3.865  0.00  0.00     0.092 A 
HETATM    4  C   UNK N   1      27.432  27.026  -5.021  0.00  0.00     0.032 A 
HETATM    5  C   UNK N   1      27.931  25.801  -5.501  0.00  0.00     0.091 A 
HETATM    6  C   UNK N   1      26.148  28.244  -3.355  0.00  0.00     0.038 A 
HETATM    7  C   UNK N   1      26.465  29.449  -3.984  0.00  0.00     0.003 A 
HETATM    8  C   UNK N   1      27.265  29.449  -5.130  0.00  0.00     0.001 A 
HETATM    9  C   UNK N   1      27.742  28.241  -5.653  0.00  0.00     0.017 A 
HETATM   10  O   UNK N   1      26.567  23.758  -2.935  0.00  0.00    -0.259 OA
HETATM   11  O   UNK N   1      26.363  25.909  -3.234  0.00  0.00    -0.274 OA
ENDROOT
BRANCH   1  12
HETATM   12  C   UNK N   1      28.283  23.202  -5.120  0.00  0.00     0.064 C 
BRANCH  12  13
HETATM   13  C   UNK N   1      29.703  22.804  -4.656  0.00  0.00    -0.049 A 
HETATM   14  C   UNK N   1      30.844  23.363  -5.272  0.00  0.00     0.009 A 
HETATM   15  C   UNK N   1      32.130  22.916  -4.967  0.00  0.00     0.019 A 
HETATM   16  C   UNK N   1      32.307  21.900  -4.032  0.00  0.00     0.011 A 
HETATM   17  C   UNK N   1      31.195  21.328  -3.407  0.00  0.00     0.019 A 
HETATM   18 Br   UNK N   1      34.064  21.271  -3.637  0.00  0.00    -0.051 Br
HETATM   19  C   UNK N   1      29.903  21.764  -3.732  0.00  0.00     0.009 A 
ENDBRANCH  12  13
BRANCH  12  20
HETATM   20  C   UNK N   1      28.033  22.812  -6.607  0.00  0.00    -0.010 C 
HETATM   21  C   UNK N   1      26.560  22.818  -6.999  0.00  0.00     0.010 C 
HETATM   22  C   UNK N   1      28.730  21.541  -7.061  0.00  0.00     0.010 C 
ENDBRANCH  12  20
ENDBRANCH   1  12
BRANCH   5  23
HETATM   23  O   UNK N   1      28.690  25.808  -6.607  0.00  0.00    -0.359 OA
HETATM   24  H   UNK N   1      28.400  25.374  -7.385  0.00  0.00     0.217 HD
ENDBRANCH   5  23
TORSDOF 4
ENDMDL
MODEL 4
REMARK VINA RESULT:      -7.0     14.078     16.196
REMARK  4 active torsions:
REMARK  status: ('A' for Active; 'I' for Inactive)
REMARK    1  A    between atoms: C_1  and  C_12 
REMARK    2  A    between atoms: C_5  and  O_22 
REMARK    3  A    between atoms: C_6  and  C_12 
REMARK    4  A    between atoms: C_12  and  C_13 
ROOT
HETATM    1  C   UNK N   1      20.196  16.853   5.751  0.00  0.00     0.060 A 
HETATM    2  C   UNK N   1      19.453  16.282   4.667  0.00  0.00     0.298 A 
HETATM    3  C   UNK N   1      20.246  17.849   3.138  0.00  0.00     0.092 A 
HETATM    4  C   UNK N   1      21.014  18.489   4.125  0.00  0.00     0.032 A 
HETATM    5  C   UNK N   1      21.010  17.978   5.436  0.00  0.00     0.091 A 
HETATM    6  C   UNK N   1      20.215  18.353   1.833  0.00  0.00     0.038 A 
HETATM    7  C   UNK N   1      20.934  19.505   1.509  0.00  0.00     0.003 A 
HETATM    8  C   UNK N   1      21.694  20.153   2.487  0.00  0.00     0.001 A 
HETATM    9  C   UNK N   1      21.740  19.643   3.791  0.00  0.00     0.017 A 
HETATM   10  O   UNK N   1      18.720  15.328   4.848  0.00  0.00    -0.259 OA
HETATM   11  O   UNK N   1      19.527  16.785   3.440  0.00  0.00    -0.274 OA
ENDROOT
BRANCH   1  12
HETATM   12  C   UNK N   1      19.980  16.287   7.197  0.00  0.00     0.064 C 
BRANCH  12  13
HETATM   13  C   UNK N   1      19.172  17.057   8.268  0.00  0.00    -0.049 A 
HETATM   14  C   UNK N   1      19.767  18.111   8.996  0.00  0.00     0.009 A 
HETATM   15  C   UNK N   1      19.105  18.725  10.060  0.00  0.00     0.019 A 
HETATM   16  C   UNK N   1      17.828  18.303  10.420  0.00  0.00     0.011 A 
HETATM   17  C   UNK N   1      17.216  17.262   9.715  0.00  0.00     0.019 A 
HETATM   18 Br   UNK N   1      16.938  19.125  11.892  0.00  0.00    -0.051 Br
HETATM   19  C   UNK N   1      17.892  16.631   8.661  0.00  0.00     0.009 A 
ENDBRANCH  12  13
BRANCH  12  20
HETATM   20  C   UNK N   1      21.300  15.704   7.781  0.00  0.00    -0.010 C 
HETATM   21  C   UNK N   1      22.161  14.989   6.746  0.00  0.00     0.010 C 
HETATM   22  C   UNK N   1      21.130  14.872   9.041  0.00  0.00     0.010 C 
ENDBRANCH  12  20
ENDBRANCH   1  12
BRANCH   5  23
HETATM   23  O   UNK N   1      21.749  18.600   6.367  0.00  0.00    -0.359 OA
HETATM   24  H   UNK N   1      22.303  18.108   6.941  0.00  0.00     0.217 HD
ENDBRANCH   5  23
TORSDOF 4
ENDMDL
MODEL 5
REMARK VINA RESULT:      -6.9     18.492     20.881
REMARK  4 active torsions:
REMARK  status: ('A' for Active; 'I' for Inactive)
REMARK    1  A    between atoms: C_1  and  C_12 
REMARK    2  A    between atoms: C_5  and  O_22 
REMARK    3  A    between atoms: C_6  and  C_12 
REMARK    4  A    between atoms: C_12  and  C_13 
ROOT
HETATM    1  C   UNK N   1      27.636  27.469  -3.853  0.00  0.00     0.060 A 
HETATM    2  C   UNK N   1      26.710  28.159  -3.006  0.00  0.00     0.298 A 
HETATM    3  C   UNK N   1      28.370  29.509  -2.085  0.00  0.00     0.092 A 
HETATM    4  C   UNK N   1      29.363  28.898  -2.869  0.00  0.00     0.032 A 
HETATM    5  C   UNK N   1      28.996  27.887  -3.776  0.00  0.00     0.091 A 
HETATM    6  C   UNK N   1      28.715  30.499  -1.158  0.00  0.00     0.038 A 
HETATM    7  C   UNK N   1      30.049  30.874  -0.996  0.00  0.00     0.003 A 
HETATM    8  C   UNK N   1      31.044  30.265  -1.766  0.00  0.00     0.001 A 
HETATM    9  C   UNK N   1      30.703  29.284  -2.705  0.00  0.00     0.017 A 
HETATM   10  O   UNK N   1      25.532  27.859  -2.994  0.00  0.00    -0.259 OA
HETATM   11  O   UNK N   1      27.110  29.134  -2.196  0.00  0.00    -0.274 OA
ENDROOT
BRANCH   1  12
HETATM   12  C   UNK N   1      27.125  26.253  -4.700  0.00  0.00     0.064 C 
BRANCH  12  13
HETATM   13  C   UNK N   1      27.907  24.921  -4.780  0.00  0.00    -0.049 A 
HETATM   14  C   UNK N   1      28.387  24.299  -3.608  0.00  0.00     0.009 A 
HETATM   15  C   UNK N   1      29.212  23.175  -3.665  0.00  0.00     0.019 A 
HETATM   16  C   UNK N   1      29.573  22.642  -4.899  0.00  0.00     0.011 A 
HETATM   17  C   UNK N   1      29.111  23.238  -6.076  0.00  0.00     0.019 A 
HETATM   18 Br   UNK N   1      30.723  21.122  -4.976  0.00  0.00    -0.051 Br
HETATM   19  C   UNK N   1      28.301  24.381  -6.016  0.00  0.00     0.009 A 
ENDBRANCH  12  13
BRANCH  12  20
HETATM   20  C   UNK N   1      26.622  26.710  -6.101  0.00  0.00    -0.010 C 
HETATM   21  C   UNK N   1      27.291  27.983  -6.604  0.00  0.00     0.010 C 
HETATM   22  C   UNK N   1      25.111  26.774  -6.249  0.00  0.00     0.010 C 
ENDBRANCH  12  20
ENDBRANCH   1  12
BRANCH   5  23
HETATM   23  O   UNK N   1      29.955  27.314  -4.518  0.00  0.00    -0.359 OA
HETATM   24  H   UNK N   1      30.426  27.814  -5.155  0.00  0.00     0.217 HD
ENDBRANCH   5  23
TORSDOF 4
ENDMDL
MODEL 6
REMARK VINA RESULT:      -6.8     17.307     21.401
REMARK  4 active torsions:
REMARK  status: ('A' for Active; 'I' for Inactive)
REMARK    1  A    between atoms: C_1  and  C_12 
REMARK    2  A    between atoms: C_5  and  O_22 
REMARK    3  A    between atoms: C_6  and  C_12 
REMARK    4  A    between atoms: C_12  and  C_13 
ROOT
HETATM    1  C   UNK N   1      27.932  24.900  -4.406  0.00  0.00     0.060 A 
HETATM    2  C   UNK N   1      27.681  24.127  -3.226  0.00  0.00     0.298 A 
HETATM    3  C   UNK N   1      29.824  23.216  -3.220  0.00  0.00     0.092 A 
HETATM    4  C   UNK N   1      30.178  23.927  -4.379  0.00  0.00     0.032 A 
HETATM    5  C   UNK N   1      29.237  24.793  -4.967  0.00  0.00     0.091 A 
HETATM    6  C   UNK N   1      30.735  22.331  -2.632  0.00  0.00     0.038 A 
HETATM    7  C   UNK N   1      31.994  22.137  -3.203  0.00  0.00     0.003 A 
HETATM    8  C   UNK N   1      32.350  22.835  -4.361  0.00  0.00     0.001 A 
HETATM    9  C   UNK N   1      31.448  23.733  -4.944  0.00  0.00     0.017 A 
HETATM   10  O   UNK N   1      26.590  24.145  -2.689  0.00  0.00    -0.259 OA
HETATM   11  O   UNK N   1      28.623  23.356  -2.694  0.00  0.00    -0.274 OA
ENDROOT
BRANCH   1  12
HETATM   12  C   UNK N   1      26.749  25.700  -5.052  0.00  0.00     0.064 C 
BRANCH  12  13
HETATM   13  C   UNK N   1      26.334  25.505  -6.529  0.00  0.00    -0.049 A 
HETATM   14  C   UNK N   1      25.976  24.227  -7.011  0.00  0.00     0.009 A 
HETATM   15  C   UNK N   1      25.734  24.001  -8.367  0.00  0.00     0.019 A 
HETATM   16  C   UNK N   1      25.841  25.052  -9.274  0.00  0.00     0.011 A 
HETATM   17  C   UNK N   1      26.194  26.327  -8.824  0.00  0.00     0.019 A 
HETATM   18 Br   UNK N   1      25.538  24.735 -11.130  0.00  0.00    -0.051 Br
HETATM   19  C   UNK N   1      26.459  26.546  -7.464  0.00  0.00     0.009 A 
ENDBRANCH  12  13
BRANCH  12  20
HETATM   20  C   UNK N   1      26.806  27.207  -4.665  0.00  0.00    -0.010 C 
HETATM   21  C   UNK N   1      28.070  27.594  -3.906  0.00  0.00     0.010 C 
HETATM   22  C   UNK N   1      25.557  27.741  -3.985  0.00  0.00     0.010 C 
ENDBRANCH  12  20
ENDBRANCH   1  12
BRANCH   5  23
HETATM   23  O   UNK N   1      29.590  25.466  -6.072  0.00  0.00    -0.359 OA
HETATM   24  H   UNK N   1      30.319  26.054  -6.058  0.00  0.00     0.217 HD
ENDBRANCH   5  23
TORSDOF 4
ENDMDL
MODEL 7
REMARK VINA RESULT:      -6.8      3.112      6.736
REMARK  4 active torsions:
REMARK  status: ('A' for Active; 'I' for Inactive)
REMARK    1  A    between atoms: C_1  and  C_12 
REMARK    2  A    between atoms: C_5  and  O_22 
REMARK    3  A    between atoms: C_6  and  C_12 
REMARK    4  A    between atoms: C_12  and  C_13 
ROOT
HETATM    1  C   UNK N   1      35.823  13.509  12.197  0.00  0.00     0.060 A 
HETATM    2  C   UNK N   1      34.991  12.373  11.935  0.00  0.00     0.298 A 
HETATM    3  C   UNK N   1      34.779  11.853  14.194  0.00  0.00     0.092 A 
HETATM    4  C   UNK N   1      35.587  12.940  14.566  0.00  0.00     0.032 A 
HETATM    5  C   UNK N   1      36.097  13.790  13.567  0.00  0.00     0.091 A 
HETATM    6  C   UNK N   1      34.281  10.981  15.169  0.00  0.00     0.038 A 
HETATM    7  C   UNK N   1      34.598  11.176  16.514  0.00  0.00     0.003 A 
HETATM    8  C   UNK N   1      35.409  12.251  16.891  0.00  0.00     0.001 A 
HETATM    9  C   UNK N   1      35.897  13.136  15.922  0.00  0.00     0.017 A 
HETATM   10  O   UNK N   1      34.718  12.050  10.794  0.00  0.00    -0.259 OA
HETATM   11  O   UNK N   1      34.506  11.630  12.923  0.00  0.00    -0.274 OA
ENDROOT
BRANCH   1  12
HETATM   12  C   UNK N   1      36.458  14.278  10.987  0.00  0.00     0.064 C 
BRANCH  12  13
HETATM   13  C   UNK N   1      35.597  15.059   9.968  0.00  0.00    -0.049 A 
HETATM   14  C   UNK N   1      35.301  14.505   8.704  0.00  0.00     0.009 A 
HETATM   15  C   UNK N   1      34.646  15.245   7.718  0.00  0.00     0.019 A 
HETATM   16  C   UNK N   1      34.267  16.559   7.976  0.00  0.00     0.011 A 
HETATM   17  C   UNK N   1      34.547  17.133   9.219  0.00  0.00     0.019 A 
HETATM   18 Br   UNK N   1      33.397  17.578   6.618  0.00  0.00    -0.051 Br
HETATM   19  C   UNK N   1      35.225  16.394  10.199  0.00  0.00     0.009 A 
ENDBRANCH  12  13
BRANCH  12  20
HETATM   20  C   UNK N   1      37.551  13.423  10.282  0.00  0.00    -0.010 C 
HETATM   21  C   UNK N   1      38.195  12.384  11.193  0.00  0.00     0.010 C 
HETATM   22  C   UNK N   1      38.592  14.220   9.515  0.00  0.00     0.010 C 
ENDBRANCH  12  20
ENDBRANCH   1  12
BRANCH   5  23
HETATM   23  O   UNK N   1      36.866  14.824  13.937  0.00  0.00    -0.359 OA
HETATM   24  H   UNK N   1      37.301  15.348  13.294  0.00  0.00     0.217 HD
ENDBRANCH   5  23
TORSDOF 4
ENDMDL
MODEL 8
REMARK VINA RESULT:      -6.8      0.950      2.184
REMARK  4 active torsions:
REMARK  status: ('A' for Active; 'I' for Inactive)
REMARK    1  A    between atoms: C_1  and  C_12 
REMARK    2  A    between atoms: C_5  and  O_22 
REMARK    3  A    between atoms: C_6  and  C_12 
REMARK    4  A    between atoms: C_12  and  C_13 
ROOT
HETATM    1  C   UNK N   1      34.963  13.850   9.797  0.00  0.00     0.060 A 
HETATM    2  C   UNK N   1      33.765  13.404   9.150  0.00  0.00     0.298 A 
HETATM    3  C   UNK N   1      33.248  15.536   8.369  0.00  0.00     0.092 A 
HETATM    4  C   UNK N   1      34.396  16.082   8.967  0.00  0.00     0.032 A 
HETATM    5  C   UNK N   1      35.274  15.234   9.667  0.00  0.00     0.091 A 
HETATM    6  C   UNK N   1      32.347  16.363   7.689  0.00  0.00     0.038 A 
HETATM    7  C   UNK N   1      32.576  17.738   7.614  0.00  0.00     0.003 A 
HETATM    8  C   UNK N   1      33.713  18.290   8.213  0.00  0.00     0.001 A 
HETATM    9  C   UNK N   1      34.625  17.465   8.881  0.00  0.00     0.017 A 
HETATM   10  O   UNK N   1      33.414  12.242   9.222  0.00  0.00    -0.259 OA
HETATM   11  O   UNK N   1      32.995  14.245   8.469  0.00  0.00    -0.274 OA
ENDROOT
BRANCH   1  12
HETATM   12  C   UNK N   1      35.769  12.836  10.680  0.00  0.00     0.064 C 
BRANCH  12  13
HETATM   13  C   UNK N   1      35.711  12.866  12.225  0.00  0.00    -0.049 A 
HETATM   14  C   UNK N   1      34.842  12.004  12.928  0.00  0.00     0.009 A 
HETATM   15  C   UNK N   1      34.671  12.109  14.309  0.00  0.00     0.019 A 
HETATM   16  C   UNK N   1      35.370  13.078  15.022  0.00  0.00     0.011 A 
HETATM   17  C   UNK N   1      36.238  13.944  14.351  0.00  0.00     0.019 A 
HETATM   18 Br   UNK N   1      35.113  13.238  16.905  0.00  0.00    -0.051 Br
HETATM   19  C   UNK N   1      36.391  13.851  12.960  0.00  0.00     0.009 A 
ENDBRANCH  12  13
BRANCH  12  20
HETATM   20  C   UNK N   1      37.228  12.668  10.161  0.00  0.00    -0.010 C 
HETATM   21  C   UNK N   1      37.335  12.636   8.641  0.00  0.00     0.010 C 
HETATM   22  C   UNK N   1      38.009  11.534  10.803  0.00  0.00     0.010 C 
ENDBRANCH  12  20
ENDBRANCH   1  12
BRANCH   5  23
HETATM   23  O   UNK N   1      36.367  15.770  10.230  0.00  0.00    -0.359 OA
HETATM   24  H   UNK N   1      36.604  16.660  10.057  0.00  0.00     0.217 HD
ENDBRANCH   5  23
TORSDOF 4
ENDMDL
MODEL 9
REMARK VINA RESULT:      -6.5     12.486     15.059
REMARK  4 active torsions:
REMARK  status: ('A' for Active; 'I' for Inactive)
REMARK    1  A    between atoms: C_1  and  C_12 
REMARK    2  A    between atoms: C_5  and  O_22 
REMARK    3  A    between atoms: C_6  and  C_12 
REMARK    4  A    between atoms: C_12  and  C_13 
ROOT
HETATM    1  C   UNK N   1      22.127  14.333   7.216  0.00  0.00     0.060 A 
HETATM    2  C   UNK N   1      20.750  14.344   7.609  0.00  0.00     0.298 A 
HETATM    3  C   UNK N   1      21.190  13.258   9.622  0.00  0.00     0.092 A 
HETATM    4  C   UNK N   1      22.564  13.191   9.336  0.00  0.00     0.032 A 
HETATM    5  C   UNK N   1      23.044  13.750   8.137  0.00  0.00     0.091 A 
HETATM    6  C   UNK N   1      20.687  12.687  10.796  0.00  0.00     0.038 A 
HETATM    7  C   UNK N   1      21.545  12.033  11.682  0.00  0.00     0.003 A 
HETATM    8  C   UNK N   1      22.912  11.955  11.401  0.00  0.00     0.001 A 
HETATM    9  C   UNK N   1      23.423  12.538  10.235  0.00  0.00     0.017 A 
HETATM   10  O   UNK N   1      19.896  14.808   6.878  0.00  0.00    -0.259 OA
HETATM   11  O   UNK N   1      20.361  13.835   8.773  0.00  0.00    -0.274 OA
ENDROOT
BRANCH   1  12
HETATM   12  C   UNK N   1      22.509  14.844   5.784  0.00  0.00     0.064 C 
BRANCH  12  13
HETATM   13  C   UNK N   1      21.891  16.125   5.177  0.00  0.00    -0.049 A 
HETATM   14  C   UNK N   1      21.335  16.109   3.879  0.00  0.00     0.009 A 
HETATM   15  C   UNK N   1      20.899  17.280   3.258  0.00  0.00     0.019 A 
HETATM   16  C   UNK N   1      21.006  18.498   3.924  0.00  0.00     0.011 A 
HETATM   17  C   UNK N   1      21.552  18.543   5.210  0.00  0.00     0.019 A 
HETATM   18 Br   UNK N   1      20.436  20.102   3.063  0.00  0.00    -0.051 Br
HETATM   19  C   UNK N   1      22.010  17.367   5.822  0.00  0.00     0.009 A 
ENDBRANCH  12  13
BRANCH  12  20
HETATM   20  C   UNK N   1      22.540  13.676   4.754  0.00  0.00    -0.010 C 
HETATM   21  C   UNK N   1      21.638  12.507   5.131  0.00  0.00     0.010 C 
HETATM   22  C   UNK N   1      23.930  13.208   4.359  0.00  0.00     0.010 C 
ENDBRANCH  12  20
ENDBRANCH   1  12
BRANCH   5  23
HETATM   23  O   UNK N   1      24.358  13.679   7.879  0.00  0.00    -0.359 OA
HETATM   24  H   UNK N   1      24.739  12.883   7.565  0.00  0.00     0.217 HD
ENDBRANCH   5  23
TORSDOF 4
ENDMDL
