REMARK  4 active torsions:
REMARK  status: ('A' for Active; 'I' for Inactive)
REMARK    1  A    between atoms: C_1  and  C_12 
REMARK    2  A    between atoms: C_5  and  O_22 
REMARK    3  A    between atoms: C_6  and  C_12 
REMARK    4  A    between atoms: C_12  and  C_13 
ROOT
HETATM    1  C   UNK N   1       0.513  -0.817  -0.168  0.00  0.00     0.060 A 
HETATM    2  C   UNK N   1       0.589  -2.239  -0.324  0.00  0.00     0.298 A 
HETATM    3  C   UNK N   1       2.892  -2.276   0.018  0.00  0.00     0.092 A 
HETATM    4  C   UNK N   1       2.934  -0.882   0.186  0.00  0.00     0.032 A 
HETATM    5  C   UNK N   1       1.737  -0.146   0.116  0.00  0.00     0.091 A 
HETATM    6  C   UNK N   1       4.073  -3.026   0.059  0.00  0.00     0.038 A 
HETATM    7  C   UNK N   1       5.301  -2.391   0.251  0.00  0.00     0.003 A 
HETATM    8  C   UNK N   1       5.352  -1.003   0.411  0.00  0.00     0.001 A 
HETATM    9  C   UNK N   1       4.172  -0.250   0.386  0.00  0.00     0.017 A 
HETATM   10  O   UNK N   1      -0.404  -2.892  -0.583  0.00  0.00    -0.259 OA
HETATM   11  O   UNK N   1       1.744  -2.885  -0.208  0.00  0.00    -0.274 OA
ENDROOT
BRANCH   1  12
HETATM   12  C   UNK N   1      -0.856  -0.099  -0.429  0.00  0.00     0.064 C 
BRANCH  12  13
HETATM   13  C   UNK N   1      -1.061   1.407  -0.145  0.00  0.00    -0.049 A 
HETATM   14  C   UNK N   1      -2.137   1.847   0.656  0.00  0.00     0.009 A 
HETATM   15  C   UNK N   1      -2.423   3.204   0.811  0.00  0.00     0.019 A 
HETATM   16  C   UNK N   1      -1.635   4.156   0.170  0.00  0.00     0.011 A 
HETATM   17  C   UNK N   1      -0.563   3.748  -0.629  0.00  0.00     0.019 A 
HETATM   18 Br   UNK N   1      -2.045   6.009   0.360  0.00  0.00    -0.051 Br
HETATM   19  C   UNK N   1      -0.292   2.383  -0.801  0.00  0.00     0.009 A 
ENDBRANCH  12  13
BRANCH  12  20
HETATM   20  C   UNK N   1      -2.051  -0.951   0.091  0.00  0.00    -0.010 C 
HETATM   21  C   UNK N   1      -3.378  -0.613  -0.578  0.00  0.00     0.010 C 
HETATM   22  C   UNK N   1      -2.184  -1.012   1.603  0.00  0.00     0.010 C 
ENDBRANCH  12  20
ENDBRANCH   1  12
BRANCH   5  23
HETATM   23  O   UNK N   1       1.793   1.184   0.280  0.00  0.00    -0.359 OA
HETATM   24  H   UNK N   1       2.617   1.615   0.394  0.00  0.00     0.217 HD
ENDBRANCH   5  23
TORSDOF 4
