MODEL 1
REMARK VINA RESULT:      -7.0      0.000      0.000
REMARK  5 active torsions:
REMARK  status: ('A' for Active; 'I' for Inactive)
REMARK    1  A    between atoms: C_1  and  C_12 
REMARK    2  A    between atoms: C_5  and  O_22 
REMARK    3  A    between atoms: C_6  and  C_12 
REMARK    4  A    between atoms: C_12  and  C_13 
REMARK    5  A    between atoms: C_16  and  O_23 
ROOT
HETATM    1  C   UNK N   1      33.284  16.980   8.338  0.00  0.00     0.060 A 
HETATM    2  C   UNK N   1      34.476  17.676   8.702  0.00  0.00     0.298 A 
HETATM    3  C   UNK N   1      35.363  15.825   9.818  0.00  0.00     0.095 A 
HETATM    4  C   UNK N   1      34.231  15.054   9.525  0.00  0.00     0.032 A 
HETATM    5  C   UNK N   1      33.194  15.621   8.781  0.00  0.00     0.091 A 
HETATM    6  C   UNK N   1      36.435  15.256  10.515  0.00  0.00     0.075 A 
HETATM    7  C   UNK N   1      36.388  13.917  10.922  0.00  0.00     0.070 A 
HETATM    8  C   UNK N   1      35.241  13.153  10.645  0.00  0.00     0.038 A 
HETATM    9  C   UNK N   1      34.170  13.719   9.951  0.00  0.00     0.020 A 
HETATM   10  O   UNK N   1      34.660  18.825   8.357  0.00  0.00    -0.259 OA
HETATM   11  O   UNK N   1      35.434  17.084   9.410  0.00  0.00    -0.274 OA
ENDROOT
BRANCH   1  12
HETATM   12  C   UNK N   1      32.175  17.590   7.409  0.00  0.00     0.060 C 
BRANCH  12  13
HETATM   13  C   UNK N   1      30.724  17.780   7.899  0.00  0.00    -0.049 A 
HETATM   14  C   UNK N   1      29.645  17.195   7.215  0.00  0.00     0.008 A 
HETATM   15  C   UNK N   1      28.341  17.288   7.712  0.00  0.00     0.001 A 
HETATM   16  C   UNK N   1      28.097  17.933   8.926  0.00  0.00     0.000 A 
HETATM   17  C   UNK N   1      29.157  18.489   9.640  0.00  0.00     0.001 A 
HETATM   18  C   UNK N   1      30.456  18.409   9.134  0.00  0.00     0.008 A 
ENDBRANCH  12  13
BRANCH  12  19
HETATM   19  C   UNK N   1      32.168  16.994   5.984  0.00  0.00     0.010 C 
HETATM   20  C   UNK N   1      33.338  17.463   5.130  0.00  0.00     0.006 C 
ENDBRANCH  12  19
ENDBRANCH   1  12
BRANCH   5  21
HETATM   21  O   UNK N   1      32.136  14.848   8.472  0.00  0.00    -0.359 OA
HETATM   22  H   UNK N   1      31.309  15.222   8.237  0.00  0.00     0.217 HD
ENDBRANCH   5  21
BRANCH   7  23
HETATM   23  O   UNK N   1      37.457  13.383  11.559  0.00  0.00    -0.356 OA
HETATM   24  C   UNK N   1      37.531  12.057  11.927  0.00  0.00     0.210 C 
ENDBRANCH   7  23
TORSDOF 5
ENDMDL
MODEL 2
REMARK VINA RESULT:      -7.0      3.442      5.509
REMARK  5 active torsions:
REMARK  status: ('A' for Active; 'I' for Inactive)
REMARK    1  A    between atoms: C_1  and  C_12 
REMARK    2  A    between atoms: C_5  and  O_22 
REMARK    3  A    between atoms: C_6  and  C_12 
REMARK    4  A    between atoms: C_12  and  C_13 
REMARK    5  A    between atoms: C_16  and  O_23 
ROOT
HETATM    1  C   UNK N   1      29.655  17.144   5.244  0.00  0.00     0.060 A 
HETATM    2  C   UNK N   1      29.253  16.971   6.603  0.00  0.00     0.298 A 
HETATM    3  C   UNK N   1      31.441  17.171   7.401  0.00  0.00     0.095 A 
HETATM    4  C   UNK N   1      31.942  17.338   6.105  0.00  0.00     0.032 A 
HETATM    5  C   UNK N   1      31.057  17.333   5.024  0.00  0.00     0.091 A 
HETATM    6  C   UNK N   1      32.307  17.229   8.500  0.00  0.00     0.075 A 
HETATM    7  C   UNK N   1      33.676  17.455   8.313  0.00  0.00     0.070 A 
HETATM    8  C   UNK N   1      34.179  17.601   7.009  0.00  0.00     0.038 A 
HETATM    9  C   UNK N   1      33.316  17.542   5.912  0.00  0.00     0.020 A 
HETATM   10  O   UNK N   1      28.085  16.826   6.898  0.00  0.00    -0.259 OA
HETATM   11  O   UNK N   1      30.142  16.989   7.594  0.00  0.00    -0.274 OA
ENDROOT
BRANCH   1  12
HETATM   12  C   UNK N   1      28.641  17.247   4.049  0.00  0.00     0.060 C 
BRANCH  12  13
HETATM   13  C   UNK N   1      27.488  18.273   4.053  0.00  0.00    -0.049 A 
HETATM   14  C   UNK N   1      27.730  19.635   4.297  0.00  0.00     0.008 A 
HETATM   15  C   UNK N   1      26.700  20.578   4.207  0.00  0.00     0.001 A 
HETATM   16  C   UNK N   1      25.417  20.180   3.829  0.00  0.00     0.000 A 
HETATM   17  C   UNK N   1      25.161  18.839   3.547  0.00  0.00     0.001 A 
HETATM   18  C   UNK N   1      26.187  17.898   3.652  0.00  0.00     0.008 A 
ENDBRANCH  12  13
BRANCH  12  19
HETATM   19  C   UNK N   1      28.115  15.877   3.566  0.00  0.00     0.010 C 
HETATM   20  C   UNK N   1      28.904  15.309   2.394  0.00  0.00     0.006 C 
ENDBRANCH  12  19
ENDBRANCH   1  12
BRANCH   5  21
HETATM   21  O   UNK N   1      31.555  17.541   3.792  0.00  0.00    -0.359 OA
HETATM   22  H   UNK N   1      32.204  18.199   3.631  0.00  0.00     0.217 HD
ENDBRANCH   5  21
BRANCH   7  23
HETATM   23  O   UNK N   1      34.483  17.545   9.398  0.00  0.00    -0.356 OA
HETATM   24  C   UNK N   1      34.983  16.444  10.059  0.00  0.00     0.210 C 
ENDBRANCH   7  23
TORSDOF 5
ENDMDL
MODEL 3
REMARK VINA RESULT:      -6.8      3.827      8.621
REMARK  5 active torsions:
REMARK  status: ('A' for Active; 'I' for Inactive)
REMARK    1  A    between atoms: C_1  and  C_12 
REMARK    2  A    between atoms: C_5  and  O_22 
REMARK    3  A    between atoms: C_6  and  C_12 
REMARK    4  A    between atoms: C_12  and  C_13 
REMARK    5  A    between atoms: C_16  and  O_23 
ROOT
HETATM    1  C   UNK N   1      35.801  12.958  13.856  0.00  0.00     0.060 A 
HETATM    2  C   UNK N   1      36.506  14.167  14.139  0.00  0.00     0.298 A 
HETATM    3  C   UNK N   1      35.759  15.205  12.184  0.00  0.00     0.095 A 
HETATM    4  C   UNK N   1      35.039  14.065  11.805  0.00  0.00     0.032 A 
HETATM    5  C   UNK N   1      35.049  12.944  12.637  0.00  0.00     0.091 A 
HETATM    6  C   UNK N   1      35.715  16.357  11.389  0.00  0.00     0.075 A 
HETATM    7  C   UNK N   1      34.953  16.380  10.215  0.00  0.00     0.070 A 
HETATM    8  C   UNK N   1      34.250  15.227   9.826  0.00  0.00     0.038 A 
HETATM    9  C   UNK N   1      34.294  14.077  10.617  0.00  0.00     0.020 A 
HETATM   10  O   UNK N   1      37.154  14.290  15.158  0.00  0.00    -0.259 OA
HETATM   11  O   UNK N   1      36.457  15.207  13.310  0.00  0.00    -0.274 OA
ENDROOT
BRANCH   1  12
HETATM   12  C   UNK N   1      35.729  11.745  14.850  0.00  0.00     0.060 C 
BRANCH  12  13
HETATM   13  C   UNK N   1      35.657  11.954  16.378  0.00  0.00    -0.049 A 
HETATM   14  C   UNK N   1      35.171  13.154  16.923  0.00  0.00     0.008 A 
HETATM   15  C   UNK N   1      35.017  13.308  18.305  0.00  0.00     0.001 A 
HETATM   16  C   UNK N   1      35.307  12.247  19.165  0.00  0.00     0.000 A 
HETATM   17  C   UNK N   1      35.756  11.035  18.644  0.00  0.00     0.001 A 
HETATM   18  C   UNK N   1      35.924  10.890  17.265  0.00  0.00     0.008 A 
ENDBRANCH  12  13
BRANCH  12  19
HETATM   19  C   UNK N   1      36.739  10.622  14.526  0.00  0.00     0.010 C 
HETATM   20  C   UNK N   1      38.157  11.132  14.310  0.00  0.00     0.006 C 
ENDBRANCH  12  19
ENDBRANCH   1  12
BRANCH   5  21
HETATM   21  O   UNK N   1      34.314  11.876  12.275  0.00  0.00    -0.359 OA
HETATM   22  H   UNK N   1      34.282  11.102  12.804  0.00  0.00     0.217 HD
ENDBRANCH   5  21
BRANCH   7  23
HETATM   23  O   UNK N   1      34.898  17.522   9.487  0.00  0.00    -0.356 OA
HETATM   24  C   UNK N   1      34.182  17.635   8.315  0.00  0.00     0.210 C 
ENDBRANCH   7  23
TORSDOF 5
ENDMDL
MODEL 4
REMARK VINA RESULT:      -6.7     14.323     17.251
REMARK  5 active torsions:
REMARK  status: ('A' for Active; 'I' for Inactive)
REMARK    1  A    between atoms: C_1  and  C_12 
REMARK    2  A    between atoms: C_5  and  O_22 
REMARK    3  A    between atoms: C_6  and  C_12 
REMARK    4  A    between atoms: C_12  and  C_13 
REMARK    5  A    between atoms: C_16  and  O_23 
ROOT
HETATM    1  C   UNK N   1      27.875  25.512  -5.006  0.00  0.00     0.060 A 
HETATM    2  C   UNK N   1      27.393  24.891  -3.814  0.00  0.00     0.298 A 
HETATM    3  C   UNK N   1      29.385  23.717  -3.476  0.00  0.00     0.095 A 
HETATM    4  C   UNK N   1      29.951  24.261  -4.635  0.00  0.00     0.032 A 
HETATM    5  C   UNK N   1      29.207  25.163  -5.400  0.00  0.00     0.091 A 
HETATM    6  C   UNK N   1      30.137  22.856  -2.668  0.00  0.00     0.075 A 
HETATM    7  C   UNK N   1      31.456  22.532  -3.010  0.00  0.00     0.070 A 
HETATM    8  C   UNK N   1      32.012  23.062  -4.186  0.00  0.00     0.038 A 
HETATM    9  C   UNK N   1      31.264  23.921  -4.994  0.00  0.00     0.020 A 
HETATM   10  O   UNK N   1      26.286  25.138  -3.383  0.00  0.00    -0.259 OA
HETATM   11  O   UNK N   1      28.150  24.041  -3.123  0.00  0.00    -0.274 OA
ENDROOT
BRANCH   1  12
HETATM   12  C   UNK N   1      27.073  26.607  -5.796  0.00  0.00     0.060 C 
BRANCH  12  13
HETATM   13  C   UNK N   1      27.015  28.072  -5.315  0.00  0.00    -0.049 A 
HETATM   14  C   UNK N   1      26.238  28.440  -4.204  0.00  0.00     0.008 A 
HETATM   15  C   UNK N   1      26.260  29.749  -3.711  0.00  0.00     0.001 A 
HETATM   16  C   UNK N   1      27.094  30.704  -4.295  0.00  0.00     0.000 A 
HETATM   17  C   UNK N   1      27.901  30.352  -5.375  0.00  0.00     0.001 A 
HETATM   18  C   UNK N   1      27.865  29.049  -5.875  0.00  0.00     0.008 A 
ENDBRANCH  12  13
BRANCH  12  19
HETATM   19  C   UNK N   1      25.663  26.146  -6.229  0.00  0.00     0.010 C 
HETATM   20  C   UNK N   1      25.668  25.304  -7.497  0.00  0.00     0.006 C 
ENDBRANCH  12  19
ENDBRANCH   1  12
BRANCH   5  21
HETATM   21  O   UNK N   1      29.786  25.707  -6.485  0.00  0.00    -0.359 OA
HETATM   22  H   UNK N   1      30.706  25.888  -6.509  0.00  0.00     0.217 HD
ENDBRANCH   5  21
BRANCH   7  23
HETATM   23  O   UNK N   1      32.171  21.727  -2.188  0.00  0.00    -0.356 OA
HETATM   24  C   UNK N   1      33.288  21.031  -2.599  0.00  0.00     0.210 C 
ENDBRANCH   7  23
TORSDOF 5
ENDMDL
MODEL 5
REMARK VINA RESULT:      -6.7      5.194     10.021
REMARK  5 active torsions:
REMARK  status: ('A' for Active; 'I' for Inactive)
REMARK    1  A    between atoms: C_1  and  C_12 
REMARK    2  A    between atoms: C_5  and  O_22 
REMARK    3  A    between atoms: C_6  and  C_12 
REMARK    4  A    between atoms: C_12  and  C_13 
REMARK    5  A    between atoms: C_16  and  O_23 
ROOT
HETATM    1  C   UNK N   1      27.610  17.176   5.480  0.00  0.00     0.060 A 
HETATM    2  C   UNK N   1      26.272  16.751   5.740  0.00  0.00     0.298 A 
HETATM    3  C   UNK N   1      25.344  18.526   4.536  0.00  0.00     0.095 A 
HETATM    4  C   UNK N   1      26.612  19.036   4.232  0.00  0.00     0.032 A 
HETATM    5  C   UNK N   1      27.747  18.364   4.693  0.00  0.00     0.091 A 
HETATM    6  C   UNK N   1      24.199  19.156   4.036  0.00  0.00     0.075 A 
HETATM    7  C   UNK N   1      24.309  20.295   3.229  0.00  0.00     0.070 A 
HETATM    8  C   UNK N   1      25.583  20.816   2.945  0.00  0.00     0.038 A 
HETATM    9  C   UNK N   1      26.727  20.191   3.444  0.00  0.00     0.020 A 
HETATM   10  O   UNK N   1      26.048  15.743   6.378  0.00  0.00    -0.259 OA
HETATM   11  O   UNK N   1      25.227  17.430   5.271  0.00  0.00    -0.274 OA
ENDROOT
BRANCH   1  12
HETATM   12  C   UNK N   1      28.877  16.354   5.909  0.00  0.00     0.060 C 
BRANCH  12  13
HETATM   13  C   UNK N   1      30.013  16.991   6.738  0.00  0.00    -0.049 A 
HETATM   14  C   UNK N   1      29.748  17.620   7.965  0.00  0.00     0.008 A 
HETATM   15  C   UNK N   1      30.788  18.113   8.761  0.00  0.00     0.001 A 
HETATM   16  C   UNK N   1      32.115  17.947   8.362  0.00  0.00     0.000 A 
HETATM   17  C   UNK N   1      32.403  17.294   7.165  0.00  0.00     0.001 A 
HETATM   18  C   UNK N   1      31.363  16.816   6.365  0.00  0.00     0.008 A 
ENDBRANCH  12  13
BRANCH  12  19
HETATM   19  C   UNK N   1      29.480  15.510   4.764  0.00  0.00     0.010 C 
HETATM   20  C   UNK N   1      28.824  14.144   4.613  0.00  0.00     0.006 C 
ENDBRANCH  12  19
ENDBRANCH   1  12
BRANCH   5  21
HETATM   21  O   UNK N   1      28.955  18.847   4.351  0.00  0.00    -0.359 OA
HETATM   22  H   UNK N   1      29.502  18.403   3.732  0.00  0.00     0.217 HD
ENDBRANCH   5  21
BRANCH   7  23
HETATM   23  O   UNK N   1      23.184  20.859   2.727  0.00  0.00    -0.356 OA
HETATM   24  C   UNK N   1      21.954  20.239   2.753  0.00  0.00     0.210 C 
ENDBRANCH   7  23
TORSDOF 5
ENDMDL
MODEL 6
REMARK VINA RESULT:      -6.7      0.954      2.157
REMARK  5 active torsions:
REMARK  status: ('A' for Active; 'I' for Inactive)
REMARK    1  A    between atoms: C_1  and  C_12 
REMARK    2  A    between atoms: C_5  and  O_22 
REMARK    3  A    between atoms: C_6  and  C_12 
REMARK    4  A    between atoms: C_12  and  C_13 
REMARK    5  A    between atoms: C_16  and  O_23 
ROOT
HETATM    1  C   UNK N   1      33.065  16.043   8.367  0.00  0.00     0.060 A 
HETATM    2  C   UNK N   1      32.784  14.645   8.441  0.00  0.00     0.298 A 
HETATM    3  C   UNK N   1      34.337  14.300  10.154  0.00  0.00     0.095 A 
HETATM    4  C   UNK N   1      34.695  15.654  10.156  0.00  0.00     0.032 A 
HETATM    5  C   UNK N   1      34.060  16.530   9.273  0.00  0.00     0.091 A 
HETATM    6  C   UNK N   1      34.923  13.419  11.070  0.00  0.00     0.075 A 
HETATM    7  C   UNK N   1      35.868  13.881  11.993  0.00  0.00     0.070 A 
HETATM    8  C   UNK N   1      36.242  15.236  11.978  0.00  0.00     0.038 A 
HETATM    9  C   UNK N   1      35.659  16.116  11.065  0.00  0.00     0.020 A 
HETATM   10  O   UNK N   1      31.940  14.136   7.732  0.00  0.00    -0.259 OA
HETATM   11  O   UNK N   1      33.419  13.857   9.306  0.00  0.00    -0.274 OA
ENDROOT
BRANCH   1  12
HETATM   12  C   UNK N   1      32.267  17.037   7.449  0.00  0.00     0.060 C 
BRANCH  12  13
HETATM   13  C   UNK N   1      30.847  17.516   7.818  0.00  0.00    -0.049 A 
HETATM   14  C   UNK N   1      29.726  17.087   7.088  0.00  0.00     0.008 A 
HETATM   15  C   UNK N   1      28.431  17.445   7.480  0.00  0.00     0.001 A 
HETATM   16  C   UNK N   1      28.233  18.203   8.634  0.00  0.00     0.000 A 
HETATM   17  C   UNK N   1      29.328  18.609   9.394  0.00  0.00     0.001 A 
HETATM   18  C   UNK N   1      30.620  18.264   8.992  0.00  0.00     0.008 A 
ENDBRANCH  12  13
BRANCH  12  19
HETATM   19  C   UNK N   1      32.319  16.669   5.950  0.00  0.00     0.010 C 
HETATM   20  C   UNK N   1      33.322  17.498   5.161  0.00  0.00     0.006 C 
ENDBRANCH  12  19
ENDBRANCH   1  12
BRANCH   5  21
HETATM   21  O   UNK N   1      34.388  17.834   9.324  0.00  0.00    -0.359 OA
HETATM   22  H   UNK N   1      35.052  18.193   8.769  0.00  0.00     0.217 HD
ENDBRANCH   5  21
BRANCH   7  23
HETATM   23  O   UNK N   1      36.389  13.013  12.894  0.00  0.00    -0.356 OA
HETATM   24  C   UNK N   1      36.866  11.766  12.550  0.00  0.00     0.210 C 
ENDBRANCH   7  23
TORSDOF 5
ENDMDL
MODEL 7
REMARK VINA RESULT:      -6.5      3.603      8.703
REMARK  5 active torsions:
REMARK  status: ('A' for Active; 'I' for Inactive)
REMARK    1  A    between atoms: C_1  and  C_12 
REMARK    2  A    between atoms: C_5  and  O_22 
REMARK    3  A    between atoms: C_6  and  C_12 
REMARK    4  A    between atoms: C_12  and  C_13 
REMARK    5  A    between atoms: C_16  and  O_23 
ROOT
HETATM    1  C   UNK N   1      35.701  12.435  13.362  0.00  0.00     0.060 A 
HETATM    2  C   UNK N   1      34.861  11.853  12.365  0.00  0.00     0.298 A 
HETATM    3  C   UNK N   1      34.785  13.821  11.107  0.00  0.00     0.095 A 
HETATM    4  C   UNK N   1      35.597  14.491  12.030  0.00  0.00     0.032 A 
HETATM    5  C   UNK N   1      36.064  13.804  13.154  0.00  0.00     0.091 A 
HETATM    6  C   UNK N   1      34.355  14.478   9.948  0.00  0.00     0.075 A 
HETATM    7  C   UNK N   1      34.731  15.804   9.702  0.00  0.00     0.070 A 
HETATM    8  C   UNK N   1      35.528  16.480  10.642  0.00  0.00     0.038 A 
HETATM    9  C   UNK N   1      35.958  15.827  11.799  0.00  0.00     0.020 A 
HETATM   10  O   UNK N   1      34.515  10.692  12.437  0.00  0.00    -0.259 OA
HETATM   11  O   UNK N   1      34.449  12.556  11.312  0.00  0.00    -0.274 OA
ENDROOT
BRANCH   1  12
HETATM   12  C   UNK N   1      36.309  11.623  14.561  0.00  0.00     0.060 C 
BRANCH  12  13
HETATM   13  C   UNK N   1      35.839  11.852  16.014  0.00  0.00    -0.049 A 
HETATM   14  C   UNK N   1      35.999  10.856  16.992  0.00  0.00     0.008 A 
HETATM   15  C   UNK N   1      35.660  11.098  18.328  0.00  0.00     0.001 A 
HETATM   16  C   UNK N   1      35.196  12.355  18.717  0.00  0.00     0.000 A 
HETATM   17  C   UNK N   1      35.064  13.370  17.770  0.00  0.00     0.001 A 
HETATM   18  C   UNK N   1      35.388  13.121  16.434  0.00  0.00     0.008 A 
ENDBRANCH  12  13
BRANCH  12  19
HETATM   19  C   UNK N   1      37.851  11.529  14.523  0.00  0.00     0.010 C 
HETATM   20  C   UNK N   1      38.360  10.131  14.198  0.00  0.00     0.006 C 
ENDBRANCH  12  19
ENDBRANCH   1  12
BRANCH   5  21
HETATM   21  O   UNK N   1      36.879  14.454  14.004  0.00  0.00    -0.359 OA
HETATM   22  H   UNK N   1      37.808  14.469  13.876  0.00  0.00     0.217 HD
ENDBRANCH   5  21
BRANCH   7  23
HETATM   23  O   UNK N   1      34.332  16.400   8.553  0.00  0.00    -0.356 OA
HETATM   24  C   UNK N   1      34.382  17.763   8.354  0.00  0.00     0.210 C 
ENDBRANCH   7  23
TORSDOF 5
ENDMDL
MODEL 8
REMARK VINA RESULT:      -6.4     13.306     15.211
REMARK  5 active torsions:
REMARK  status: ('A' for Active; 'I' for Inactive)
REMARK    1  A    between atoms: C_1  and  C_12 
REMARK    2  A    between atoms: C_5  and  O_22 
REMARK    3  A    between atoms: C_6  and  C_12 
REMARK    4  A    between atoms: C_12  and  C_13 
REMARK    5  A    between atoms: C_16  and  O_23 
ROOT
HETATM    1  C   UNK N   1      30.832  23.603  -3.646  0.00  0.00     0.060 A 
HETATM    2  C   UNK N   1      31.030  22.847  -2.451  0.00  0.00     0.298 A 
HETATM    3  C   UNK N   1      32.599  21.438  -3.458  0.00  0.00     0.095 A 
HETATM    4  C   UNK N   1      32.473  22.104  -4.683  0.00  0.00     0.032 A 
HETATM    5  C   UNK N   1      31.599  23.190  -4.782  0.00  0.00     0.091 A 
HETATM    6  C   UNK N   1      33.511  20.384  -3.325  0.00  0.00     0.075 A 
HETATM    7  C   UNK N   1      34.302  19.989  -4.411  0.00  0.00     0.070 A 
HETATM    8  C   UNK N   1      34.156  20.645  -5.645  0.00  0.00     0.038 A 
HETATM    9  C   UNK N   1      33.247  21.696  -5.779  0.00  0.00     0.020 A 
HETATM   10  O   UNK N   1      30.445  23.131  -1.426  0.00  0.00    -0.259 OA
HETATM   11  O   UNK N   1      31.880  21.824  -2.414  0.00  0.00    -0.274 OA
ENDROOT
BRANCH   1  12
HETATM   12  C   UNK N   1      29.933  24.889  -3.718  0.00  0.00     0.060 C 
BRANCH  12  13
HETATM   13  C   UNK N   1      28.509  24.847  -4.314  0.00  0.00    -0.049 A 
HETATM   14  C   UNK N   1      28.285  25.122  -5.673  0.00  0.00     0.008 A 
HETATM   15  C   UNK N   1      27.009  24.992  -6.233  0.00  0.00     0.001 A 
HETATM   16  C   UNK N   1      25.943  24.543  -5.452  0.00  0.00     0.000 A 
HETATM   17  C   UNK N   1      26.150  24.230  -4.110  0.00  0.00     0.001 A 
HETATM   18  C   UNK N   1      27.421  24.375  -3.550  0.00  0.00     0.008 A 
ENDBRANCH  12  13
BRANCH  12  19
HETATM   19  C   UNK N   1      30.679  26.135  -4.241  0.00  0.00     0.010 C 
HETATM   20  C   UNK N   1      30.995  27.149  -3.151  0.00  0.00     0.006 C 
ENDBRANCH  12  19
ENDBRANCH   1  12
BRANCH   5  21
HETATM   21  O   UNK N   1      31.528  23.843  -5.956  0.00  0.00    -0.359 OA
HETATM   22  H   UNK N   1      30.991  24.605  -6.060  0.00  0.00     0.217 HD
ENDBRANCH   5  21
BRANCH   7  23
HETATM   23  O   UNK N   1      35.203  18.991  -4.242  0.00  0.00    -0.356 OA
HETATM   24  C   UNK N   1      34.925  17.669  -4.514  0.00  0.00     0.210 C 
ENDBRANCH   7  23
TORSDOF 5
ENDMDL
MODEL 9
REMARK VINA RESULT:      -6.4      5.865     10.488
REMARK  5 active torsions:
REMARK  status: ('A' for Active; 'I' for Inactive)
REMARK    1  A    between atoms: C_1  and  C_12 
REMARK    2  A    between atoms: C_5  and  O_22 
REMARK    3  A    between atoms: C_6  and  C_12 
REMARK    4  A    between atoms: C_12  and  C_13 
REMARK    5  A    between atoms: C_16  and  O_23 
ROOT
HETATM    1  C   UNK N   1      27.206  18.084   4.777  0.00  0.00     0.060 A 
HETATM    2  C   UNK N   1      27.335  19.435   4.333  0.00  0.00     0.298 A 
HETATM    3  C   UNK N   1      25.069  19.599   3.786  0.00  0.00     0.095 A 
HETATM    4  C   UNK N   1      24.835  18.278   4.185  0.00  0.00     0.032 A 
HETATM    5  C   UNK N   1      25.894  17.519   4.688  0.00  0.00     0.091 A 
HETATM    6  C   UNK N   1      24.008  20.392   3.333  0.00  0.00     0.075 A 
HETATM    7  C   UNK N   1      22.709  19.874   3.276  0.00  0.00     0.070 A 
HETATM    8  C   UNK N   1      22.481  18.540   3.656  0.00  0.00     0.038 A 
HETATM    9  C   UNK N   1      23.539  17.748   4.108  0.00  0.00     0.020 A 
HETATM   10  O   UNK N   1      28.401  20.014   4.388  0.00  0.00    -0.259 OA
HETATM   11  O   UNK N   1      26.288  20.112   3.866  0.00  0.00    -0.274 OA
ENDROOT
BRANCH   1  12
HETATM   12  C   UNK N   1      28.378  17.277   5.442  0.00  0.00     0.060 C 
BRANCH  12  13
HETATM   13  C   UNK N   1      28.978  17.695   6.802  0.00  0.00    -0.049 A 
HETATM   14  C   UNK N   1      28.175  18.262   7.805  0.00  0.00     0.008 A 
HETATM   15  C   UNK N   1      28.699  18.552   9.070  0.00  0.00     0.001 A 
HETATM   16  C   UNK N   1      30.027  18.241   9.366  0.00  0.00     0.000 A 
HETATM   17  C   UNK N   1      30.832  17.644   8.398  0.00  0.00     0.001 A 
HETATM   18  C   UNK N   1      30.311  17.370   7.132  0.00  0.00     0.008 A 
ENDBRANCH  12  13
BRANCH  12  19
HETATM   19  C   UNK N   1      29.515  16.920   4.460  0.00  0.00     0.010 C 
HETATM   20  C   UNK N   1      29.017  16.304   3.160  0.00  0.00     0.006 C 
ENDBRANCH  12  19
ENDBRANCH   1  12
BRANCH   5  21
HETATM   21  O   UNK N   1      25.637  16.267   5.108  0.00  0.00    -0.359 OA
HETATM   22  H   UNK N   1      25.195  15.648   4.559  0.00  0.00     0.217 HD
ENDBRANCH   5  21
BRANCH   7  23
HETATM   23  O   UNK N   1      21.696  20.677   2.870  0.00  0.00    -0.356 OA
HETATM   24  C   UNK N   1      20.373  20.428   3.165  0.00  0.00     0.210 C 
ENDBRANCH   7  23
TORSDOF 5
ENDMDL
