MODEL 1
REMARK VINA RESULT:      -7.6      0.000      0.000
REMARK  9 active torsions:
REMARK  status: ('A' for Active; 'I' for Inactive)
REMARK    1  A    between atoms: C_1  and  C_10 
REMARK    2  A    between atoms: C_9  and  O_30 
REMARK    3  A    between atoms: C_10  and  C_11 
REMARK    4  A    between atoms: C_10  and  C_17 
REMARK    5  A    between atoms: C_15  and  N_26 
REMARK    6  A    between atoms: C_19  and  C_20 
REMARK       I    between atoms: C_19  and  N_26 
REMARK    7  A    between atoms: C_20  and  N_27 
REMARK       I    between atoms: C_21  and  N_27 
REMARK    8  A    between atoms: C_21  and  O_33 
REMARK    9  A    between atoms: C_22  and  O_33 
ROOT
HETATM    1  C   UNK N   1      31.272  15.555   5.635  0.00  0.00    -0.047 A 
HETATM    2  C   UNK N   1      32.091  14.468   5.281  0.00  0.00     0.008 A 
HETATM    3  C   UNK N   1      33.479  14.564   5.314  0.00  0.00     0.003 A 
HETATM    4  C   UNK N   1      34.081  15.741   5.746  0.00  0.00     0.029 A 
HETATM    5  C   UNK N   1      33.304  16.843   6.103  0.00  0.00     0.035 A 
HETATM    6  C   UNK N   1      31.903  16.748   6.046  0.00  0.00     0.037 A 
ENDROOT
BRANCH   1   7
HETATM    7  C   UNK N   1      29.735  15.402   5.695  0.00  0.00     0.060 C 
BRANCH   7   8
HETATM    8  C   UNK N   1      28.985  16.723   5.362  0.00  0.00     0.060 A 
HETATM    9  C   UNK N   1      28.734  17.190   4.037  0.00  0.00     0.298 A 
HETATM   10  O   UNK N   1      29.052  16.534   3.065  0.00  0.00    -0.259 OA
HETATM   11  O   UNK N   1      28.153  18.369   3.829  0.00  0.00    -0.274 OA
HETATM   12  C   UNK N   1      27.769  19.168   4.815  0.00  0.00     0.092 A 
HETATM   13  C   UNK N   1      27.205  20.412   4.518  0.00  0.00     0.038 A 
HETATM   14  C   UNK N   1      27.927  18.771   6.152  0.00  0.00     0.032 A 
HETATM   15  C   UNK N   1      26.803  21.265   5.550  0.00  0.00     0.003 A 
HETATM   16  C   UNK N   1      26.954  20.870   6.882  0.00  0.00     0.001 A 
HETATM   17  C   UNK N   1      27.511  19.624   7.184  0.00  0.00     0.017 A 
HETATM   18  C   UNK N   1      28.518  17.536   6.425  0.00  0.00     0.091 A 
BRANCH  18  19
HETATM   19  O   UNK N   1      28.642  17.133   7.707  0.00  0.00    -0.359 OA
HETATM   20  H   UNK N   1      29.143  16.438   8.089  0.00  0.00     0.217 HD
ENDBRANCH  18  19
ENDBRANCH   7   8
BRANCH   7  21
HETATM   21  C   UNK N   1      29.274  14.145   4.915  0.00  0.00     0.010 C 
HETATM   22  C   UNK N   1      27.786  13.816   5.059  0.00  0.00     0.006 C 
ENDBRANCH   7  21
ENDBRANCH   1   7
BRANCH   5  23
HETATM   23  N   UNK N   1      33.959  17.957   6.692  0.00  0.00    -0.326 N 
HETATM   24  C   UNK N   1      34.300  18.125   7.995  0.00  0.00     0.239 C 
HETATM   25  O   UNK N   1      35.033  19.056   8.293  0.00  0.00    -0.271 OA
HETATM   26  H   UNK N   1      34.194  18.694   6.084  0.00  0.00     0.169 HD
BRANCH  24  27
HETATM   27  C   UNK N   1      33.774  17.248   9.092  0.00  0.00     0.227 C 
BRANCH  27  28
HETATM   28  N   UNK N   1      34.804  17.125  10.097  0.00  0.00    -0.328 N 
HETATM   29  C   UNK N   1      35.008  15.950  10.735  0.00  0.00     0.361 C 
HETATM   30  O   UNK N   1      35.951  15.840  11.504  0.00  0.00    -0.238 OA
HETATM   31  H   UNK N   1      35.363  17.904  10.320  0.00  0.00     0.165 HD
BRANCH  29  32
HETATM   32  O   UNK N   1      34.173  14.897  10.497  0.00  0.00    -0.294 OA
BRANCH  32  33
HETATM   33  C   UNK N   1      34.437  13.815   9.674  0.00  0.00     0.061 C 
HETATM   34  C   UNK N   1      35.607  14.093   8.744  0.00  0.00     0.046 C 
HETATM   35  C   UNK N   1      34.799  12.632  10.547  0.00  0.00     0.046 C 
HETATM   36  C   UNK N   1      33.205  13.451   8.862  0.00  0.00     0.046 C 
ENDBRANCH  32  33
ENDBRANCH  29  32
ENDBRANCH  27  28
ENDBRANCH  24  27
ENDBRANCH   5  23
TORSDOF 9
ENDMDL
MODEL 2
REMARK VINA RESULT:      -7.6      2.330      5.623
REMARK  9 active torsions:
REMARK  status: ('A' for Active; 'I' for Inactive)
REMARK    1  A    between atoms: C_1  and  C_10 
REMARK    2  A    between atoms: C_9  and  O_30 
REMARK    3  A    between atoms: C_10  and  C_11 
REMARK    4  A    between atoms: C_10  and  C_17 
REMARK    5  A    between atoms: C_15  and  N_26 
REMARK    6  A    between atoms: C_19  and  C_20 
REMARK       I    between atoms: C_19  and  N_26 
REMARK    7  A    between atoms: C_20  and  N_27 
REMARK       I    between atoms: C_21  and  N_27 
REMARK    8  A    between atoms: C_21  and  O_33 
REMARK    9  A    between atoms: C_22  and  O_33 
ROOT
HETATM    1  C   UNK N   1      27.615  18.116   4.807  0.00  0.00    -0.047 A 
HETATM    2  C   UNK N   1      27.648  19.439   4.337  0.00  0.00     0.008 A 
HETATM    3  C   UNK N   1      27.711  20.520   5.212  0.00  0.00     0.003 A 
HETATM    4  C   UNK N   1      27.786  20.296   6.582  0.00  0.00     0.029 A 
HETATM    5  C   UNK N   1      27.753  18.998   7.090  0.00  0.00     0.035 A 
HETATM    6  C   UNK N   1      27.667  17.911   6.202  0.00  0.00     0.037 A 
ENDROOT
BRANCH   1   7
HETATM    7  C   UNK N   1      27.652  16.924   3.823  0.00  0.00     0.060 C 
BRANCH   7   8
HETATM    8  C   UNK N   1      28.781  15.906   4.154  0.00  0.00     0.060 A 
HETATM    9  C   UNK N   1      28.659  14.855   5.112  0.00  0.00     0.298 A 
HETATM   10  O   UNK N   1      27.615  14.656   5.700  0.00  0.00    -0.259 OA
HETATM   11  O   UNK N   1      29.694  14.069   5.397  0.00  0.00    -0.274 OA
HETATM   12  C   UNK N   1      30.880  14.200   4.820  0.00  0.00     0.092 A 
HETATM   13  C   UNK N   1      31.933  13.365   5.204  0.00  0.00     0.038 A 
HETATM   14  C   UNK N   1      31.082  15.172   3.827  0.00  0.00     0.032 A 
HETATM   15  C   UNK N   1      33.189  13.499   4.605  0.00  0.00     0.003 A 
HETATM   16  C   UNK N   1      33.392  14.461   3.612  0.00  0.00     0.001 A 
HETATM   17  C   UNK N   1      32.340  15.294   3.219  0.00  0.00     0.017 A 
HETATM   18  C   UNK N   1      30.023  16.013   3.479  0.00  0.00     0.091 A 
BRANCH  18  19
HETATM   19  O   UNK N   1      30.200  16.927   2.502  0.00  0.00    -0.359 OA
HETATM   20  H   UNK N   1      29.587  17.338   1.924  0.00  0.00     0.217 HD
ENDBRANCH  18  19
ENDBRANCH   7   8
BRANCH   7  21
HETATM   21  C   UNK N   1      26.237  16.325   3.626  0.00  0.00     0.010 C 
HETATM   22  C   UNK N   1      26.027  15.614   2.287  0.00  0.00     0.006 C 
ENDBRANCH   7  21
ENDBRANCH   1   7
BRANCH   5  23
HETATM   23  N   UNK N   1      27.999  18.818   8.477  0.00  0.00    -0.326 N 
HETATM   24  C   UNK N   1      29.163  18.456   9.073  0.00  0.00     0.239 C 
HETATM   25  O   UNK N   1      29.249  18.540  10.288  0.00  0.00    -0.271 OA
HETATM   26  H   UNK N   1      27.235  18.976   9.078  0.00  0.00     0.169 HD
BRANCH  24  27
HETATM   27  C   UNK N   1      30.330  17.907   8.308  0.00  0.00     0.227 C 
BRANCH  27  28
HETATM   28  N   UNK N   1      30.939  16.869   9.109  0.00  0.00    -0.328 N 
HETATM   29  C   UNK N   1      31.993  16.165   8.637  0.00  0.00     0.361 C 
HETATM   30  O   UNK N   1      32.557  15.366   9.371  0.00  0.00    -0.238 OA
HETATM   31  H   UNK N   1      30.583  16.674  10.005  0.00  0.00     0.165 HD
BRANCH  29  32
HETATM   32  O   UNK N   1      32.426  16.368   7.360  0.00  0.00    -0.294 OA
BRANCH  32  33
HETATM   33  C   UNK N   1      33.630  16.941   6.987  0.00  0.00     0.061 C 
HETATM   34  C   UNK N   1      34.737  15.903   6.892  0.00  0.00     0.046 C 
HETATM   35  C   UNK N   1      33.454  17.569   5.621  0.00  0.00     0.046 C 
HETATM   36  C   UNK N   1      34.027  18.032   7.967  0.00  0.00     0.046 C 
ENDBRANCH  32  33
ENDBRANCH  29  32
ENDBRANCH  27  28
ENDBRANCH  24  27
ENDBRANCH   5  23
TORSDOF 9
ENDMDL
MODEL 3
REMARK VINA RESULT:      -7.5      2.623      8.571
REMARK  9 active torsions:
REMARK  status: ('A' for Active; 'I' for Inactive)
REMARK    1  A    between atoms: C_1  and  C_10 
REMARK    2  A    between atoms: C_9  and  O_30 
REMARK    3  A    between atoms: C_10  and  C_11 
REMARK    4  A    between atoms: C_10  and  C_17 
REMARK    5  A    between atoms: C_15  and  N_26 
REMARK    6  A    between atoms: C_19  and  C_20 
REMARK       I    between atoms: C_19  and  N_26 
REMARK    7  A    between atoms: C_20  and  N_27 
REMARK       I    between atoms: C_21  and  N_27 
REMARK    8  A    between atoms: C_21  and  O_33 
REMARK    9  A    between atoms: C_22  and  O_33 
ROOT
HETATM    1  C   UNK N   1      30.696  17.709   7.890  0.00  0.00    -0.047 A 
HETATM    2  C   UNK N   1      30.584  18.533   9.024  0.00  0.00     0.008 A 
HETATM    3  C   UNK N   1      29.362  18.733   9.660  0.00  0.00     0.003 A 
HETATM    4  C   UNK N   1      28.228  18.073   9.199  0.00  0.00     0.029 A 
HETATM    5  C   UNK N   1      28.295  17.249   8.076  0.00  0.00     0.035 A 
HETATM    6  C   UNK N   1      29.528  17.069   7.424  0.00  0.00     0.037 A 
ENDROOT
BRANCH   1   7
HETATM    7  C   UNK N   1      32.075  17.413   7.259  0.00  0.00     0.060 C 
BRANCH   7   8
HETATM    8  C   UNK N   1      33.157  17.055   8.317  0.00  0.00     0.060 A 
HETATM    9  C   UNK N   1      34.259  17.897   8.654  0.00  0.00     0.298 A 
HETATM   10  O   UNK N   1      34.386  18.999   8.159  0.00  0.00    -0.259 OA
HETATM   11  O   UNK N   1      35.188  17.491   9.515  0.00  0.00    -0.274 OA
HETATM   12  C   UNK N   1      35.152  16.307  10.110  0.00  0.00     0.092 A 
HETATM   13  C   UNK N   1      36.190  15.932  10.970  0.00  0.00     0.038 A 
HETATM   14  C   UNK N   1      34.081  15.431   9.881  0.00  0.00     0.032 A 
HETATM   15  C   UNK N   1      36.164  14.683  11.598  0.00  0.00     0.003 A 
HETATM   16  C   UNK N   1      35.095  13.811  11.376  0.00  0.00     0.001 A 
HETATM   17  C   UNK N   1      34.052  14.184  10.523  0.00  0.00     0.017 A 
HETATM   18  C   UNK N   1      33.069  15.815   8.998  0.00  0.00     0.091 A 
BRANCH  18  19
HETATM   19  O   UNK N   1      32.019  14.992   8.798  0.00  0.00    -0.359 OA
HETATM   20  H   UNK N   1      31.942  14.061   8.873  0.00  0.00     0.217 HD
ENDBRANCH  18  19
ENDBRANCH   7   8
BRANCH   7  21
HETATM   21  C   UNK N   1      31.939  16.430   6.069  0.00  0.00     0.010 C 
HETATM   22  C   UNK N   1      32.114  17.069   4.690  0.00  0.00     0.006 C 
ENDBRANCH   7  21
ENDBRANCH   1   7
BRANCH   5  23
HETATM   23  N   UNK N   1      27.151  16.473   7.749  0.00  0.00    -0.326 N 
HETATM   24  C   UNK N   1      26.904  15.807   6.593  0.00  0.00     0.239 C 
HETATM   25  O   UNK N   1      25.963  15.030   6.555  0.00  0.00    -0.271 OA
HETATM   26  H   UNK N   1      26.456  16.411   8.443  0.00  0.00     0.169 HD
BRANCH  24  27
HETATM   27  C   UNK N   1      27.705  16.023   5.343  0.00  0.00     0.227 C 
BRANCH  27  28
HETATM   28  N   UNK N   1      26.789  16.356   4.278  0.00  0.00    -0.328 N 
HETATM   29  C   UNK N   1      26.221  17.582   4.216  0.00  0.00     0.361 C 
HETATM   30  O   UNK N   1      25.532  17.876   3.250  0.00  0.00    -0.238 OA
HETATM   31  H   UNK N   1      26.576  15.684   3.591  0.00  0.00     0.165 HD
BRANCH  29  32
HETATM   32  O   UNK N   1      26.440  18.481   5.218  0.00  0.00    -0.294 OA
BRANCH  32  33
HETATM   33  C   UNK N   1      27.143  19.669   5.111  0.00  0.00     0.061 C 
HETATM   34  C   UNK N   1      26.487  20.619   4.123  0.00  0.00     0.046 C 
HETATM   35  C   UNK N   1      27.156  20.338   6.470  0.00  0.00     0.046 C 
HETATM   36  C   UNK N   1      28.580  19.402   4.697  0.00  0.00     0.046 C 
ENDBRANCH  32  33
ENDBRANCH  29  32
ENDBRANCH  27  28
ENDBRANCH  24  27
ENDBRANCH   5  23
TORSDOF 9
ENDMDL
MODEL 4
REMARK VINA RESULT:      -7.4      4.359      9.582
REMARK  9 active torsions:
REMARK  status: ('A' for Active; 'I' for Inactive)
REMARK    1  A    between atoms: C_1  and  C_10 
REMARK    2  A    between atoms: C_9  and  O_30 
REMARK    3  A    between atoms: C_10  and  C_11 
REMARK    4  A    between atoms: C_10  and  C_17 
REMARK    5  A    between atoms: C_15  and  N_26 
REMARK    6  A    between atoms: C_19  and  C_20 
REMARK       I    between atoms: C_19  and  N_26 
REMARK    7  A    between atoms: C_20  and  N_27 
REMARK       I    between atoms: C_21  and  N_27 
REMARK    8  A    between atoms: C_21  and  O_33 
REMARK    9  A    between atoms: C_22  and  O_33 
ROOT
HETATM    1  C   UNK N   1      27.732  18.674   6.041  0.00  0.00    -0.047 A 
HETATM    2  C   UNK N   1      27.663  19.686   7.013  0.00  0.00     0.008 A 
HETATM    3  C   UNK N   1      27.172  20.953   6.710  0.00  0.00     0.003 A 
HETATM    4  C   UNK N   1      26.694  21.221   5.432  0.00  0.00     0.029 A 
HETATM    5  C   UNK N   1      26.747  20.245   4.437  0.00  0.00     0.035 A 
HETATM    6  C   UNK N   1      27.266  18.974   4.744  0.00  0.00     0.037 A 
ENDROOT
BRANCH   1   7
HETATM    7  C   UNK N   1      28.180  17.243   6.417  0.00  0.00     0.060 C 
BRANCH   7   8
HETATM    8  C   UNK N   1      29.591  17.207   7.071  0.00  0.00     0.060 A 
HETATM    9  C   UNK N   1      29.826  17.306   8.475  0.00  0.00     0.298 A 
HETATM   10  O   UNK N   1      28.907  17.370   9.266  0.00  0.00    -0.259 OA
HETATM   11  O   UNK N   1      31.066  17.344   8.956  0.00  0.00    -0.274 OA
HETATM   12  C   UNK N   1      32.142  17.286   8.185  0.00  0.00     0.092 A 
HETATM   13  C   UNK N   1      33.413  17.378   8.760  0.00  0.00     0.038 A 
HETATM   14  C   UNK N   1      32.011  17.136   6.795  0.00  0.00     0.032 A 
HETATM   15  C   UNK N   1      34.554  17.323   7.954  0.00  0.00     0.003 A 
HETATM   16  C   UNK N   1      34.426  17.167   6.571  0.00  0.00     0.001 A 
HETATM   17  C   UNK N   1      33.158  17.069   5.991  0.00  0.00     0.017 A 
HETATM   18  C   UNK N   1      30.731  17.075   6.239  0.00  0.00     0.091 A 
BRANCH  18  19
HETATM   19  O   UNK N   1      30.597  16.896   4.909  0.00  0.00    -0.359 OA
HETATM   20  H   UNK N   1      30.412  16.128   4.406  0.00  0.00     0.217 HD
ENDBRANCH  18  19
ENDBRANCH   7   8
BRANCH   7  21
HETATM   21  C   UNK N   1      27.059  16.495   7.182  0.00  0.00     0.010 C 
HETATM   22  C   UNK N   1      26.342  15.417   6.367  0.00  0.00     0.006 C 
ENDBRANCH   7  21
ENDBRANCH   1   7
BRANCH   5  23
HETATM   23  N   UNK N   1      26.098  20.515   3.203  0.00  0.00    -0.326 N 
HETATM   24  C   UNK N   1      24.801  20.283   2.880  0.00  0.00     0.239 C 
HETATM   25  O   UNK N   1      24.362  20.757   1.844  0.00  0.00    -0.271 OA
HETATM   26  H   UNK N   1      26.655  20.920   2.500  0.00  0.00     0.169 HD
BRANCH  24  27
HETATM   27  C   UNK N   1      23.896  19.425   3.715  0.00  0.00     0.227 C 
BRANCH  27  28
HETATM   28  N   UNK N   1      22.532  19.735   3.355  0.00  0.00    -0.328 N 
HETATM   29  C   UNK N   1      21.542  18.838   3.571  0.00  0.00     0.361 C 
HETATM   30  O   UNK N   1      20.383  19.161   3.356  0.00  0.00    -0.238 OA
HETATM   31  H   UNK N   1      22.321  20.607   2.950  0.00  0.00     0.165 HD
BRANCH  29  32
HETATM   32  O   UNK N   1      21.847  17.595   4.042  0.00  0.00    -0.294 OA
BRANCH  32  33
HETATM   33  C   UNK N   1      21.562  17.109   5.307  0.00  0.00     0.061 C 
HETATM   34  C   UNK N   1      22.711  16.280   5.858  0.00  0.00     0.046 C 
HETATM   35  C   UNK N   1      21.346  18.288   6.232  0.00  0.00     0.046 C 
HETATM   36  C   UNK N   1      20.289  16.280   5.285  0.00  0.00     0.046 C 
ENDBRANCH  32  33
ENDBRANCH  29  32
ENDBRANCH  27  28
ENDBRANCH  24  27
ENDBRANCH   5  23
TORSDOF 9
ENDMDL
MODEL 5
REMARK VINA RESULT:      -7.4      1.646      2.792
REMARK  9 active torsions:
REMARK  status: ('A' for Active; 'I' for Inactive)
REMARK    1  A    between atoms: C_1  and  C_10 
REMARK    2  A    between atoms: C_9  and  O_30 
REMARK    3  A    between atoms: C_10  and  C_11 
REMARK    4  A    between atoms: C_10  and  C_17 
REMARK    5  A    between atoms: C_15  and  N_26 
REMARK    6  A    between atoms: C_19  and  C_20 
REMARK       I    between atoms: C_19  and  N_26 
REMARK    7  A    between atoms: C_20  and  N_27 
REMARK       I    between atoms: C_21  and  N_27 
REMARK    8  A    between atoms: C_21  and  O_33 
REMARK    9  A    between atoms: C_22  and  O_33 
ROOT
HETATM    1  C   UNK N   1      31.580  16.826   6.609  0.00  0.00    -0.047 A 
HETATM    2  C   UNK N   1      32.401  16.715   5.473  0.00  0.00     0.008 A 
HETATM    3  C   UNK N   1      33.762  17.001   5.531  0.00  0.00     0.003 A 
HETATM    4  C   UNK N   1      34.342  17.362   6.742  0.00  0.00     0.029 A 
HETATM    5  C   UNK N   1      33.562  17.486   7.891  0.00  0.00     0.035 A 
HETATM    6  C   UNK N   1      32.183  17.218   7.822  0.00  0.00     0.037 A 
ENDROOT
BRANCH   1   7
HETATM    7  C   UNK N   1      30.093  16.405   6.556  0.00  0.00     0.060 C 
BRANCH   7   8
HETATM    8  C   UNK N   1      29.127  17.620   6.444  0.00  0.00     0.060 A 
HETATM    9  C   UNK N   1      28.522  18.268   7.562  0.00  0.00     0.298 A 
HETATM   10  O   UNK N   1      28.778  17.933   8.701  0.00  0.00    -0.259 OA
HETATM   11  O   UNK N   1      27.645  19.253   7.385  0.00  0.00    -0.274 OA
HETATM   12  C   UNK N   1      27.288  19.695   6.188  0.00  0.00     0.092 A 
HETATM   13  C   UNK N   1      26.327  20.705   6.081  0.00  0.00     0.038 A 
HETATM   14  C   UNK N   1      27.869  19.155   5.031  0.00  0.00     0.032 A 
HETATM   15  C   UNK N   1      25.940  21.174   4.822  0.00  0.00     0.003 A 
HETATM   16  C   UNK N   1      26.521  20.642   3.668  0.00  0.00     0.001 A 
HETATM   17  C   UNK N   1      27.487  19.637   3.770  0.00  0.00     0.017 A 
HETATM   18  C   UNK N   1      28.807  18.128   5.160  0.00  0.00     0.091 A 
BRANCH  18  19
HETATM   19  O   UNK N   1      29.395  17.627   4.054  0.00  0.00    -0.359 OA
HETATM   20  H   UNK N   1      30.163  17.101   3.949  0.00  0.00     0.217 HD
ENDBRANCH  18  19
ENDBRANCH   7   8
BRANCH   7  21
HETATM   21  C   UNK N   1      29.877  15.270   5.523  0.00  0.00     0.010 C 
HETATM   22  C   UNK N   1      28.449  14.724   5.468  0.00  0.00     0.006 C 
ENDBRANCH   7  21
ENDBRANCH   1   7
BRANCH   5  23
HETATM   23  N   UNK N   1      34.226  17.694   9.129  0.00  0.00    -0.326 N 
HETATM   24  C   UNK N   1      34.884  16.776   9.882  0.00  0.00     0.239 C 
HETATM   25  O   UNK N   1      35.565  17.166  10.817  0.00  0.00    -0.271 OA
HETATM   26  H   UNK N   1      34.209  18.612   9.482  0.00  0.00     0.169 HD
BRANCH  24  27
HETATM   27  C   UNK N   1      34.769  15.299   9.646  0.00  0.00     0.227 C 
BRANCH  27  28
HETATM   28  N   UNK N   1      34.227  14.698  10.843  0.00  0.00    -0.328 N 
HETATM   29  C   UNK N   1      35.039  14.079  11.731  0.00  0.00     0.361 C 
HETATM   30  O   UNK N   1      34.573  13.671  12.785  0.00  0.00    -0.238 OA
HETATM   31  H   UNK N   1      33.259  14.739  11.013  0.00  0.00     0.165 HD
BRANCH  29  32
HETATM   32  O   UNK N   1      36.366  13.938  11.451  0.00  0.00    -0.294 OA
BRANCH  32  33
HETATM   33  C   UNK N   1      37.033  12.743  11.239  0.00  0.00     0.061 C 
HETATM   34  C   UNK N   1      36.232  11.806  10.350  0.00  0.00     0.046 C 
HETATM   35  C   UNK N   1      38.343  13.047  10.544  0.00  0.00     0.046 C 
HETATM   36  C   UNK N   1      37.341  12.064  12.563  0.00  0.00     0.046 C 
ENDBRANCH  32  33
ENDBRANCH  29  32
ENDBRANCH  27  28
ENDBRANCH  24  27
ENDBRANCH   5  23
TORSDOF 9
ENDMDL
MODEL 6
REMARK VINA RESULT:      -7.3      2.238      3.251
REMARK  9 active torsions:
REMARK  status: ('A' for Active; 'I' for Inactive)
REMARK    1  A    between atoms: C_1  and  C_10 
REMARK    2  A    between atoms: C_9  and  O_30 
REMARK    3  A    between atoms: C_10  and  C_11 
REMARK    4  A    between atoms: C_10  and  C_17 
REMARK    5  A    between atoms: C_15  and  N_26 
REMARK    6  A    between atoms: C_19  and  C_20 
REMARK       I    between atoms: C_19  and  N_26 
REMARK    7  A    between atoms: C_20  and  N_27 
REMARK       I    between atoms: C_21  and  N_27 
REMARK    8  A    between atoms: C_21  and  O_33 
REMARK    9  A    between atoms: C_22  and  O_33 
ROOT
HETATM    1  C   UNK N   1      28.834  17.050   7.411  0.00  0.00    -0.047 A 
HETATM    2  C   UNK N   1      28.128  17.854   8.323  0.00  0.00     0.008 A 
HETATM    3  C   UNK N   1      28.778  18.523   9.356  0.00  0.00     0.003 A 
HETATM    4  C   UNK N   1      30.161  18.438   9.473  0.00  0.00     0.029 A 
HETATM    5  C   UNK N   1      30.899  17.649   8.590  0.00  0.00     0.035 A 
HETATM    6  C   UNK N   1      30.234  16.957   7.562  0.00  0.00     0.037 A 
ENDROOT
BRANCH   1   7
HETATM    7  C   UNK N   1      28.116  16.399   6.207  0.00  0.00     0.060 C 
BRANCH   7   8
HETATM    8  C   UNK N   1      27.449  17.443   5.267  0.00  0.00     0.060 A 
HETATM    9  C   UNK N   1      28.169  18.402   4.494  0.00  0.00     0.298 A 
HETATM   10  O   UNK N   1      29.384  18.420   4.483  0.00  0.00    -0.259 OA
HETATM   11  O   UNK N   1      27.527  19.315   3.770  0.00  0.00    -0.274 OA
HETATM   12  C   UNK N   1      26.205  19.391   3.713  0.00  0.00     0.092 A 
HETATM   13  C   UNK N   1      25.601  20.407   2.966  0.00  0.00     0.038 A 
HETATM   14  C   UNK N   1      25.411  18.459   4.399  0.00  0.00     0.032 A 
HETATM   15  C   UNK N   1      24.207  20.499   2.904  0.00  0.00     0.003 A 
HETATM   16  C   UNK N   1      23.414  19.568   3.581  0.00  0.00     0.001 A 
HETATM   17  C   UNK N   1      24.013  18.546   4.324  0.00  0.00     0.017 A 
HETATM   18  C   UNK N   1      26.035  17.469   5.161  0.00  0.00     0.091 A 
BRANCH  18  19
HETATM   19  O   UNK N   1      25.280  16.549   5.796  0.00  0.00    -0.359 OA
HETATM   20  H   UNK N   1      25.465  16.001   6.533  0.00  0.00     0.217 HD
ENDBRANCH  18  19
ENDBRANCH   7   8
BRANCH   7  21
HETATM   21  C   UNK N   1      29.029  15.353   5.518  0.00  0.00     0.010 C 
HETATM   22  C   UNK N   1      28.306  14.091   5.045  0.00  0.00     0.006 C 
ENDBRANCH   7  21
ENDBRANCH   1   7
BRANCH   5  23
HETATM   23  N   UNK N   1      32.315  17.728   8.650  0.00  0.00    -0.326 N 
HETATM   24  C   UNK N   1      33.196  16.709   8.817  0.00  0.00     0.239 C 
HETATM   25  O   UNK N   1      34.385  16.930   8.648  0.00  0.00    -0.271 OA
HETATM   26  H   UNK N   1      32.704  18.627   8.559  0.00  0.00     0.169 HD
BRANCH  24  27
HETATM   27  C   UNK N   1      32.778  15.336   9.252  0.00  0.00     0.227 C 
BRANCH  27  28
HETATM   28  N   UNK N   1      33.159  15.171  10.635  0.00  0.00    -0.328 N 
HETATM   29  C   UNK N   1      34.170  14.339  10.977  0.00  0.00     0.361 C 
HETATM   30  O   UNK N   1      34.543  14.294  12.140  0.00  0.00    -0.238 OA
HETATM   31  H   UNK N   1      32.679  15.669  11.335  0.00  0.00     0.165 HD
BRANCH  29  32
HETATM   32  O   UNK N   1      34.772  13.576  10.019  0.00  0.00    -0.294 OA
BRANCH  32  33
HETATM   33  C   UNK N   1      36.129  13.527   9.748  0.00  0.00     0.061 C 
HETATM   34  C   UNK N   1      36.797  12.357  10.452  0.00  0.00     0.046 C 
HETATM   35  C   UNK N   1      36.309  13.345   8.255  0.00  0.00     0.046 C 
HETATM   36  C   UNK N   1      36.801  14.828  10.154  0.00  0.00     0.046 C 
ENDBRANCH  32  33
ENDBRANCH  29  32
ENDBRANCH  27  28
ENDBRANCH  24  27
ENDBRANCH   5  23
TORSDOF 9
ENDMDL
MODEL 7
REMARK VINA RESULT:      -7.3      2.006      3.054
REMARK  9 active torsions:
REMARK  status: ('A' for Active; 'I' for Inactive)
REMARK    1  A    between atoms: C_1  and  C_10 
REMARK    2  A    between atoms: C_9  and  O_30 
REMARK    3  A    between atoms: C_10  and  C_11 
REMARK    4  A    between atoms: C_10  and  C_17 
REMARK    5  A    between atoms: C_15  and  N_26 
REMARK    6  A    between atoms: C_19  and  C_20 
REMARK       I    between atoms: C_19  and  N_26 
REMARK    7  A    between atoms: C_20  and  N_27 
REMARK       I    between atoms: C_21  and  N_27 
REMARK    8  A    between atoms: C_21  and  O_33 
REMARK    9  A    between atoms: C_22  and  O_33 
ROOT
HETATM    1  C   UNK N   1      29.342  16.952   7.190  0.00  0.00    -0.047 A 
HETATM    2  C   UNK N   1      28.602  17.386   8.304  0.00  0.00     0.008 A 
HETATM    3  C   UNK N   1      29.201  18.093   9.343  0.00  0.00     0.003 A 
HETATM    4  C   UNK N   1      30.550  18.422   9.268  0.00  0.00     0.029 A 
HETATM    5  C   UNK N   1      31.320  18.009   8.181  0.00  0.00     0.035 A 
HETATM    6  C   UNK N   1      30.714  17.275   7.146  0.00  0.00     0.037 A 
ENDROOT
BRANCH   1   7
HETATM    7  C   UNK N   1      28.644  16.261   5.996  0.00  0.00     0.060 C 
BRANCH   7   8
HETATM    8  C   UNK N   1      27.429  17.070   5.459  0.00  0.00     0.060 A 
HETATM    9  C   UNK N   1      26.067  16.676   5.624  0.00  0.00     0.298 A 
HETATM   10  O   UNK N   1      25.770  15.686   6.262  0.00  0.00    -0.259 OA
HETATM   11  O   UNK N   1      25.083  17.379   5.071  0.00  0.00    -0.274 OA
HETATM   12  C   UNK N   1      25.293  18.472   4.351  0.00  0.00     0.092 A 
HETATM   13  C   UNK N   1      24.211  19.133   3.763  0.00  0.00     0.038 A 
HETATM   14  C   UNK N   1      26.595  18.966   4.176  0.00  0.00     0.032 A 
HETATM   15  C   UNK N   1      24.423  20.283   2.997  0.00  0.00     0.003 A 
HETATM   16  C   UNK N   1      25.717  20.781   2.827  0.00  0.00     0.001 A 
HETATM   17  C   UNK N   1      26.803  20.128   3.418  0.00  0.00     0.017 A 
HETATM   18  C   UNK N   1      27.664  18.275   4.750  0.00  0.00     0.091 A 
BRANCH  18  19
HETATM   19  O   UNK N   1      28.915  18.762   4.615  0.00  0.00    -0.359 OA
HETATM   20  H   UNK N   1      29.320  19.236   3.915  0.00  0.00     0.217 HD
ENDBRANCH  18  19
ENDBRANCH   7   8
BRANCH   7  21
HETATM   21  C   UNK N   1      29.681  15.810   4.936  0.00  0.00     0.010 C 
HETATM   22  C   UNK N   1      30.091  14.339   5.031  0.00  0.00     0.006 C 
ENDBRANCH   7  21
ENDBRANCH   1   7
BRANCH   5  23
HETATM   23  N   UNK N   1      32.644  18.510   8.073  0.00  0.00    -0.326 N 
HETATM   24  C   UNK N   1      33.804  17.811   8.148  0.00  0.00     0.239 C 
HETATM   25  O   UNK N   1      34.845  18.369   7.837  0.00  0.00    -0.271 OA
HETATM   26  H   UNK N   1      32.730  19.479   7.926  0.00  0.00     0.169 HD
BRANCH  24  27
HETATM   27  C   UNK N   1      33.870  16.397   8.645  0.00  0.00     0.227 C 
BRANCH  27  28
HETATM   28  N   UNK N   1      34.151  16.436  10.062  0.00  0.00    -0.328 N 
HETATM   29  C   UNK N   1      35.339  16.001  10.541  0.00  0.00     0.361 C 
HETATM   30  O   UNK N   1      35.594  16.140  11.728  0.00  0.00    -0.238 OA
HETATM   31  H   UNK N   1      33.471  16.782  10.684  0.00  0.00     0.165 HD
BRANCH  29  32
HETATM   32  O   UNK N   1      36.244  15.433   9.693  0.00  0.00    -0.294 OA
BRANCH  32  33
HETATM   33  C   UNK N   1      36.505  14.080   9.564  0.00  0.00     0.061 C 
HETATM   34  C   UNK N   1      36.672  13.679   8.107  0.00  0.00     0.046 C 
HETATM   35  C   UNK N   1      37.800  13.775  10.288  0.00  0.00     0.046 C 
HETATM   36  C   UNK N   1      35.397  13.261  10.203  0.00  0.00     0.046 C 
ENDBRANCH  32  33
ENDBRANCH  29  32
ENDBRANCH  27  28
ENDBRANCH  24  27
ENDBRANCH   5  23
TORSDOF 9
ENDMDL
MODEL 8
REMARK VINA RESULT:      -7.3      2.848      8.638
REMARK  9 active torsions:
REMARK  status: ('A' for Active; 'I' for Inactive)
REMARK    1  A    between atoms: C_1  and  C_10 
REMARK    2  A    between atoms: C_9  and  O_30 
REMARK    3  A    between atoms: C_10  and  C_11 
REMARK    4  A    between atoms: C_10  and  C_17 
REMARK    5  A    between atoms: C_15  and  N_26 
REMARK    6  A    between atoms: C_19  and  C_20 
REMARK       I    between atoms: C_19  and  N_26 
REMARK    7  A    between atoms: C_20  and  N_27 
REMARK       I    between atoms: C_21  and  N_27 
REMARK    8  A    between atoms: C_21  and  O_33 
REMARK    9  A    between atoms: C_22  and  O_33 
ROOT
HETATM    1  C   UNK N   1      30.137  17.080   6.723  0.00  0.00    -0.047 A 
HETATM    2  C   UNK N   1      29.591  17.708   7.856  0.00  0.00     0.008 A 
HETATM    3  C   UNK N   1      28.242  17.581   8.177  0.00  0.00     0.003 A 
HETATM    4  C   UNK N   1      27.417  16.783   7.393  0.00  0.00     0.029 A 
HETATM    5  C   UNK N   1      27.919  16.145   6.259  0.00  0.00     0.035 A 
HETATM    6  C   UNK N   1      29.277  16.296   5.926  0.00  0.00     0.037 A 
ENDROOT
BRANCH   1   7
HETATM    7  C   UNK N   1      31.655  17.143   6.437  0.00  0.00     0.060 C 
BRANCH   7   8
HETATM    8  C   UNK N   1      32.492  16.305   7.445  0.00  0.00     0.060 A 
HETATM    9  C   UNK N   1      32.386  14.889   7.594  0.00  0.00     0.298 A 
HETATM   10  O   UNK N   1      31.654  14.233   6.881  0.00  0.00    -0.259 OA
HETATM   11  O   UNK N   1      33.080  14.249   8.531  0.00  0.00    -0.274 OA
HETATM   12  C   UNK N   1      33.904  14.866   9.366  0.00  0.00     0.092 A 
HETATM   13  C   UNK N   1      34.566  14.131  10.355  0.00  0.00     0.038 A 
HETATM   14  C   UNK N   1      34.114  16.250   9.263  0.00  0.00     0.032 A 
HETATM   15  C   UNK N   1      35.433  14.773  11.244  0.00  0.00     0.003 A 
HETATM   16  C   UNK N   1      35.648  16.150  11.140  0.00  0.00     0.001 A 
HETATM   17  C   UNK N   1      34.994  16.888  10.149  0.00  0.00     0.017 A 
HETATM   18  C   UNK N   1      33.422  16.968   8.286  0.00  0.00     0.091 A 
BRANCH  18  19
HETATM   19  O   UNK N   1      33.643  18.292   8.158  0.00  0.00    -0.359 OA
HETATM   20  H   UNK N   1      33.050  19.009   8.049  0.00  0.00     0.217 HD
ENDBRANCH  18  19
ENDBRANCH   7   8
BRANCH   7  21
HETATM   21  C   UNK N   1      31.946  16.887   4.937  0.00  0.00     0.010 C 
HETATM   22  C   UNK N   1      33.428  16.933   4.559  0.00  0.00     0.006 C 
ENDBRANCH   7  21
ENDBRANCH   1   7
BRANCH   5  23
HETATM   23  N   UNK N   1      27.080  15.214   5.591  0.00  0.00    -0.326 N 
HETATM   24  C   UNK N   1      26.521  15.336   4.360  0.00  0.00     0.239 C 
HETATM   25  O   UNK N   1      25.989  14.357   3.860  0.00  0.00    -0.271 OA
HETATM   26  H   UNK N   1      26.881  14.382   6.077  0.00  0.00     0.169 HD
BRANCH  24  27
HETATM   27  C   UNK N   1      26.482  16.634   3.610  0.00  0.00     0.227 C 
BRANCH  27  28
HETATM   28  N   UNK N   1      25.162  17.201   3.767  0.00  0.00    -0.328 N 
HETATM   29  C   UNK N   1      24.977  18.322   4.501  0.00  0.00     0.361 C 
HETATM   30  O   UNK N   1      23.871  18.841   4.533  0.00  0.00    -0.238 OA
HETATM   31  H   UNK N   1      24.391  16.767   3.336  0.00  0.00     0.165 HD
BRANCH  29  32
HETATM   32  O   UNK N   1      26.027  18.871   5.176  0.00  0.00    -0.294 OA
BRANCH  32  33
HETATM   33  C   UNK N   1      26.721  20.015   4.819  0.00  0.00     0.061 C 
HETATM   34  C   UNK N   1      26.484  21.143   5.810  0.00  0.00     0.046 C 
HETATM   35  C   UNK N   1      28.200  19.692   4.817  0.00  0.00     0.046 C 
HETATM   36  C   UNK N   1      26.327  20.461   3.422  0.00  0.00     0.046 C 
ENDBRANCH  32  33
ENDBRANCH  29  32
ENDBRANCH  27  28
ENDBRANCH  24  27
ENDBRANCH   5  23
TORSDOF 9
ENDMDL
MODEL 9
REMARK VINA RESULT:      -7.2      3.240      6.865
REMARK  9 active torsions:
REMARK  status: ('A' for Active; 'I' for Inactive)
REMARK    1  A    between atoms: C_1  and  C_10 
REMARK    2  A    between atoms: C_9  and  O_30 
REMARK    3  A    between atoms: C_10  and  C_11 
REMARK    4  A    between atoms: C_10  and  C_17 
REMARK    5  A    between atoms: C_15  and  N_26 
REMARK    6  A    between atoms: C_19  and  C_20 
REMARK       I    between atoms: C_19  and  N_26 
REMARK    7  A    between atoms: C_20  and  N_27 
REMARK       I    between atoms: C_21  and  N_27 
REMARK    8  A    between atoms: C_21  and  O_33 
REMARK    9  A    between atoms: C_22  and  O_33 
ROOT
HETATM    1  C   UNK N   1      32.506  16.424   6.519  0.00  0.00    -0.047 A 
HETATM    2  C   UNK N   1      33.564  17.282   6.864  0.00  0.00     0.008 A 
HETATM    3  C   UNK N   1      33.438  18.214   7.890  0.00  0.00     0.003 A 
HETATM    4  C   UNK N   1      32.260  18.277   8.626  0.00  0.00     0.029 A 
HETATM    5  C   UNK N   1      31.185  17.445   8.314  0.00  0.00     0.035 A 
HETATM    6  C   UNK N   1      31.310  16.521   7.261  0.00  0.00     0.037 A 
ENDROOT
BRANCH   1   7
HETATM    7  C   UNK N   1      32.695  15.323   5.450  0.00  0.00     0.060 C 
BRANCH   7   8
HETATM    8  C   UNK N   1      31.487  15.217   4.476  0.00  0.00     0.060 A 
HETATM    9  C   UNK N   1      31.182  16.181   3.469  0.00  0.00     0.298 A 
HETATM   10  O   UNK N   1      31.902  17.139   3.273  0.00  0.00    -0.259 OA
HETATM   11  O   UNK N   1      30.088  16.062   2.722  0.00  0.00    -0.274 OA
HETATM   12  C   UNK N   1      29.230  15.060   2.852  0.00  0.00     0.092 A 
HETATM   13  C   UNK N   1      28.078  15.027   2.061  0.00  0.00     0.038 A 
HETATM   14  C   UNK N   1      29.472  14.036   3.781  0.00  0.00     0.032 A 
HETATM   15  C   UNK N   1      27.164  13.978   2.196  0.00  0.00     0.003 A 
HETATM   16  C   UNK N   1      27.406  12.953   3.115  0.00  0.00     0.001 A 
HETATM   17  C   UNK N   1      28.560  12.978   3.904  0.00  0.00     0.017 A 
HETATM   18  C   UNK N   1      30.615  14.104   4.580  0.00  0.00     0.091 A 
BRANCH  18  19
HETATM   19  O   UNK N   1      30.873  13.106   5.450  0.00  0.00    -0.359 OA
HETATM   20  H   UNK N   1      30.368  12.356   5.696  0.00  0.00     0.217 HD
ENDBRANCH  18  19
ENDBRANCH   7   8
BRANCH   7  21
HETATM   21  C   UNK N   1      34.092  15.429   4.789  0.00  0.00     0.010 C 
HETATM   22  C   UNK N   1      34.442  14.272   3.851  0.00  0.00     0.006 C 
ENDBRANCH   7  21
ENDBRANCH   1   7
BRANCH   5  23
HETATM   23  N   UNK N   1      30.072  17.434   9.196  0.00  0.00    -0.326 N 
HETATM   24  C   UNK N   1      28.771  17.671   8.893  0.00  0.00     0.239 C 
HETATM   25  O   UNK N   1      27.921  17.427   9.734  0.00  0.00    -0.271 OA
HETATM   26  H   UNK N   1      30.268  17.230  10.139  0.00  0.00     0.169 HD
BRANCH  24  27
HETATM   27  C   UNK N   1      28.337  18.269   7.588  0.00  0.00     0.227 C 
BRANCH  27  28
HETATM   28  N   UNK N   1      27.533  19.434   7.877  0.00  0.00    -0.328 N 
HETATM   29  C   UNK N   1      27.142  20.266   6.884  0.00  0.00     0.361 C 
HETATM   30  O   UNK N   1      26.378  21.184   7.137  0.00  0.00    -0.238 OA
HETATM   31  H   UNK N   1      27.267  19.625   8.805  0.00  0.00     0.165 HD
BRANCH  29  32
HETATM   32  O   UNK N   1      27.588  20.057   5.611  0.00  0.00    -0.294 OA
BRANCH  32  33
HETATM   33  C   UNK N   1      26.879  19.456   4.585  0.00  0.00     0.061 C 
HETATM   34  C   UNK N   1      25.521  18.964   5.059  0.00  0.00     0.046 C 
HETATM   35  C   UNK N   1      26.655  20.485   3.497  0.00  0.00     0.046 C 
HETATM   36  C   UNK N   1      27.671  18.302   3.995  0.00  0.00     0.046 C 
ENDBRANCH  32  33
ENDBRANCH  29  32
ENDBRANCH  27  28
ENDBRANCH  24  27
ENDBRANCH   5  23
TORSDOF 9
ENDMDL
