MODEL 1
REMARK VINA RESULT:      -7.1      0.000      0.000
REMARK  2 active torsions:
REMARK  status: ('A' for Active; 'I' for Inactive)
REMARK    1  A    between atoms: C_14  and  N_15 
REMARK    2  A    between atoms: N_20  and  C_21 
ROOT
HETATM    1  N   UNK N   1      27.742  16.671   7.062  0.00  0.00    -0.351 N 
ATOM      2  HN  UNK N   1      27.795  16.786   8.074  1.00  0.00     0.166 HD
HETATM    3  C   UNK N   1      26.524  16.432   6.528  0.00  0.00     0.090 A 
HETATM    4  C   UNK N   1      26.405  16.263   5.172  0.00  0.00     0.018 A 
HETATM    5  C   UNK N   1      27.548  16.334   4.404  0.00  0.00     0.022 A 
HETATM    6  C   UNK N   1      28.838  16.588   4.941  0.00  0.00     0.076 A 
HETATM    7  C   UNK N   1      29.864  16.605   3.976  0.00  0.00     0.261 A 
HETATM    8  O   UNK N   1      29.514  16.386   2.817  0.00  0.00    -0.267 OA
HETATM    9  N   UNK N   1      31.206  16.839   4.185  0.00  0.00    -0.316 N 
HETATM   10  C   UNK N   1      32.014  16.773   2.947  0.00  0.00     0.159 C 
HETATM   11  C   UNK N   1      31.898  17.128   5.342  0.00  0.00     0.064 A 
HETATM   12  C   UNK N   1      33.297  17.348   5.185  0.00  0.00     0.034 A 
HETATM   13  C   UNK N   1      34.156  17.662   6.219  0.00  0.00     0.038 A 
HETATM   14  C   UNK N   1      33.661  17.773   7.498  0.00  0.00     0.105 A 
HETATM   15  C   UNK N   1      32.304  17.551   7.709  0.00  0.00     0.068 A 
HETATM   16  C   UNK N   1      31.368  17.227   6.678  0.00  0.00     0.065 A 
HETATM   17  N   UNK N   1      30.055  17.047   7.084  0.00  0.00    -0.331 N 
HETATM   18  C   UNK N   1      28.918  16.774   6.353  0.00  0.00     0.123 A 
ENDROOT
BRANCH  14  19
HETATM   19  N   UNK N   1      34.527  18.116   8.573  0.00  0.00    -0.116 N 
HETATM   20  O   UNK N   1      35.264  19.204   8.510  0.00  0.00    -0.532 OA
HETATM   21  O   UNK N   1      34.579  17.428   9.549  0.00  0.00    -0.532 OA
ENDBRANCH  14  19
BRANCH  17  22
HETATM   22  C   UNK N   1      29.833  17.135   8.554  0.00  0.00     0.126 C 
HETATM   23  C   UNK N   1      29.481  18.546   9.011  0.00  0.00     0.027 C 
ENDBRANCH  17  22
TORSDOF 2
ENDMDL
MODEL 2
REMARK VINA RESULT:      -6.8      6.486     10.425
REMARK  2 active torsions:
REMARK  status: ('A' for Active; 'I' for Inactive)
REMARK    1  A    between atoms: C_14  and  N_15 
REMARK    2  A    between atoms: N_20  and  C_21 
ROOT
HETATM    1  N   UNK N   1      25.607  17.952   5.284  0.00  0.00    -0.351 N 
ATOM      2  HN  UNK N   1      25.523  17.129   5.880  1.00  0.00     0.166 HD
HETATM    3  C   UNK N   1      26.818  18.544   5.210  0.00  0.00     0.090 A 
HETATM    4  C   UNK N   1      26.977  19.659   4.427  0.00  0.00     0.018 A 
HETATM    5  C   UNK N   1      25.877  20.140   3.748  0.00  0.00     0.022 A 
HETATM    6  C   UNK N   1      24.594  19.533   3.806  0.00  0.00     0.076 A 
HETATM    7  C   UNK N   1      23.613  20.199   3.045  0.00  0.00     0.261 A 
HETATM    8  O   UNK N   1      23.990  21.209   2.454  0.00  0.00    -0.267 OA
HETATM    9  N   UNK N   1      22.290  19.845   2.890  0.00  0.00    -0.316 N 
HETATM   10  C   UNK N   1      21.531  20.774   2.025  0.00  0.00     0.159 C 
HETATM   11  C   UNK N   1      21.582  18.777   3.398  0.00  0.00     0.064 A 
HETATM   12  C   UNK N   1      20.215  18.700   3.001  0.00  0.00     0.034 A 
HETATM   13  C   UNK N   1      19.347  17.701   3.392  0.00  0.00     0.038 A 
HETATM   14  C   UNK N   1      19.797  16.701   4.222  0.00  0.00     0.105 A 
HETATM   15  C   UNK N   1      21.119  16.738   4.654  0.00  0.00     0.068 A 
HETATM   16  C   UNK N   1      22.064  17.745   4.280  0.00  0.00     0.065 A 
HETATM   17  N   UNK N   1      23.337  17.609   4.808  0.00  0.00    -0.331 N 
HETATM   18  C   UNK N   1      24.474  18.367   4.619  0.00  0.00     0.123 A 
ENDROOT
BRANCH  14  19
HETATM   19  N   UNK N   1      18.923  15.651   4.619  0.00  0.00    -0.116 N 
HETATM   20  O   UNK N   1      18.095  15.822   5.626  0.00  0.00    -0.532 OA
HETATM   21  O   UNK N   1      18.923  14.611   4.029  0.00  0.00    -0.532 OA
ENDBRANCH  14  19
BRANCH  17  22
HETATM   22  C   UNK N   1      23.507  16.475   5.760  0.00  0.00     0.126 C 
HETATM   23  C   UNK N   1      24.014  15.210   5.080  0.00  0.00     0.027 C 
ENDBRANCH  17  22
TORSDOF 2
ENDMDL
MODEL 3
REMARK VINA RESULT:      -6.7     11.862     13.868
REMARK  2 active torsions:
REMARK  status: ('A' for Active; 'I' for Inactive)
REMARK    1  A    between atoms: C_14  and  N_15 
REMARK    2  A    between atoms: N_20  and  C_21 
ROOT
HETATM    1  N   UNK N   1      26.508  24.786  -7.128  0.00  0.00    -0.351 N 
ATOM      2  HN  UNK N   1      26.495  25.410  -6.321  1.00  0.00     0.166 HD
HETATM    3  C   UNK N   1      25.707  25.101  -8.169  0.00  0.00     0.090 A 
HETATM    4  C   UNK N   1      25.684  24.287  -9.272  0.00  0.00     0.018 A 
HETATM    5  C   UNK N   1      26.481  23.161  -9.267  0.00  0.00     0.022 A 
HETATM    6  C   UNK N   1      27.334  22.809  -8.186  0.00  0.00     0.076 A 
HETATM    7  C   UNK N   1      28.047  21.612  -8.389  0.00  0.00     0.261 A 
HETATM    8  O   UNK N   1      27.829  21.032  -9.451  0.00  0.00    -0.267 OA
HETATM    9  N   UNK N   1      28.957  21.025  -7.536  0.00  0.00    -0.316 N 
HETATM   10  C   UNK N   1      29.518  19.759  -8.057  0.00  0.00     0.159 C 
HETATM   11  C   UNK N   1      29.422  21.429  -6.303  0.00  0.00     0.064 A 
HETATM   12  C   UNK N   1      30.401  20.583  -5.706  0.00  0.00     0.034 A 
HETATM   13  C   UNK N   1      30.996  20.824  -4.484  0.00  0.00     0.038 A 
HETATM   14  C   UNK N   1      30.641  21.944  -3.769  0.00  0.00     0.105 A 
HETATM   15  C   UNK N   1      29.677  22.795  -4.299  0.00  0.00     0.068 A 
HETATM   16  C   UNK N   1      29.029  22.598  -5.558  0.00  0.00     0.065 A 
HETATM   17  N   UNK N   1      28.098  23.559  -5.919  0.00  0.00    -0.331 N 
HETATM   18  C   UNK N   1      27.340  23.691  -7.065  0.00  0.00     0.123 A 
ENDROOT
BRANCH  14  19
HETATM   19  N   UNK N   1      31.259  22.220  -2.518  0.00  0.00    -0.116 N 
HETATM   20  O   UNK N   1      32.399  21.645  -2.199  0.00  0.00    -0.532 OA
HETATM   21  O   UNK N   1      30.756  22.990  -1.754  0.00  0.00    -0.532 OA
ENDBRANCH  14  19
BRANCH  17  22
HETATM   22  C   UNK N   1      27.849  24.612  -4.895  0.00  0.00     0.126 C 
HETATM   23  C   UNK N   1      26.672  24.278  -3.986  0.00  0.00     0.027 C 
ENDBRANCH  17  22
TORSDOF 2
ENDMDL
MODEL 4
REMARK VINA RESULT:      -6.7     12.488     14.782
REMARK  2 active torsions:
REMARK  status: ('A' for Active; 'I' for Inactive)
REMARK    1  A    between atoms: C_14  and  N_15 
REMARK    2  A    between atoms: N_20  and  C_21 
ROOT
HETATM    1  N   UNK N   1      30.016  21.966  -5.106  0.00  0.00    -0.351 N 
ATOM      2  HN  UNK N   1      30.406  22.347  -4.244  1.00  0.00     0.166 HD
HETATM    3  C   UNK N   1      30.602  20.860  -5.615  0.00  0.00     0.090 A 
HETATM    4  C   UNK N   1      30.119  20.316  -6.777  0.00  0.00     0.018 A 
HETATM    5  C   UNK N   1      29.049  20.935  -7.390  0.00  0.00     0.022 A 
HETATM    6  C   UNK N   1      28.414  22.095  -6.874  0.00  0.00     0.076 A 
HETATM    7  C   UNK N   1      27.350  22.566  -7.669  0.00  0.00     0.261 A 
HETATM    8  O   UNK N   1      27.128  21.928  -8.696  0.00  0.00    -0.267 OA
HETATM    9  N   UNK N   1      26.539  23.652  -7.424  0.00  0.00    -0.316 N 
HETATM   10  C   UNK N   1      25.520  23.873  -8.474  0.00  0.00     0.159 C 
HETATM   11  C   UNK N   1      26.522  24.541  -6.370  0.00  0.00     0.064 A 
HETATM   12  C   UNK N   1      25.508  25.541  -6.423  0.00  0.00     0.034 A 
HETATM   13  C   UNK N   1      25.321  26.510  -5.459  0.00  0.00     0.038 A 
HETATM   14  C   UNK N   1      26.152  26.543  -4.363  0.00  0.00     0.105 A 
HETATM   15  C   UNK N   1      27.170  25.599  -4.271  0.00  0.00     0.068 A 
HETATM   16  C   UNK N   1      27.410  24.572  -5.235  0.00  0.00     0.065 A 
HETATM   17  N   UNK N   1      28.470  23.721  -4.965  0.00  0.00    -0.331 N 
HETATM   18  C   UNK N   1      28.937  22.621  -5.655  0.00  0.00     0.123 A 
ENDROOT
BRANCH  14  19
HETATM   19  N   UNK N   1      25.960  27.521  -3.348  0.00  0.00    -0.116 N 
HETATM   20  O   UNK N   1      25.836  28.792  -3.666  0.00  0.00    -0.532 OA
HETATM   21  O   UNK N   1      25.895  27.195  -2.200  0.00  0.00    -0.532 OA
ENDBRANCH  14  19
BRANCH  17  22
HETATM   22  C   UNK N   1      29.256  24.061  -3.747  0.00  0.00     0.126 C 
HETATM   23  C   UNK N   1      28.824  23.258  -2.527  0.00  0.00     0.027 C 
ENDBRANCH  17  22
TORSDOF 2
ENDMDL
MODEL 5
REMARK VINA RESULT:      -6.5      5.340      8.631
REMARK  2 active torsions:
REMARK  status: ('A' for Active; 'I' for Inactive)
REMARK    1  A    between atoms: C_14  and  N_15 
REMARK    2  A    between atoms: N_20  and  C_21 
ROOT
HETATM    1  N   UNK N   1      23.525  15.043   6.444  0.00  0.00    -0.351 N 
ATOM      2  HN  UNK N   1      22.505  15.038   6.432  1.00  0.00     0.166 HD
HETATM    3  C   UNK N   1      24.143  14.028   7.085  0.00  0.00     0.090 A 
HETATM    4  C   UNK N   1      25.513  13.997   7.135  0.00  0.00     0.018 A 
HETATM    5  C   UNK N   1      26.210  15.022   6.528  0.00  0.00     0.022 A 
HETATM    6  C   UNK N   1      25.583  16.098   5.845  0.00  0.00     0.076 A 
HETATM    7  C   UNK N   1      26.487  17.039   5.312  0.00  0.00     0.261 A 
HETATM    8  O   UNK N   1      27.678  16.815   5.521  0.00  0.00    -0.267 OA
HETATM    9  N   UNK N   1      26.185  18.172   4.589  0.00  0.00    -0.316 N 
HETATM   10  C   UNK N   1      27.380  18.948   4.189  0.00  0.00     0.159 C 
HETATM   11  C   UNK N   1      24.970  18.680   4.181  0.00  0.00     0.064 A 
HETATM   12  C   UNK N   1      25.031  19.875   3.406  0.00  0.00     0.034 A 
HETATM   13  C   UNK N   1      23.927  20.528   2.896  0.00  0.00     0.038 A 
HETATM   14  C   UNK N   1      22.672  20.020   3.135  0.00  0.00     0.105 A 
HETATM   15  C   UNK N   1      22.555  18.864   3.901  0.00  0.00     0.068 A 
HETATM   16  C   UNK N   1      23.661  18.145   4.452  0.00  0.00     0.065 A 
HETATM   17  N   UNK N   1      23.344  17.011   5.183  0.00  0.00    -0.331 N 
HETATM   18  C   UNK N   1      24.158  16.085   5.803  0.00  0.00     0.123 A 
ENDROOT
BRANCH  14  19
HETATM   19  N   UNK N   1      21.524  20.666   2.599  0.00  0.00    -0.116 N 
HETATM   20  O   UNK N   1      21.442  20.913   1.309  0.00  0.00    -0.532 OA
HETATM   21  O   UNK N   1      20.617  20.976   3.314  0.00  0.00    -0.532 OA
ENDBRANCH  14  19
BRANCH  17  22
HETATM   22  C   UNK N   1      21.886  16.761   5.357  0.00  0.00     0.126 C 
HETATM   23  C   UNK N   1      21.314  17.453   6.589  0.00  0.00     0.027 C 
ENDBRANCH  17  22
TORSDOF 2
ENDMDL
MODEL 6
REMARK VINA RESULT:      -6.5      2.721      5.255
REMARK  2 active torsions:
REMARK  status: ('A' for Active; 'I' for Inactive)
REMARK    1  A    between atoms: C_14  and  N_15 
REMARK    2  A    between atoms: N_20  and  C_21 
ROOT
HETATM    1  N   UNK N   1      31.676  14.709   3.541  0.00  0.00    -0.351 N 
ATOM      2  HN  UNK N   1      30.679  14.619   3.340  1.00  0.00     0.166 HD
HETATM    3  C   UNK N   1      32.537  14.123   2.682  0.00  0.00     0.090 A 
HETATM    4  C   UNK N   1      33.885  14.209   2.916  0.00  0.00     0.018 A 
HETATM    5  C   UNK N   1      34.309  14.890   4.038  0.00  0.00     0.022 A 
HETATM    6  C   UNK N   1      33.424  15.518   4.954  0.00  0.00     0.076 A 
HETATM    7  C   UNK N   1      34.073  16.145   6.036  0.00  0.00     0.261 A 
HETATM    8  O   UNK N   1      35.299  16.054   6.050  0.00  0.00    -0.267 OA
HETATM    9  N   UNK N   1      33.490  16.845   7.070  0.00  0.00    -0.316 N 
HETATM   10  C   UNK N   1      34.467  17.369   8.049  0.00  0.00     0.159 C 
HETATM   11  C   UNK N   1      32.166  17.135   7.324  0.00  0.00     0.064 A 
HETATM   12  C   UNK N   1      31.920  17.923   8.486  0.00  0.00     0.034 A 
HETATM   13  C   UNK N   1      30.667  18.327   8.900  0.00  0.00     0.038 A 
HETATM   14  C   UNK N   1      29.562  17.961   8.168  0.00  0.00     0.105 A 
HETATM   15  C   UNK N   1      29.746  17.177   7.033  0.00  0.00     0.068 A 
HETATM   16  C   UNK N   1      31.017  16.731   6.555  0.00  0.00     0.065 A 
HETATM   17  N   UNK N   1      30.997  15.962   5.402  0.00  0.00    -0.331 N 
HETATM   18  C   UNK N   1      32.030  15.418   4.667  0.00  0.00     0.123 A 
ENDROOT
BRANCH  14  19
HETATM   19  N   UNK N   1      28.265  18.386   8.567  0.00  0.00    -0.116 N 
HETATM   20  O   UNK N   1      27.692  19.412   7.975  0.00  0.00    -0.532 OA
HETATM   21  O   UNK N   1      27.679  17.805   9.431  0.00  0.00    -0.532 OA
ENDBRANCH  14  19
BRANCH  17  22
HETATM   22  C   UNK N   1      29.639  15.643   4.881  0.00  0.00     0.126 C 
HETATM   23  C   UNK N   1      29.164  16.640   3.831  0.00  0.00     0.027 C 
ENDBRANCH  17  22
TORSDOF 2
ENDMDL
MODEL 7
REMARK VINA RESULT:      -6.5      7.372     10.159
REMARK  2 active torsions:
REMARK  status: ('A' for Active; 'I' for Inactive)
REMARK    1  A    between atoms: C_14  and  N_15 
REMARK    2  A    between atoms: N_20  and  C_21 
ROOT
HETATM    1  N   UNK N   1      25.030  16.074   6.199  0.00  0.00    -0.351 N 
ATOM      2  HN  UNK N   1      25.706  16.804   5.973  1.00  0.00     0.166 HD
HETATM    3  C   UNK N   1      25.457  15.052   6.973  0.00  0.00     0.090 A 
HETATM    4  C   UNK N   1      24.587  14.043   7.297  0.00  0.00     0.018 A 
HETATM    5  C   UNK N   1      23.300  14.109   6.803  0.00  0.00     0.022 A 
HETATM    6  C   UNK N   1      22.827  15.174   5.991  0.00  0.00     0.076 A 
HETATM    7  C   UNK N   1      21.484  15.031   5.589  0.00  0.00     0.261 A 
HETATM    8  O   UNK N   1      20.915  14.012   5.976  0.00  0.00    -0.267 OA
HETATM    9  N   UNK N   1      20.744  15.901   4.817  0.00  0.00    -0.316 N 
HETATM   10  C   UNK N   1      19.360  15.438   4.574  0.00  0.00     0.159 C 
HETATM   11  C   UNK N   1      21.083  17.114   4.256  0.00  0.00     0.064 A 
HETATM   12  C   UNK N   1      20.043  17.770   3.536  0.00  0.00     0.034 A 
HETATM   13  C   UNK N   1      20.182  18.996   2.915  0.00  0.00     0.038 A 
HETATM   14  C   UNK N   1      21.390  19.651   2.974  0.00  0.00     0.105 A 
HETATM   15  C   UNK N   1      22.444  19.045   3.652  0.00  0.00     0.068 A 
HETATM   16  C   UNK N   1      22.358  17.781   4.314  0.00  0.00     0.065 A 
HETATM   17  N   UNK N   1      23.515  17.344   4.940  0.00  0.00    -0.331 N 
HETATM   18  C   UNK N   1      23.758  16.212   5.690  0.00  0.00     0.123 A 
ENDROOT
BRANCH  14  19
HETATM   19  N   UNK N   1      21.545  20.924   2.360  0.00  0.00    -0.116 N 
HETATM   20  O   UNK N   1      20.782  21.269   1.345  0.00  0.00    -0.532 OA
HETATM   21  O   UNK N   1      22.360  21.696   2.771  0.00  0.00    -0.532 OA
ENDBRANCH  14  19
BRANCH  17  22
HETATM   22  C   UNK N   1      24.703  18.223   4.753  0.00  0.00     0.126 C 
HETATM   23  C   UNK N   1      25.572  17.791   3.578  0.00  0.00     0.027 C 
ENDBRANCH  17  22
TORSDOF 2
ENDMDL
MODEL 8
REMARK VINA RESULT:      -6.4      7.802     10.086
REMARK  2 active torsions:
REMARK  status: ('A' for Active; 'I' for Inactive)
REMARK    1  A    between atoms: C_14  and  N_15 
REMARK    2  A    between atoms: N_20  and  C_21 
ROOT
HETATM    1  N   UNK N   1      23.314  12.482   9.498  0.00  0.00    -0.351 N 
ATOM      2  HN  UNK N   1      24.235  12.290   9.101  1.00  0.00     0.166 HD
HETATM    3  C   UNK N   1      22.918  11.722  10.541  0.00  0.00     0.090 A 
HETATM    4  C   UNK N   1      21.686  11.938  11.102  0.00  0.00     0.018 A 
HETATM    5  C   UNK N   1      20.889  12.927  10.563  0.00  0.00     0.022 A 
HETATM    6  C   UNK N   1      21.284  13.742   9.470  0.00  0.00     0.076 A 
HETATM    7  C   UNK N   1      20.310  14.679   9.075  0.00  0.00     0.261 A 
HETATM    8  O   UNK N   1      19.257  14.657   9.711  0.00  0.00    -0.267 OA
HETATM    9  N   UNK N   1      20.405  15.612   8.065  0.00  0.00    -0.316 N 
HETATM   10  C   UNK N   1      19.188  16.437   7.910  0.00  0.00     0.159 C 
HETATM   11  C   UNK N   1      21.441  15.895   7.200  0.00  0.00     0.064 A 
HETATM   12  C   UNK N   1      21.206  16.964   6.287  0.00  0.00     0.034 A 
HETATM   13  C   UNK N   1      22.123  17.406   5.354  0.00  0.00     0.038 A 
HETATM   14  C   UNK N   1      23.351  16.793   5.272  0.00  0.00     0.105 A 
HETATM   15  C   UNK N   1      23.626  15.733   6.129  0.00  0.00     0.068 A 
HETATM   16  C   UNK N   1      22.719  15.234   7.115  0.00  0.00     0.065 A 
HETATM   17  N   UNK N   1      23.175  14.173   7.880  0.00  0.00    -0.331 N 
HETATM   18  C   UNK N   1      22.580  13.496   8.925  0.00  0.00     0.123 A 
ENDROOT
BRANCH  14  19
HETATM   19  N   UNK N   1      24.317  17.249   4.332  0.00  0.00    -0.116 N 
HETATM   20  O   UNK N   1      24.619  18.527   4.257  0.00  0.00    -0.532 OA
HETATM   21  O   UNK N   1      24.872  16.471   3.613  0.00  0.00    -0.532 OA
ENDBRANCH  14  19
BRANCH  17  22
HETATM   22  C   UNK N   1      24.517  13.652   7.498  0.00  0.00     0.126 C 
HETATM   23  C   UNK N   1      24.437  12.478   6.530  0.00  0.00     0.027 C 
ENDBRANCH  17  22
TORSDOF 2
ENDMDL
MODEL 9
REMARK VINA RESULT:      -6.4      6.478     10.086
REMARK  2 active torsions:
REMARK  status: ('A' for Active; 'I' for Inactive)
REMARK    1  A    between atoms: C_14  and  N_15 
REMARK    2  A    between atoms: N_20  and  C_21 
ROOT
HETATM    1  N   UNK N   1      23.624  20.106   3.249  0.00  0.00    -0.351 N 
ATOM      2  HN  UNK N   1      22.714  20.515   3.036  1.00  0.00     0.166 HD
HETATM    3  C   UNK N   1      24.715  20.728   2.751  0.00  0.00     0.090 A 
HETATM    4  C   UNK N   1      25.959  20.210   3.004  0.00  0.00     0.018 A 
HETATM    5  C   UNK N   1      26.044  19.057   3.756  0.00  0.00     0.022 A 
HETATM    6  C   UNK N   1      24.913  18.387   4.294  0.00  0.00     0.076 A 
HETATM    7  C   UNK N   1      25.230  17.222   5.019  0.00  0.00     0.261 A 
HETATM    8  O   UNK N   1      26.425  16.936   5.076  0.00  0.00    -0.267 OA
HETATM    9  N   UNK N   1      24.358  16.375   5.667  0.00  0.00    -0.316 N 
HETATM   10  C   UNK N   1      25.028  15.233   6.327  0.00  0.00     0.159 C 
HETATM   11  C   UNK N   1      22.987  16.430   5.802  0.00  0.00     0.064 A 
HETATM   12  C   UNK N   1      22.402  15.390   6.581  0.00  0.00     0.034 A 
HETATM   13  C   UNK N   1      21.051  15.279   6.841  0.00  0.00     0.038 A 
HETATM   14  C   UNK N   1      20.185  16.216   6.328  0.00  0.00     0.105 A 
HETATM   15  C   UNK N   1      20.702  17.244   5.546  0.00  0.00     0.068 A 
HETATM   16  C   UNK N   1      22.090  17.411   5.245  0.00  0.00     0.065 A 
HETATM   17  N   UNK N   1      22.413  18.502   4.454  0.00  0.00    -0.331 N 
HETATM   18  C   UNK N   1      23.638  18.967   4.021  0.00  0.00     0.123 A 
ENDROOT
BRANCH  14  19
HETATM   19  N   UNK N   1      18.792  16.131   6.603  0.00  0.00    -0.116 N 
HETATM   20  O   UNK N   1      18.340  16.363   7.817  0.00  0.00    -0.532 OA
HETATM   21  O   UNK N   1      18.020  15.863   5.731  0.00  0.00    -0.532 OA
ENDBRANCH  14  19
BRANCH  17  22
HETATM   22  C   UNK N   1      21.249  19.290   3.962  0.00  0.00     0.126 C 
HETATM   23  C   UNK N   1      20.730  18.793   2.618  0.00  0.00     0.027 C 
ENDBRANCH  17  22
TORSDOF 2
ENDMDL
