MODEL 1
REMARK VINA RESULT:      -6.6      0.000      0.000
REMARK  4 active torsions:
REMARK  status: ('A' for Active; 'I' for Inactive)
REMARK    1  A    between atoms: C_2  and  C_5 
REMARK    2  A    between atoms: C_10  and  N_11 
REMARK    3  A    between atoms: N_13  and  C_15 
REMARK    4  A    between atoms: C_23  and  N_24 
ROOT
HETATM    1  N   UNK N   1      32.372  15.251  10.299  0.00  0.00    -0.300 N 
ATOM      2  HN  UNK N   1      32.045  15.373  11.257  1.00  0.00     0.187 HD
HETATM    3  N   UNK N   1      33.468  14.701  10.095  0.00  0.00    -0.293 N 
ATOM      4  HN  UNK N   1      33.652  14.238   9.204  1.00  0.00     0.187 HD
ENDROOT
BRANCH   3   5
HETATM    5  C   UNK N   1      34.463  14.719  11.103  0.00  0.00     0.138 A 
HETATM    6  C   UNK N   1      34.957  13.606  11.881  0.00  0.00     0.146 A 
HETATM    7  N   UNK N   1      34.603  12.379  11.792  0.00  0.00    -0.382 N 
HETATM    8  N   UNK N   1      36.067  14.072  12.612  0.00  0.00    -0.282 N 
HETATM    9  H   UNK N   1      34.949  11.711  12.427  0.00  0.00     0.157 HD
ATOM     10  HN  UNK N   1      33.957  12.090  11.057  1.00  0.00     0.157 HD
HETATM   11  N   UNK N   1      36.238  15.283  12.368  0.00  0.00    -0.282 N 
ATOM     12  HN  UNK N   1      36.640  13.510  13.241  1.00  0.00     0.188 HD
HETATM   13  C   UNK N   1      35.270  15.732  11.433  0.00  0.00     0.146 A 
ATOM     14  HN  UNK N   1      36.968  15.865  12.780  1.00  0.00     0.188 HD
BRANCH  13  15
HETATM   15  N   UNK N   1      35.252  17.031  10.873  0.00  0.00    -0.382 N 
HETATM   16  H   UNK N   1      35.698  17.777  11.337  0.00  0.00     0.157 HD
HETATM   17  H   UNK N   1      34.791  17.190  10.018  0.00  0.00     0.157 HD
ENDBRANCH  13  15
ENDBRANCH   3   5
BRANCH   1  18
HETATM   18  C   UNK N   1      31.575  15.710   9.232  0.00  0.00     0.048 A 
HETATM   19  C   UNK N   1      31.962  15.502   7.899  0.00  0.00     0.031 A 
HETATM   20  C   UNK N   1      31.315  16.189   6.870  0.00  0.00     0.003 A 
HETATM   21  C   UNK N   1      30.319  17.121   7.173  0.00  0.00     0.016 A 
HETATM   22  C   UNK N   1      29.929  17.330   8.503  0.00  0.00     0.050 A 
HETATM   23  C   UNK N   1      30.560  16.616   9.524  0.00  0.00     0.047 A 
BRANCH  22  24
HETATM   24  C   UNK N   1      28.910  18.376   8.837  0.00  0.00     0.417 C 
HETATM   25  F   UNK N   1      29.358  19.113   9.918  0.00  0.00    -0.166 F 
HETATM   26  F   UNK N   1      27.695  17.798   9.170  0.00  0.00    -0.166 F 
HETATM   27  F   UNK N   1      28.724  19.215   7.756  0.00  0.00    -0.166 F 
ENDBRANCH  22  24
ENDBRANCH   1  18
TORSDOF 4
ENDMDL
MODEL 2
REMARK VINA RESULT:      -6.5      4.900      7.715
REMARK  4 active torsions:
REMARK  status: ('A' for Active; 'I' for Inactive)
REMARK    1  A    between atoms: C_2  and  C_5 
REMARK    2  A    between atoms: C_10  and  N_11 
REMARK    3  A    between atoms: N_13  and  C_15 
REMARK    4  A    between atoms: C_23  and  N_24 
ROOT
HETATM    1  N   UNK N   1      35.543  13.431  11.455  0.00  0.00    -0.300 N 
ATOM      2  HN  UNK N   1      35.967  13.246  10.547  1.00  0.00     0.187 HD
HETATM    3  N   UNK N   1      34.445  14.012  11.509  0.00  0.00    -0.293 N 
ATOM      4  HN  UNK N   1      33.836  13.885  12.318  1.00  0.00     0.187 HD
ENDROOT
BRANCH   3   5
HETATM    5  C   UNK N   1      34.041  14.853  10.442  0.00  0.00     0.138 A 
HETATM    6  C   UNK N   1      33.074  14.568   9.407  0.00  0.00     0.146 A 
HETATM    7  N   UNK N   1      32.377  13.503   9.267  0.00  0.00    -0.382 N 
HETATM    8  N   UNK N   1      32.867  15.765   8.694  0.00  0.00    -0.282 N 
HETATM    9  H   UNK N   1      31.802  13.382   8.477  0.00  0.00     0.157 HD
ATOM     10  HN  UNK N   1      32.418  12.774   9.980  1.00  0.00     0.157 HD
HETATM   11  N   UNK N   1      33.597  16.657   9.171  0.00  0.00    -0.282 N 
ATOM     12  HN  UNK N   1      32.223  15.884   7.913  1.00  0.00     0.188 HD
HETATM   13  C   UNK N   1      34.344  16.142  10.263  0.00  0.00     0.146 A 
ATOM     14  HN  UNK N   1      33.649  17.616   8.828  1.00  0.00     0.188 HD
BRANCH  13  15
HETATM   15  N   UNK N   1      35.190  16.924  11.083  0.00  0.00    -0.382 N 
HETATM   16  H   UNK N   1      35.284  17.890  10.918  0.00  0.00     0.157 HD
HETATM   17  H   UNK N   1      35.688  16.500  11.819  0.00  0.00     0.157 HD
ENDBRANCH  13  15
ENDBRANCH   3   5
BRANCH   1  18
HETATM   18  C   UNK N   1      36.212  13.025  12.626  0.00  0.00     0.048 A 
HETATM   19  C   UNK N   1      37.238  12.068  12.579  0.00  0.00     0.031 A 
HETATM   20  C   UNK N   1      37.699  11.480  13.758  0.00  0.00     0.003 A 
HETATM   21  C   UNK N   1      37.102  11.807  14.979  0.00  0.00     0.016 A 
HETATM   22  C   UNK N   1      36.078  12.762  15.030  0.00  0.00     0.050 A 
HETATM   23  C   UNK N   1      35.644  13.368  13.850  0.00  0.00     0.047 A 
BRANCH  22  24
HETATM   24  C   UNK N   1      35.390  13.065  16.327  0.00  0.00     0.417 C 
HETATM   25  F   UNK N   1      35.981  14.177  16.901  0.00  0.00    -0.166 F 
HETATM   26  F   UNK N   1      35.500  12.002  17.209  0.00  0.00    -0.166 F 
HETATM   27  F   UNK N   1      34.053  13.322  16.101  0.00  0.00    -0.166 F 
ENDBRANCH  22  24
ENDBRANCH   1  18
TORSDOF 4
ENDMDL
MODEL 3
REMARK VINA RESULT:      -6.4      9.682     12.589
REMARK  4 active torsions:
REMARK  status: ('A' for Active; 'I' for Inactive)
REMARK    1  A    between atoms: C_2  and  C_5 
REMARK    2  A    between atoms: C_10  and  N_11 
REMARK    3  A    between atoms: N_13  and  C_15 
REMARK    4  A    between atoms: C_23  and  N_24 
ROOT
HETATM    1  N   UNK N   1      23.196  18.806   3.943  0.00  0.00    -0.300 N 
ATOM      2  HN  UNK N   1      23.159  17.801   4.111  1.00  0.00     0.187 HD
HETATM    3  N   UNK N   1      22.140  19.428   3.728  0.00  0.00    -0.293 N 
ATOM      4  HN  UNK N   1      22.084  20.427   3.924  1.00  0.00     0.187 HD
ENDROOT
BRANCH   3   5
HETATM    5  C   UNK N   1      21.015  18.743   3.207  0.00  0.00     0.138 A 
HETATM    6  C   UNK N   1      20.295  17.640   3.802  0.00  0.00     0.146 A 
HETATM    7  N   UNK N   1      20.525  17.082   4.932  0.00  0.00    -0.382 N 
HETATM    8  N   UNK N   1      19.145  17.425   3.017  0.00  0.00    -0.282 N 
HETATM    9  H   UNK N   1      20.019  16.284   5.207  0.00  0.00     0.157 HD
ATOM     10  HN  UNK N   1      21.238  17.468   5.551  1.00  0.00     0.157 HD
HETATM   11  N   UNK N   1      19.143  18.231   2.066  0.00  0.00    -0.282 N 
ATOM     12  HN  UNK N   1      18.429  16.722   3.198  1.00  0.00     0.188 HD
HETATM   13  C   UNK N   1      20.282  19.075   2.140  0.00  0.00     0.146 A 
ATOM     14  HN  UNK N   1      18.427  18.277   1.340  1.00  0.00     0.188 HD
BRANCH  13  15
HETATM   15  N   UNK N   1      20.521  20.161   1.267  0.00  0.00    -0.382 N 
HETATM   16  H   UNK N   1      20.904  20.003   0.373  0.00  0.00     0.157 HD
HETATM   17  H   UNK N   1      20.305  21.077   1.553  0.00  0.00     0.157 HD
ENDBRANCH  13  15
ENDBRANCH   3   5
BRANCH   1  18
HETATM   18  C   UNK N   1      24.440  19.465   3.959  0.00  0.00     0.048 A 
HETATM   19  C   UNK N   1      24.820  20.320   2.912  0.00  0.00     0.031 A 
HETATM   20  C   UNK N   1      26.145  20.746   2.805  0.00  0.00     0.003 A 
HETATM   21  C   UNK N   1      27.103  20.277   3.709  0.00  0.00     0.016 A 
HETATM   22  C   UNK N   1      26.727  19.424   4.755  0.00  0.00     0.050 A 
HETATM   23  C   UNK N   1      25.394  19.028   4.874  0.00  0.00     0.047 A 
BRANCH  22  24
HETATM   24  C   UNK N   1      27.762  18.866   5.685  0.00  0.00     0.417 C 
HETATM   25  F   UNK N   1      27.942  19.746   6.737  0.00  0.00    -0.166 F 
HETATM   26  F   UNK N   1      28.976  18.700   5.036  0.00  0.00    -0.166 F 
HETATM   27  F   UNK N   1      27.345  17.645   6.174  0.00  0.00    -0.166 F 
ENDBRANCH  22  24
ENDBRANCH   1  18
TORSDOF 4
ENDMDL
MODEL 4
REMARK VINA RESULT:      -6.4     14.051     15.162
REMARK  4 active torsions:
REMARK  status: ('A' for Active; 'I' for Inactive)
REMARK    1  A    between atoms: C_2  and  C_5 
REMARK    2  A    between atoms: C_10  and  N_11 
REMARK    3  A    between atoms: N_13  and  C_15 
REMARK    4  A    between atoms: C_23  and  N_24 
ROOT
HETATM    1  N   UNK N   1      42.180  23.869   1.229  0.00  0.00    -0.300 N 
ATOM      2  HN  UNK N   1      43.068  23.909   0.729  1.00  0.00     0.187 HD
HETATM    3  N   UNK N   1      42.179  23.665   2.455  0.00  0.00    -0.293 N 
ATOM      4  HN  UNK N   1      41.394  23.979   3.027  1.00  0.00     0.187 HD
ENDROOT
BRANCH   3   5
HETATM    5  C   UNK N   1      43.272  22.994   3.058  0.00  0.00     0.138 A 
HETATM    6  C   UNK N   1      43.323  21.628   3.528  0.00  0.00     0.146 A 
HETATM    7  N   UNK N   1      42.391  20.752   3.469  0.00  0.00    -0.382 N 
HETATM    8  N   UNK N   1      44.663  21.357   3.866  0.00  0.00    -0.282 N 
HETATM    9  H   UNK N   1      42.507  19.870   3.892  0.00  0.00     0.157 HD
ATOM     10  HN  UNK N   1      41.522  20.969   2.981  1.00  0.00     0.157 HD
HETATM   11  N   UNK N   1      45.348  22.381   3.675  0.00  0.00    -0.282 N 
ATOM     12  HN  UNK N   1      45.017  20.466   4.213  1.00  0.00     0.188 HD
HETATM   13  C   UNK N   1      44.531  23.426   3.168  0.00  0.00     0.146 A 
ATOM     14  HN  UNK N   1      46.350  22.457   3.855  1.00  0.00     0.188 HD
BRANCH  13  15
HETATM   15  N   UNK N   1      45.023  24.685   2.753  0.00  0.00    -0.382 N 
HETATM   16  H   UNK N   1      44.409  25.357   2.376  0.00  0.00     0.157 HD
HETATM   17  H   UNK N   1      45.981  24.891   2.841  0.00  0.00     0.157 HD
ENDBRANCH  13  15
ENDBRANCH   3   5
BRANCH   1  18
HETATM   18  C   UNK N   1      40.977  24.045   0.517  0.00  0.00     0.048 A 
HETATM   19  C   UNK N   1      40.427  23.001  -0.243  0.00  0.00     0.031 A 
HETATM   20  C   UNK N   1      39.398  23.264  -1.149  0.00  0.00     0.003 A 
HETATM   21  C   UNK N   1      38.955  24.577  -1.337  0.00  0.00     0.016 A 
HETATM   22  C   UNK N   1      39.502  25.621  -0.580  0.00  0.00     0.050 A 
HETATM   23  C   UNK N   1      40.509  25.344   0.347  0.00  0.00     0.047 A 
BRANCH  22  24
HETATM   24  C   UNK N   1      39.077  27.037  -0.826  0.00  0.00     0.417 C 
HETATM   25  F   UNK N   1      39.808  27.550  -1.882  0.00  0.00    -0.166 F 
HETATM   26  F   UNK N   1      39.301  27.826   0.291  0.00  0.00    -0.166 F 
HETATM   27  F   UNK N   1      37.732  27.077  -1.139  0.00  0.00    -0.166 F 
ENDBRANCH  22  24
ENDBRANCH   1  18
TORSDOF 4
ENDMDL
MODEL 5
REMARK VINA RESULT:      -6.3      2.662      4.176
REMARK  4 active torsions:
REMARK  status: ('A' for Active; 'I' for Inactive)
REMARK    1  A    between atoms: C_2  and  C_5 
REMARK    2  A    between atoms: C_10  and  N_11 
REMARK    3  A    between atoms: N_13  and  C_15 
REMARK    4  A    between atoms: C_23  and  N_24 
ROOT
HETATM    1  N   UNK N   1      30.264  17.136   7.864  0.00  0.00    -0.300 N 
ATOM      2  HN  UNK N   1      30.123  17.407   8.836  1.00  0.00     0.187 HD
HETATM    3  N   UNK N   1      31.217  16.392   7.570  0.00  0.00    -0.293 N 
ATOM      4  HN  UNK N   1      31.178  15.817   6.728  1.00  0.00     0.187 HD
ENDROOT
BRANCH   3   5
HETATM    5  C   UNK N   1      32.358  16.347   8.409  0.00  0.00     0.138 A 
HETATM    6  C   UNK N   1      33.319  17.398   8.655  0.00  0.00     0.146 A 
HETATM    7  N   UNK N   1      33.311  18.585   8.176  0.00  0.00    -0.382 N 
HETATM    8  N   UNK N   1      34.156  16.956   9.698  0.00  0.00    -0.282 N 
HETATM    9  H   UNK N   1      34.061  19.199   8.349  0.00  0.00     0.157 HD
ATOM     10  HN  UNK N   1      32.521  18.898   7.610  1.00  0.00     0.157 HD
HETATM   11  N   UNK N   1      33.811  15.809  10.042  0.00  0.00    -0.282 N 
ATOM     12  HN  UNK N   1      34.923  17.490  10.107  1.00  0.00     0.188 HD
HETATM   13  C   UNK N   1      32.694  15.386   9.274  0.00  0.00     0.146 A 
ATOM     14  HN  UNK N   1      34.264  15.255  10.770  1.00  0.00     0.188 HD
BRANCH  13  15
HETATM   15  N   UNK N   1      32.000  14.172   9.487  0.00  0.00    -0.382 N 
HETATM   16  H   UNK N   1      32.412  13.453  10.019  0.00  0.00     0.157 HD
HETATM   17  H   UNK N   1      31.103  14.046   9.101  0.00  0.00     0.157 HD
ENDBRANCH  13  15
ENDBRANCH   3   5
BRANCH   1  18
HETATM   18  C   UNK N   1      29.377  17.609   6.877  0.00  0.00     0.048 A 
HETATM   19  C   UNK N   1      29.498  17.202   5.540  0.00  0.00     0.031 A 
HETATM   20  C   UNK N   1      28.798  17.878   4.538  0.00  0.00     0.003 A 
HETATM   21  C   UNK N   1      28.019  18.992   4.864  0.00  0.00     0.016 A 
HETATM   22  C   UNK N   1      27.895  19.401   6.199  0.00  0.00     0.050 A 
HETATM   23  C   UNK N   1      28.574  18.700   7.198  0.00  0.00     0.047 A 
BRANCH  22  24
HETATM   24  C   UNK N   1      27.115  20.633   6.543  0.00  0.00     0.417 C 
HETATM   25  F   UNK N   1      26.712  20.556   7.864  0.00  0.00    -0.166 F 
HETATM   26  F   UNK N   1      25.989  20.750   5.744  0.00  0.00    -0.166 F 
HETATM   27  F   UNK N   1      27.905  21.753   6.370  0.00  0.00    -0.166 F 
ENDBRANCH  22  24
ENDBRANCH   1  18
TORSDOF 4
ENDMDL
MODEL 6
REMARK VINA RESULT:      -6.3      5.156      7.752
REMARK  4 active torsions:
REMARK  status: ('A' for Active; 'I' for Inactive)
REMARK    1  A    between atoms: C_2  and  C_5 
REMARK    2  A    between atoms: C_10  and  N_11 
REMARK    3  A    between atoms: N_13  and  C_15 
REMARK    4  A    between atoms: C_23  and  N_24 
ROOT
HETATM    1  N   UNK N   1      35.131  13.750  11.624  0.00  0.00    -0.300 N 
ATOM      2  HN  UNK N   1      35.892  13.597  10.963  1.00  0.00     0.187 HD
HETATM    3  N   UNK N   1      34.051  14.210  11.215  0.00  0.00    -0.293 N 
ATOM      4  HN  UNK N   1      33.189  14.031  11.731  1.00  0.00     0.187 HD
ENDROOT
BRANCH   3   5
HETATM    5  C   UNK N   1      34.020  14.983  10.028  0.00  0.00     0.138 A 
HETATM    6  C   UNK N   1      33.341  14.678   8.789  0.00  0.00     0.146 A 
HETATM    7  N   UNK N   1      32.616  13.655   8.532  0.00  0.00    -0.382 N 
HETATM    8  N   UNK N   1      33.436  15.823   7.973  0.00  0.00    -0.282 N 
HETATM    9  H   UNK N   1      32.263  13.507   7.625  0.00  0.00     0.157 HD
ATOM     10  HN  UNK N   1      32.402  12.987   9.273  1.00  0.00     0.157 HD
HETATM   11  N   UNK N   1      34.088  16.700   8.574  0.00  0.00    -0.282 N 
ATOM     12  HN  UNK N   1      33.036  15.919   7.040  1.00  0.00     0.188 HD
HETATM   13  C   UNK N   1      34.471  16.229   9.857  0.00  0.00     0.146 A 
ATOM     14  HN  UNK N   1      34.313  17.622   8.197  1.00  0.00     0.188 HD
BRANCH  13  15
HETATM   15  N   UNK N   1      35.134  17.019  10.825  0.00  0.00    -0.382 N 
HETATM   16  H   UNK N   1      34.655  17.320  11.631  0.00  0.00     0.157 HD
HETATM   17  H   UNK N   1      36.077  17.267  10.692  0.00  0.00     0.157 HD
ENDBRANCH  13  15
ENDBRANCH   3   5
BRANCH   1  18
HETATM   18  C   UNK N   1      35.324  13.439  12.984  0.00  0.00     0.048 A 
HETATM   19  C   UNK N   1      36.362  14.029  13.722  0.00  0.00     0.031 A 
HETATM   20  C   UNK N   1      36.707  13.516  14.973  0.00  0.00     0.003 A 
HETATM   21  C   UNK N   1      36.054  12.382  15.466  0.00  0.00     0.016 A 
HETATM   22  C   UNK N   1      35.017  11.791  14.733  0.00  0.00     0.050 A 
HETATM   23  C   UNK N   1      34.656  12.329  13.496  0.00  0.00     0.047 A 
BRANCH  22  24
HETATM   24  C   UNK N   1      34.360  10.538  15.226  0.00  0.00     0.417 C 
HETATM   25  F   UNK N   1      33.031  10.544  14.843  0.00  0.00    -0.166 F 
HETATM   26  F   UNK N   1      34.421  10.455  16.608  0.00  0.00    -0.166 F 
HETATM   27  F   UNK N   1      34.988   9.433  14.685  0.00  0.00    -0.166 F 
ENDBRANCH  22  24
ENDBRANCH   1  18
TORSDOF 4
ENDMDL
MODEL 7
REMARK VINA RESULT:      -6.3      5.283      7.867
REMARK  4 active torsions:
REMARK  status: ('A' for Active; 'I' for Inactive)
REMARK    1  A    between atoms: C_2  and  C_5 
REMARK    2  A    between atoms: C_10  and  N_11 
REMARK    3  A    between atoms: N_13  and  C_15 
REMARK    4  A    between atoms: C_23  and  N_24 
ROOT
HETATM    1  N   UNK N   1      34.481  12.699  12.149  0.00  0.00    -0.300 N 
ATOM      2  HN  UNK N   1      34.283  12.173  11.298  1.00  0.00     0.187 HD
HETATM    3  N   UNK N   1      34.481  13.942  12.112  0.00  0.00    -0.293 N 
ATOM      4  HN  UNK N   1      34.303  14.481  12.960  1.00  0.00     0.187 HD
ENDROOT
BRANCH   3   5
HETATM    5  C   UNK N   1      34.730  14.609  10.887  0.00  0.00     0.138 A 
HETATM    6  C   UNK N   1      36.003  14.820  10.235  0.00  0.00     0.146 A 
HETATM    7  N   UNK N   1      37.153  14.423  10.633  0.00  0.00    -0.382 N 
HETATM    8  N   UNK N   1      35.731  15.354   8.961  0.00  0.00    -0.282 N 
HETATM    9  H   UNK N   1      37.969  14.689  10.150  0.00  0.00     0.157 HD
ATOM     10  HN  UNK N   1      37.226  13.825  11.456  1.00  0.00     0.157 HD
HETATM   11  N   UNK N   1      34.499  15.490   8.828  0.00  0.00    -0.282 N 
ATOM     12  HN  UNK N   1      36.431  15.592   8.258  1.00  0.00     0.188 HD
HETATM   13  C   UNK N   1      33.831  15.038   9.996  0.00  0.00     0.146 A 
ATOM     14  HN  UNK N   1      34.038  15.871   8.001  1.00  0.00     0.188 HD
BRANCH  13  15
HETATM   15  N   UNK N   1      32.424  14.964  10.126  0.00  0.00    -0.382 N 
HETATM   16  H   UNK N   1      32.016  14.817  11.010  0.00  0.00     0.157 HD
HETATM   17  H   UNK N   1      31.853  15.060   9.331  0.00  0.00     0.157 HD
ENDBRANCH  13  15
ENDBRANCH   3   5
BRANCH   1  18
HETATM   18  C   UNK N   1      34.750  12.005  13.345  0.00  0.00     0.048 A 
HETATM   19  C   UNK N   1      34.429  10.645  13.480  0.00  0.00     0.031 A 
HETATM   20  C   UNK N   1      34.447  10.045  14.740  0.00  0.00     0.003 A 
HETATM   21  C   UNK N   1      34.733  10.814  15.873  0.00  0.00     0.016 A 
HETATM   22  C   UNK N   1      35.055  12.171  15.742  0.00  0.00     0.050 A 
HETATM   23  C   UNK N   1      35.065  12.756  14.473  0.00  0.00     0.047 A 
BRANCH  22  24
HETATM   24  C   UNK N   1      35.297  13.012  16.958  0.00  0.00     0.417 C 
HETATM   25  F   UNK N   1      35.628  12.187  18.017  0.00  0.00    -0.166 F 
HETATM   26  F   UNK N   1      34.163  13.733  17.298  0.00  0.00    -0.166 F 
HETATM   27  F   UNK N   1      36.333  13.894  16.722  0.00  0.00    -0.166 F 
ENDBRANCH  22  24
ENDBRANCH   1  18
TORSDOF 4
ENDMDL
MODEL 8
REMARK VINA RESULT:      -6.2      1.638      2.277
REMARK  4 active torsions:
REMARK  status: ('A' for Active; 'I' for Inactive)
REMARK    1  A    between atoms: C_2  and  C_5 
REMARK    2  A    between atoms: C_10  and  N_11 
REMARK    3  A    between atoms: N_13  and  C_15 
REMARK    4  A    between atoms: C_23  and  N_24 
ROOT
HETATM    1  N   UNK N   1      33.271  15.000   8.539  0.00  0.00    -0.300 N 
ATOM      2  HN  UNK N   1      33.276  14.141   9.088  1.00  0.00     0.187 HD
HETATM    3  N   UNK N   1      34.341  15.597   8.331  0.00  0.00    -0.293 N 
ATOM      4  HN  UNK N   1      34.439  16.207   7.519  1.00  0.00     0.187 HD
ENDROOT
BRANCH   3   5
HETATM    5  C   UNK N   1      35.426  15.429   9.226  0.00  0.00     0.138 A 
HETATM    6  C   UNK N   1      35.705  16.176  10.431  0.00  0.00     0.146 A 
HETATM    7  N   UNK N   1      35.009  17.126  10.934  0.00  0.00    -0.382 N 
HETATM    8  N   UNK N   1      36.771  15.527  11.083  0.00  0.00    -0.282 N 
HETATM    9  H   UNK N   1      35.333  17.621  11.721  0.00  0.00     0.157 HD
ATOM     10  HN  UNK N   1      34.110  17.371  10.517  1.00  0.00     0.157 HD
HETATM   11  N   UNK N   1      37.133  14.548  10.400  0.00  0.00    -0.282 N 
ATOM     12  HN  UNK N   1      37.181  15.811  11.973  1.00  0.00     0.188 HD
HETATM   13  C   UNK N   1      36.326  14.441   9.238  0.00  0.00     0.146 A 
ATOM     14  HN  UNK N   1      37.897  13.917  10.643  1.00  0.00     0.188 HD
BRANCH  13  15
HETATM   15  N   UNK N   1      36.415  13.380   8.307  0.00  0.00    -0.382 N 
HETATM   16  H   UNK N   1      36.610  12.465   8.616  0.00  0.00     0.157 HD
HETATM   17  H   UNK N   1      36.282  13.557   7.348  0.00  0.00     0.157 HD
ENDBRANCH  13  15
ENDBRANCH   3   5
BRANCH   1  18
HETATM   18  C   UNK N   1      32.051  15.488   8.030  0.00  0.00     0.048 A 
HETATM   19  C   UNK N   1      31.645  15.194   6.719  0.00  0.00     0.031 A 
HETATM   20  C   UNK N   1      30.585  15.897   6.143  0.00  0.00     0.003 A 
HETATM   21  C   UNK N   1      29.965  16.929   6.854  0.00  0.00     0.016 A 
HETATM   22  C   UNK N   1      30.369  17.225   8.163  0.00  0.00     0.050 A 
HETATM   23  C   UNK N   1      31.409  16.496   8.743  0.00  0.00     0.047 A 
BRANCH  22  24
HETATM   24  C   UNK N   1      29.753  18.374   8.902  0.00  0.00     0.417 C 
HETATM   25  F   UNK N   1      30.722  19.334   9.131  0.00  0.00    -0.166 F 
HETATM   26  F   UNK N   1      29.241  17.963  10.123  0.00  0.00    -0.166 F 
HETATM   27  F   UNK N   1      28.732  18.924   8.151  0.00  0.00    -0.166 F 
ENDBRANCH  22  24
ENDBRANCH   1  18
TORSDOF 4
ENDMDL
MODEL 9
REMARK VINA RESULT:      -6.2      4.778      7.423
REMARK  4 active torsions:
REMARK  status: ('A' for Active; 'I' for Inactive)
REMARK    1  A    between atoms: C_2  and  C_5 
REMARK    2  A    between atoms: C_10  and  N_11 
REMARK    3  A    between atoms: N_13  and  C_15 
REMARK    4  A    between atoms: C_23  and  N_24 
ROOT
HETATM    1  N   UNK N   1      35.165  15.792  10.983  0.00  0.00    -0.300 N 
ATOM      2  HN  UNK N   1      34.646  16.424  11.591  1.00  0.00     0.187 HD
HETATM    3  N   UNK N   1      35.048  15.900   9.749  0.00  0.00    -0.293 N 
ATOM      4  HN  UNK N   1      35.791  15.570   9.133  1.00  0.00     0.187 HD
ENDROOT
BRANCH   3   5
HETATM    5  C   UNK N   1      33.878  16.482   9.202  0.00  0.00     0.138 A 
HETATM    6  C   UNK N   1      32.521  15.993   9.288  0.00  0.00     0.146 A 
HETATM    7  N   UNK N   1      32.111  14.944   9.897  0.00  0.00    -0.382 N 
HETATM    8  N   UNK N   1      31.685  16.998   8.765  0.00  0.00    -0.282 N 
HETATM    9  H   UNK N   1      31.172  14.659   9.826  0.00  0.00     0.157 HD
ATOM     10  HN  UNK N   1      32.764  14.398  10.461  1.00  0.00     0.157 HD
HETATM   11  N   UNK N   1      32.386  17.956   8.383  0.00  0.00    -0.282 N 
ATOM     12  HN  UNK N   1      30.667  16.951   8.708  1.00  0.00     0.188 HD
HETATM   13  C   UNK N   1      33.756  17.687   8.636  0.00  0.00     0.146 A 
ATOM     14  HN  UNK N   1      32.027  18.808   7.951  1.00  0.00     0.188 HD
BRANCH  13  15
HETATM   15  N   UNK N   1      34.801  18.614   8.411  0.00  0.00    -0.382 N 
HETATM   16  H   UNK N   1      35.488  18.762   9.100  0.00  0.00     0.157 HD
HETATM   17  H   UNK N   1      34.839  19.112   7.563  0.00  0.00     0.157 HD
ENDBRANCH  13  15
ENDBRANCH   3   5
BRANCH   1  18
HETATM   18  C   UNK N   1      36.001  14.813  11.553  0.00  0.00     0.048 A 
HETATM   19  C   UNK N   1      36.572  13.801  10.766  0.00  0.00     0.031 A 
HETATM   20  C   UNK N   1      37.167  12.695  11.376  0.00  0.00     0.003 A 
HETATM   21  C   UNK N   1      37.145  12.571  12.768  0.00  0.00     0.016 A 
HETATM   22  C   UNK N   1      36.576  13.580  13.557  0.00  0.00     0.050 A 
HETATM   23  C   UNK N   1      36.011  14.698  12.941  0.00  0.00     0.047 A 
BRANCH  22  24
HETATM   24  C   UNK N   1      36.491  13.419  15.045  0.00  0.00     0.417 C 
HETATM   25  F   UNK N   1      35.168  13.524  15.434  0.00  0.00    -0.166 F 
HETATM   26  F   UNK N   1      37.222  14.401  15.694  0.00  0.00    -0.166 F 
HETATM   27  F   UNK N   1      36.980  12.181  15.413  0.00  0.00    -0.166 F 
ENDBRANCH  22  24
ENDBRANCH   1  18
TORSDOF 4
ENDMDL
