MODEL 1
REMARK VINA RESULT:      -7.6      0.000      0.000
REMARK  12 active torsions:
REMARK  status: ('A' for Active; 'I' for Inactive)
REMARK    1  A    between atoms: C_2  and  O_3 
REMARK    2  A    between atoms: C_2  and  C_5 
REMARK    3  A    between atoms: C_5  and  C_6 
REMARK    4  A    between atoms: C_5  and  N_10 
REMARK    5  A    between atoms: C_6  and  C_7 
REMARK       I    between atoms: N_10  and  C_11 
REMARK    6  A    between atoms: C_11  and  C_13 
REMARK    7  A    between atoms: C_13  and  N_15 
REMARK       I    between atoms: N_15  and  C_16 
REMARK    8  A    between atoms: C_16  and  C_18 
REMARK    9  A    between atoms: C_18  and  O_19 
REMARK   10  A    between atoms: C_18  and  C_20 
REMARK   11  A    between atoms: C_20  and  N_21 
REMARK   12  A    between atoms: C_20  and  C_22 
ROOT
HETATM    1  N   UNK N   1      34.690  13.734  11.286  0.00  0.00    -0.346 N 
HETATM    2  C   UNK N   1      35.719  13.271  12.039  0.00  0.00     0.249 C 
HETATM    3  O   UNK N   1      36.879  13.447  11.686  0.00  0.00    -0.271 OA
HETATM    4  H   UNK N   1      33.777  13.477  11.551  0.00  0.00     0.163 HD
ENDROOT
BRANCH   1   5
HETATM    5  C   UNK N   1      34.839  14.582  10.117  0.00  0.00     0.172 C 
HETATM    6  C   UNK N   1      36.098  14.243   9.329  0.00  0.00     0.042 C 
BRANCH   5   7
HETATM    7  C   UNK N   1      34.834  16.050  10.538  0.00  0.00     0.240 C 
HETATM    8  N   UNK N   1      34.277  17.035   9.780  0.00  0.00    -0.345 N 
HETATM    9  H   UNK N   1      34.411  17.962  10.084  0.00  0.00     0.163 HD
HETATM   10  O   UNK N   1      35.343  16.359  11.603  0.00  0.00    -0.271 OA
BRANCH   8  11
HETATM   11  C   UNK N   1      33.504  16.846   8.567  0.00  0.00     0.184 C 
BRANCH  11  12
HETATM   12  C   UNK N   1      34.377  17.137   7.369  0.00  0.00     0.281 C 
HETATM   13  O   UNK N   1      34.606  18.299   7.077  0.00  0.00    -0.263 OA
BRANCH  12  14
HETATM   14  O   UNK N   1      34.900  16.152   6.592  0.00  0.00    -0.325 OA
HETATM   15  C   UNK N   1      34.312  15.691   5.437  0.00  0.00     0.213 C 
ENDBRANCH  12  14
ENDBRANCH  11  12
BRANCH  11  16
HETATM   16  C   UNK N   1      32.277  17.762   8.575  0.00  0.00     0.039 C 
BRANCH  16  17
HETATM   17  C   UNK N   1      30.980  17.045   8.200  0.00  0.00    -0.020 C 
HETATM   18  C   UNK N   1      30.731  17.089   6.704  0.00  0.00     0.009 C 
HETATM   19  C   UNK N   1      29.823  17.715   8.910  0.00  0.00     0.009 C 
ENDBRANCH  16  17
ENDBRANCH  11  16
ENDBRANCH   8  11
ENDBRANCH   5   7
ENDBRANCH   1   5
BRANCH   2  20
HETATM   20  C   UNK N   1      35.445  12.601  13.355  0.00  0.00     0.236 C 
BRANCH  20  21
HETATM   21  O   UNK N   1      34.114  12.176  13.328  0.00  0.00    -0.384 OA
HETATM   22  H   UNK N   1      33.357  12.015  13.914  0.00  0.00     0.210 HD
ENDBRANCH  20  21
BRANCH  20  23
HETATM   23  C   UNK N   1      35.671  13.568  14.541  0.00  0.00     0.145 C 
BRANCH  23  24
HETATM   24  N   UNK N   1      36.937  14.266  14.366  0.00  0.00    -0.420 N 
HETATM   25  H   UNK N   1      37.947  14.146  14.299  0.00  0.00     0.150 HD
HETATM   26  H   UNK N   1      36.735  15.261  14.276  0.00  0.00     0.150 HD
ENDBRANCH  23  24
BRANCH  23  27
HETATM   27  C   UNK N   1      35.641  12.910  15.907  0.00  0.00    -0.033 A 
HETATM   28  C   UNK N   1      35.232  13.665  17.015  0.00  0.00     0.010 A 
HETATM   29  C   UNK N   1      35.124  13.072  18.277  0.00  0.00     0.007 A 
HETATM   30  C   UNK N   1      35.424  11.718  18.441  0.00  0.00    -0.062 A 
HETATM   31  C   UNK N   1      35.287  11.083  19.777  0.00  0.00     0.048 C 
HETATM   32  C   UNK N   1      35.845  10.958  17.348  0.00  0.00     0.007 A 
HETATM   33  C   UNK N   1      35.953  11.550  16.087  0.00  0.00     0.010 A 
ENDBRANCH  23  27
ENDBRANCH  20  23
ENDBRANCH   2  20
TORSDOF 12
ENDMDL
MODEL 2
REMARK VINA RESULT:      -7.4      1.924      9.384
REMARK  12 active torsions:
REMARK  status: ('A' for Active; 'I' for Inactive)
REMARK    1  A    between atoms: C_2  and  O_3 
REMARK    2  A    between atoms: C_2  and  C_5 
REMARK    3  A    between atoms: C_5  and  C_6 
REMARK    4  A    between atoms: C_5  and  N_10 
REMARK    5  A    between atoms: C_6  and  C_7 
REMARK       I    between atoms: N_10  and  C_11 
REMARK    6  A    between atoms: C_11  and  C_13 
REMARK    7  A    between atoms: C_13  and  N_15 
REMARK       I    between atoms: N_15  and  C_16 
REMARK    8  A    between atoms: C_16  and  C_18 
REMARK    9  A    between atoms: C_18  and  O_19 
REMARK   10  A    between atoms: C_18  and  C_20 
REMARK   11  A    between atoms: C_20  and  N_21 
REMARK   12  A    between atoms: C_20  and  C_22 
ROOT
HETATM    1  N   UNK N   1      35.222  15.630   8.901  0.00  0.00    -0.346 N 
HETATM    2  C   UNK N   1      34.983  16.924   9.231  0.00  0.00     0.249 C 
HETATM    3  O   UNK N   1      35.108  17.306  10.389  0.00  0.00    -0.271 OA
HETATM    4  H   UNK N   1      35.006  15.344   7.983  0.00  0.00     0.163 HD
ENDROOT
BRANCH   1   5
HETATM    5  C   UNK N   1      35.776  14.637   9.804  0.00  0.00     0.172 C 
HETATM    6  C   UNK N   1      36.796  13.744   9.109  0.00  0.00     0.042 C 
BRANCH   5   7
HETATM    7  C   UNK N   1      34.649  13.808  10.416  0.00  0.00     0.240 C 
HETATM    8  N   UNK N   1      34.769  13.165  11.611  0.00  0.00    -0.345 N 
HETATM    9  H   UNK N   1      34.027  12.573  11.875  0.00  0.00     0.163 HD
HETATM   10  O   UNK N   1      33.589  13.721   9.817  0.00  0.00    -0.271 OA
BRANCH   8  11
HETATM   11  C   UNK N   1      35.886  13.269  12.529  0.00  0.00     0.184 C 
BRANCH  11  12
HETATM   12  C   UNK N   1      36.714  12.008  12.453  0.00  0.00     0.281 C 
HETATM   13  O   UNK N   1      37.873  12.087  12.079  0.00  0.00    -0.263 OA
BRANCH  12  14
HETATM   14  O   UNK N   1      36.209  10.785  12.766  0.00  0.00    -0.325 OA
HETATM   15  C   UNK N   1      36.758   9.596  12.343  0.00  0.00     0.213 C 
ENDBRANCH  12  14
ENDBRANCH  11  12
BRANCH  11  16
HETATM   16  C   UNK N   1      35.377  13.494  13.956  0.00  0.00     0.039 C 
BRANCH  16  17
HETATM   17  C   UNK N   1      36.434  13.227  15.027  0.00  0.00    -0.020 C 
HETATM   18  C   UNK N   1      35.842  12.510  16.227  0.00  0.00     0.009 C 
HETATM   19  C   UNK N   1      37.017  14.548  15.485  0.00  0.00     0.009 C 
ENDBRANCH  16  17
ENDBRANCH  11  16
ENDBRANCH   8  11
ENDBRANCH   5   7
ENDBRANCH   1   5
BRANCH   2  20
HETATM   20  C   UNK N   1      34.634  17.919   8.162  0.00  0.00     0.236 C 
BRANCH  20  21
HETATM   21  O   UNK N   1      35.191  19.143   8.544  0.00  0.00    -0.384 OA
HETATM   22  H   UNK N   1      35.294  20.058   8.237  0.00  0.00     0.210 HD
ENDBRANCH  20  21
BRANCH  20  23
HETATM   23  C   UNK N   1      33.103  18.059   7.997  0.00  0.00     0.145 C 
BRANCH  23  24
HETATM   24  N   UNK N   1      32.429  17.361   9.083  0.00  0.00    -0.420 N 
HETATM   25  H   UNK N   1      31.533  17.222   9.549  0.00  0.00     0.150 HD
HETATM   26  H   UNK N   1      33.122  16.787   9.562  0.00  0.00     0.150 HD
ENDBRANCH  23  24
BRANCH  23  27
HETATM   27  C   UNK N   1      32.563  17.567   6.668  0.00  0.00    -0.033 A 
HETATM   28  C   UNK N   1      31.222  17.163   6.587  0.00  0.00     0.010 A 
HETATM   29  C   UNK N   1      30.672  16.771   5.363  0.00  0.00     0.007 A 
HETATM   30  C   UNK N   1      31.457  16.780   4.208  0.00  0.00    -0.062 A 
HETATM   31  C   UNK N   1      30.866  16.386   2.904  0.00  0.00     0.048 C 
HETATM   32  C   UNK N   1      32.797  17.168   4.277  0.00  0.00     0.007 A 
HETATM   33  C   UNK N   1      33.348  17.560   5.500  0.00  0.00     0.010 A 
ENDBRANCH  23  27
ENDBRANCH  20  23
ENDBRANCH   2  20
TORSDOF 12
ENDMDL
MODEL 3
REMARK VINA RESULT:      -7.3      1.897      3.229
REMARK  12 active torsions:
REMARK  status: ('A' for Active; 'I' for Inactive)
REMARK    1  A    between atoms: C_2  and  O_3 
REMARK    2  A    between atoms: C_2  and  C_5 
REMARK    3  A    between atoms: C_5  and  C_6 
REMARK    4  A    between atoms: C_5  and  N_10 
REMARK    5  A    between atoms: C_6  and  C_7 
REMARK       I    between atoms: N_10  and  C_11 
REMARK    6  A    between atoms: C_11  and  C_13 
REMARK    7  A    between atoms: C_13  and  N_15 
REMARK       I    between atoms: N_15  and  C_16 
REMARK    8  A    between atoms: C_16  and  C_18 
REMARK    9  A    between atoms: C_18  and  O_19 
REMARK   10  A    between atoms: C_18  and  C_20 
REMARK   11  A    between atoms: C_20  and  N_21 
REMARK   12  A    between atoms: C_20  and  C_22 
ROOT
HETATM    1  N   UNK N   1      34.878  15.798   9.520  0.00  0.00    -0.346 N 
HETATM    2  C   UNK N   1      34.798  15.379  10.808  0.00  0.00     0.249 C 
HETATM    3  O   UNK N   1      33.764  14.885  11.240  0.00  0.00    -0.271 OA
HETATM    4  H   UNK N   1      35.689  16.285   9.247  0.00  0.00     0.163 HD
ENDROOT
BRANCH   1   5
HETATM    5  C   UNK N   1      33.854  15.576   8.515  0.00  0.00     0.172 C 
HETATM    6  C   UNK N   1      34.188  14.392   7.617  0.00  0.00     0.042 C 
BRANCH   5   7
HETATM    7  C   UNK N   1      33.650  16.847   7.694  0.00  0.00     0.240 C 
HETATM    8  N   UNK N   1      32.476  17.144   7.070  0.00  0.00    -0.345 N 
HETATM    9  H   UNK N   1      32.471  17.933   6.481  0.00  0.00     0.163 HD
HETATM   10  O   UNK N   1      34.573  17.638   7.594  0.00  0.00    -0.271 OA
BRANCH   8  11
HETATM   11  C   UNK N   1      31.233  16.407   7.193  0.00  0.00     0.184 C 
BRANCH  11  12
HETATM   12  C   UNK N   1      31.031  15.560   5.957  0.00  0.00     0.281 C 
HETATM   13  O   UNK N   1      30.753  14.381   6.092  0.00  0.00    -0.263 OA
BRANCH  12  14
HETATM   14  O   UNK N   1      31.168  16.062   4.700  0.00  0.00    -0.325 OA
HETATM   15  C   UNK N   1      31.957  15.491   3.728  0.00  0.00     0.213 C 
ENDBRANCH  12  14
ENDBRANCH  11  12
BRANCH  11  16
HETATM   16  C   UNK N   1      30.061  17.375   7.379  0.00  0.00     0.039 C 
BRANCH  16  17
HETATM   17  C   UNK N   1      29.626  17.530   8.836  0.00  0.00    -0.020 C 
HETATM   18  C   UNK N   1      28.118  17.433   8.981  0.00  0.00     0.009 C 
HETATM   19  C   UNK N   1      30.082  18.880   9.347  0.00  0.00     0.009 C 
ENDBRANCH  16  17
ENDBRANCH  11  16
ENDBRANCH   8  11
ENDBRANCH   5   7
ENDBRANCH   1   5
BRANCH   2  20
HETATM   20  C   UNK N   1      36.006  15.452  11.698  0.00  0.00     0.236 C 
BRANCH  20  21
HETATM   21  O   UNK N   1      37.012  16.092  10.969  0.00  0.00    -0.384 OA
HETATM   22  H   UNK N   1      37.475  16.943  10.903  0.00  0.00     0.210 HD
ENDBRANCH  20  21
BRANCH  20  23
HETATM   23  C   UNK N   1      36.476  14.045  12.131  0.00  0.00     0.145 C 
BRANCH  23  24
HETATM   24  N   UNK N   1      35.927  13.045  11.224  0.00  0.00    -0.420 N 
HETATM   25  H   UNK N   1      35.126  12.808  10.639  0.00  0.00     0.150 HD
HETATM   26  H   UNK N   1      36.609  12.292  11.141  0.00  0.00     0.150 HD
ENDBRANCH  23  24
BRANCH  23  27
HETATM   27  C   UNK N   1      36.127  13.674  13.560  0.00  0.00    -0.033 A 
HETATM   28  C   UNK N   1      36.811  14.303  14.611  0.00  0.00     0.010 A 
HETATM   29  C   UNK N   1      36.467  14.039  15.940  0.00  0.00     0.007 A 
HETATM   30  C   UNK N   1      35.435  13.144  16.230  0.00  0.00    -0.062 A 
HETATM   31  C   UNK N   1      35.054  12.881  17.642  0.00  0.00     0.048 C 
HETATM   32  C   UNK N   1      34.755  12.501  15.194  0.00  0.00     0.007 A 
HETATM   33  C   UNK N   1      35.098  12.765  13.865  0.00  0.00     0.010 A 
ENDBRANCH  23  27
ENDBRANCH  20  23
ENDBRANCH   2  20
TORSDOF 12
ENDMDL
MODEL 4
REMARK VINA RESULT:      -7.2      3.603      8.583
REMARK  12 active torsions:
REMARK  status: ('A' for Active; 'I' for Inactive)
REMARK    1  A    between atoms: C_2  and  O_3 
REMARK    2  A    between atoms: C_2  and  C_5 
REMARK    3  A    between atoms: C_5  and  C_6 
REMARK    4  A    between atoms: C_5  and  N_10 
REMARK    5  A    between atoms: C_6  and  C_7 
REMARK       I    between atoms: N_10  and  C_11 
REMARK    6  A    between atoms: C_11  and  C_13 
REMARK    7  A    between atoms: C_13  and  N_15 
REMARK       I    between atoms: N_15  and  C_16 
REMARK    8  A    between atoms: C_16  and  C_18 
REMARK    9  A    between atoms: C_18  and  O_19 
REMARK   10  A    between atoms: C_18  and  C_20 
REMARK   11  A    between atoms: C_20  and  N_21 
REMARK   12  A    between atoms: C_20  and  C_22 
ROOT
HETATM    1  N   UNK N   1      35.658  15.530   9.756  0.00  0.00    -0.346 N 
HETATM    2  C   UNK N   1      35.178  16.795   9.864  0.00  0.00     0.249 C 
HETATM    3  O   UNK N   1      35.136  17.356  10.953  0.00  0.00    -0.271 OA
HETATM    4  H   UNK N   1      35.574  15.082   8.883  0.00  0.00     0.163 HD
ENDROOT
BRANCH   1   5
HETATM    5  C   UNK N   1      36.288  14.792  10.836  0.00  0.00     0.172 C 
HETATM    6  C   UNK N   1      37.418  13.904  10.331  0.00  0.00     0.042 C 
BRANCH   5   7
HETATM    7  C   UNK N   1      35.239  13.974  11.585  0.00  0.00     0.240 C 
HETATM    8  N   UNK N   1      34.508  12.989  10.992  0.00  0.00    -0.345 N 
HETATM    9  H   UNK N   1      33.786  12.586  11.527  0.00  0.00     0.163 HD
HETATM   10  O   UNK N   1      35.048  14.203  12.768  0.00  0.00    -0.271 OA
BRANCH   8  11
HETATM   11  C   UNK N   1      34.694  12.479   9.647  0.00  0.00     0.184 C 
BRANCH  11  12
HETATM   12  C   UNK N   1      33.549  12.939   8.776  0.00  0.00     0.281 C 
HETATM   13  O   UNK N   1      32.509  12.302   8.786  0.00  0.00    -0.263 OA
BRANCH  12  14
HETATM   14  O   UNK N   1      33.643  14.027   7.965  0.00  0.00    -0.325 OA
HETATM   15  C   UNK N   1      34.296  14.028   6.754  0.00  0.00     0.213 C 
ENDBRANCH  12  14
ENDBRANCH  11  12
BRANCH  11  16
HETATM   16  C   UNK N   1      34.773  10.949   9.670  0.00  0.00     0.039 C 
BRANCH  16  17
HETATM   17  C   UNK N   1      34.438  10.343  11.032  0.00  0.00    -0.020 C 
HETATM   18  C   UNK N   1      35.579   9.493  11.560  0.00  0.00     0.009 C 
HETATM   19  C   UNK N   1      33.204   9.476  10.896  0.00  0.00     0.009 C 
ENDBRANCH  16  17
ENDBRANCH  11  16
ENDBRANCH   8  11
ENDBRANCH   5   7
ENDBRANCH   1   5
BRANCH   2  20
HETATM   20  C   UNK N   1      34.763  17.548   8.632  0.00  0.00     0.236 C 
BRANCH  20  21
HETATM   21  O   UNK N   1      35.263  18.847   8.759  0.00  0.00    -0.384 OA
HETATM   22  H   UNK N   1      35.901  19.366   9.273  0.00  0.00     0.210 HD
ENDBRANCH  20  21
BRANCH  20  23
HETATM   23  C   UNK N   1      33.224  17.582   8.482  0.00  0.00     0.145 C 
BRANCH  23  24
HETATM   24  N   UNK N   1      32.629  16.547   9.316  0.00  0.00    -0.420 N 
HETATM   25  H   UNK N   1      32.788  15.636   9.747  0.00  0.00     0.150 HD
HETATM   26  H   UNK N   1      31.689  16.851   9.567  0.00  0.00     0.150 HD
ENDBRANCH  23  24
BRANCH  23  27
HETATM   27  C   UNK N   1      32.726  17.431   7.058  0.00  0.00    -0.033 A 
HETATM   28  C   UNK N   1      33.639  17.562   6.001  0.00  0.00     0.010 A 
HETATM   29  C   UNK N   1      33.229  17.359   4.679  0.00  0.00     0.007 A 
HETATM   30  C   UNK N   1      31.901  17.022   4.403  0.00  0.00    -0.062 A 
HETATM   31  C   UNK N   1      31.471  16.783   3.001  0.00  0.00     0.048 C 
HETATM   32  C   UNK N   1      30.980  16.901   5.445  0.00  0.00     0.007 A 
HETATM   33  C   UNK N   1      31.389  17.104   6.766  0.00  0.00     0.010 A 
ENDBRANCH  23  27
ENDBRANCH  20  23
ENDBRANCH   2  20
TORSDOF 12
ENDMDL
MODEL 5
REMARK VINA RESULT:      -7.1      3.540     10.393
REMARK  12 active torsions:
REMARK  status: ('A' for Active; 'I' for Inactive)
REMARK    1  A    between atoms: C_2  and  O_3 
REMARK    2  A    between atoms: C_2  and  C_5 
REMARK    3  A    between atoms: C_5  and  C_6 
REMARK    4  A    between atoms: C_5  and  N_10 
REMARK    5  A    between atoms: C_6  and  C_7 
REMARK       I    between atoms: N_10  and  C_11 
REMARK    6  A    between atoms: C_11  and  C_13 
REMARK    7  A    between atoms: C_13  and  N_15 
REMARK       I    between atoms: N_15  and  C_16 
REMARK    8  A    between atoms: C_16  and  C_18 
REMARK    9  A    between atoms: C_18  and  O_19 
REMARK   10  A    between atoms: C_18  and  C_20 
REMARK   11  A    between atoms: C_20  and  N_21 
REMARK   12  A    between atoms: C_20  and  C_22 
ROOT
HETATM    1  N   UNK N   1      32.017  17.230   6.284  0.00  0.00    -0.346 N 
HETATM    2  C   UNK N   1      31.062  16.440   5.730  0.00  0.00     0.249 C 
HETATM    3  O   UNK N   1      30.623  15.472   6.339  0.00  0.00    -0.271 OA
HETATM    4  H   UNK N   1      32.417  17.929   5.718  0.00  0.00     0.163 HD
ENDROOT
BRANCH   1   5
HETATM    5  C   UNK N   1      32.490  17.116   7.652  0.00  0.00     0.172 C 
HETATM    6  C   UNK N   1      31.715  18.026   8.596  0.00  0.00     0.042 C 
BRANCH   5   7
HETATM    7  C   UNK N   1      33.987  17.413   7.709  0.00  0.00     0.240 C 
HETATM    8  N   UNK N   1      34.816  16.858   8.636  0.00  0.00    -0.345 N 
HETATM    9  H   UNK N   1      35.744  17.186   8.658  0.00  0.00     0.163 HD
HETATM   10  O   UNK N   1      34.468  18.174   6.885  0.00  0.00    -0.271 OA
BRANCH   8  11
HETATM   11  C   UNK N   1      34.459  15.829   9.594  0.00  0.00     0.184 C 
BRANCH  11  12
HETATM   12  C   UNK N   1      35.361  15.937  10.801  0.00  0.00     0.281 C 
HETATM   13  O   UNK N   1      36.331  16.674  10.747  0.00  0.00    -0.263 OA
BRANCH  12  14
HETATM   14  O   UNK N   1      35.141  15.227  11.940  0.00  0.00    -0.325 OA
HETATM   15  C   UNK N   1      36.107  14.484  12.580  0.00  0.00     0.213 C 
ENDBRANCH  12  14
ENDBRANCH  11  12
BRANCH  11  16
HETATM   16  C   UNK N   1      34.584  14.444   8.951  0.00  0.00     0.039 C 
BRANCH  16  17
HETATM   17  C   UNK N   1      35.987  14.139   8.430  0.00  0.00    -0.020 C 
HETATM   18  C   UNK N   1      35.993  13.949   6.924  0.00  0.00     0.009 C 
HETATM   19  C   UNK N   1      36.493  12.872   9.086  0.00  0.00     0.009 C 
ENDBRANCH  16  17
ENDBRANCH  11  16
ENDBRANCH   8  11
ENDBRANCH   5   7
ENDBRANCH   1   5
BRANCH   2  20
HETATM   20  C   UNK N   1      30.482  16.792   4.390  0.00  0.00     0.236 C 
BRANCH  20  21
HETATM   21  O   UNK N   1      31.010  18.033   4.028  0.00  0.00    -0.384 OA
HETATM   22  H   UNK N   1      30.748  18.958   3.892  0.00  0.00     0.210 HD
ENDBRANCH  20  21
BRANCH  20  23
HETATM   23  C   UNK N   1      28.938  16.865   4.443  0.00  0.00     0.145 C 
BRANCH  23  24
HETATM   24  N   UNK N   1      28.394  16.667   3.106  0.00  0.00    -0.420 N 
HETATM   25  H   UNK N   1      28.298  16.000   2.341  0.00  0.00     0.150 HD
HETATM   26  H   UNK N   1      27.927  17.529   2.829  0.00  0.00     0.150 HD
ENDBRANCH  23  24
BRANCH  23  27
HETATM   27  C   UNK N   1      28.386  18.150   5.028  0.00  0.00    -0.033 A 
HETATM   28  C   UNK N   1      27.774  19.078   4.171  0.00  0.00     0.010 A 
HETATM   29  C   UNK N   1      27.191  20.240   4.685  0.00  0.00     0.007 A 
HETATM   30  C   UNK N   1      27.214  20.485   6.060  0.00  0.00    -0.062 A 
HETATM   31  C   UNK N   1      26.574  21.709   6.607  0.00  0.00     0.048 C 
HETATM   32  C   UNK N   1      27.832  19.577   6.921  0.00  0.00     0.007 A 
HETATM   33  C   UNK N   1      28.415  18.415   6.409  0.00  0.00     0.010 A 
ENDBRANCH  23  27
ENDBRANCH  20  23
ENDBRANCH   2  20
TORSDOF 12
ENDMDL
MODEL 6
REMARK VINA RESULT:      -7.1     17.687     21.766
REMARK  12 active torsions:
REMARK  status: ('A' for Active; 'I' for Inactive)
REMARK    1  A    between atoms: C_2  and  O_3 
REMARK    2  A    between atoms: C_2  and  C_5 
REMARK    3  A    between atoms: C_5  and  C_6 
REMARK    4  A    between atoms: C_5  and  N_10 
REMARK    5  A    between atoms: C_6  and  C_7 
REMARK       I    between atoms: N_10  and  C_11 
REMARK    6  A    between atoms: C_11  and  C_13 
REMARK    7  A    between atoms: C_13  and  N_15 
REMARK       I    between atoms: N_15  and  C_16 
REMARK    8  A    between atoms: C_16  and  C_18 
REMARK    9  A    between atoms: C_18  and  O_19 
REMARK   10  A    between atoms: C_18  and  C_20 
REMARK   11  A    between atoms: C_20  and  N_21 
REMARK   12  A    between atoms: C_20  and  C_22 
ROOT
HETATM    1  N   UNK N   1      29.350  27.640  -4.189  0.00  0.00    -0.346 N 
HETATM    2  C   UNK N   1      28.319  28.448  -3.835  0.00  0.00     0.249 C 
HETATM    3  O   UNK N   1      28.203  28.842  -2.681  0.00  0.00    -0.271 OA
HETATM    4  H   UNK N   1      29.344  27.262  -5.098  0.00  0.00     0.163 HD
ENDROOT
BRANCH   1   5
HETATM    5  C   UNK N   1      30.463  27.295  -3.323  0.00  0.00     0.172 C 
HETATM    6  C   UNK N   1      31.197  28.534  -2.824  0.00  0.00     0.042 C 
BRANCH   5   7
HETATM    7  C   UNK N   1      31.415  26.350  -4.053  0.00  0.00     0.240 C 
HETATM    8  N   UNK N   1      31.318  24.994  -3.970  0.00  0.00    -0.345 N 
HETATM    9  H   UNK N   1      32.036  24.469  -4.392  0.00  0.00     0.163 HD
HETATM   10  O   UNK N   1      32.299  26.825  -4.748  0.00  0.00    -0.271 OA
BRANCH   8  11
HETATM   11  C   UNK N   1      30.256  24.252  -3.319  0.00  0.00     0.184 C 
BRANCH  11  12
HETATM   12  C   UNK N   1      30.852  23.088  -2.562  0.00  0.00     0.281 C 
HETATM   13  O   UNK N   1      30.438  22.843  -1.441  0.00  0.00    -0.263 OA
BRANCH  12  14
HETATM   14  O   UNK N   1      31.847  22.318  -3.076  0.00  0.00    -0.325 OA
HETATM   15  C   UNK N   1      31.691  20.997  -3.428  0.00  0.00     0.213 C 
ENDBRANCH  12  14
ENDBRANCH  11  12
BRANCH  11  16
HETATM   16  C   UNK N   1      29.245  23.757  -4.358  0.00  0.00     0.039 C 
BRANCH  16  17
HETATM   17  C   UNK N   1      29.870  23.453  -5.719  0.00  0.00    -0.020 C 
HETATM   18  C   UNK N   1      29.428  24.453  -6.771  0.00  0.00     0.009 C 
HETATM   19  C   UNK N   1      29.451  22.065  -6.155  0.00  0.00     0.009 C 
ENDBRANCH  16  17
ENDBRANCH  11  16
ENDBRANCH   8  11
ENDBRANCH   5   7
ENDBRANCH   1   5
BRANCH   2  20
HETATM   20  C   UNK N   1      27.349  28.927  -4.877  0.00  0.00     0.236 C 
BRANCH  20  21
HETATM   21  O   UNK N   1      27.237  30.311  -4.726  0.00  0.00    -0.384 OA
HETATM   22  H   UNK N   1      27.375  31.016  -4.073  0.00  0.00     0.210 HD
ENDBRANCH  20  21
BRANCH  20  23
HETATM   23  C   UNK N   1      25.965  28.259  -4.711  0.00  0.00     0.145 C 
BRANCH  23  24
HETATM   24  N   UNK N   1      25.563  28.309  -3.312  0.00  0.00    -0.420 N 
HETATM   25  H   UNK N   1      25.627  27.830  -2.414  0.00  0.00     0.150 HD
HETATM   26  H   UNK N   1      24.999  29.148  -3.179  0.00  0.00     0.150 HD
ENDBRANCH  23  24
BRANCH  23  27
HETATM   27  C   UNK N   1      25.890  26.828  -5.207  0.00  0.00    -0.033 A 
HETATM   28  C   UNK N   1      25.835  26.590  -6.588  0.00  0.00     0.010 A 
HETATM   29  C   UNK N   1      25.837  25.282  -7.084  0.00  0.00     0.007 A 
HETATM   30  C   UNK N   1      25.896  24.200  -6.201  0.00  0.00    -0.062 A 
HETATM   31  C   UNK N   1      25.922  22.812  -6.729  0.00  0.00     0.048 C 
HETATM   32  C   UNK N   1      25.938  24.424  -4.824  0.00  0.00     0.007 A 
HETATM   33  C   UNK N   1      25.935  25.730  -4.328  0.00  0.00     0.010 A 
ENDBRANCH  23  27
ENDBRANCH  20  23
ENDBRANCH   2  20
TORSDOF 12
ENDMDL
MODEL 7
REMARK VINA RESULT:      -7.0      2.085      8.554
REMARK  12 active torsions:
REMARK  status: ('A' for Active; 'I' for Inactive)
REMARK    1  A    between atoms: C_2  and  O_3 
REMARK    2  A    between atoms: C_2  and  C_5 
REMARK    3  A    between atoms: C_5  and  C_6 
REMARK    4  A    between atoms: C_5  and  N_10 
REMARK    5  A    between atoms: C_6  and  C_7 
REMARK       I    between atoms: N_10  and  C_11 
REMARK    6  A    between atoms: C_11  and  C_13 
REMARK    7  A    between atoms: C_13  and  N_15 
REMARK       I    between atoms: N_15  and  C_16 
REMARK    8  A    between atoms: C_16  and  C_18 
REMARK    9  A    between atoms: C_18  and  O_19 
REMARK   10  A    between atoms: C_18  and  C_20 
REMARK   11  A    between atoms: C_20  and  N_21 
REMARK   12  A    between atoms: C_20  and  C_22 
ROOT
HETATM    1  N   UNK N   1      34.997  13.066  11.652  0.00  0.00    -0.346 N 
HETATM    2  C   UNK N   1      35.161  14.015  10.696  0.00  0.00     0.249 C 
HETATM    3  O   UNK N   1      35.897  13.814   9.737  0.00  0.00    -0.271 OA
HETATM    4  H   UNK N   1      34.483  13.311  12.456  0.00  0.00     0.163 HD
ENDROOT
BRANCH   1   5
HETATM    5  C   UNK N   1      35.524  11.716  11.573  0.00  0.00     0.172 C 
HETATM    6  C   UNK N   1      34.650  10.722  12.327  0.00  0.00     0.042 C 
BRANCH   5   7
HETATM    7  C   UNK N   1      36.960  11.689  12.093  0.00  0.00     0.240 C 
HETATM    8  N   UNK N   1      37.321  12.218  13.295  0.00  0.00    -0.345 N 
HETATM    9  H   UNK N   1      38.284  12.245  13.499  0.00  0.00     0.163 HD
HETATM   10  O   UNK N   1      37.824  11.166  11.408  0.00  0.00    -0.271 OA
BRANCH   8  11
HETATM   11  C   UNK N   1      36.420  12.745  14.301  0.00  0.00     0.184 C 
BRANCH  11  12
HETATM   12  C   UNK N   1      36.744  14.200  14.549  0.00  0.00     0.281 C 
HETATM   13  O   UNK N   1      36.376  15.031  13.735  0.00  0.00    -0.263 OA
BRANCH  12  14
HETATM   14  O   UNK N   1      37.448  14.615  15.635  0.00  0.00    -0.325 OA
HETATM   15  C   UNK N   1      37.450  15.910  16.100  0.00  0.00     0.213 C 
ENDBRANCH  12  14
ENDBRANCH  11  12
BRANCH  11  16
HETATM   16  C   UNK N   1      36.546  11.938  15.597  0.00  0.00     0.039 C 
BRANCH  16  17
HETATM   17  C   UNK N   1      35.219  11.756  16.332  0.00  0.00    -0.020 C 
HETATM   18  C   UNK N   1      34.035  11.979  15.409  0.00  0.00     0.009 C 
HETATM   19  C   UNK N   1      35.145  12.750  17.472  0.00  0.00     0.009 C 
ENDBRANCH  16  17
ENDBRANCH  11  16
ENDBRANCH   8  11
ENDBRANCH   5   7
ENDBRANCH   1   5
BRANCH   2  20
HETATM   20  C   UNK N   1      34.380  15.296  10.768  0.00  0.00     0.236 C 
BRANCH  20  21
HETATM   21  O   UNK N   1      33.047  14.950  11.001  0.00  0.00    -0.384 OA
HETATM   22  H   UNK N   1      32.146  15.303  10.918  0.00  0.00     0.210 HD
ENDBRANCH  20  21
BRANCH  20  23
HETATM   23  C   UNK N   1      34.498  16.106   9.456  0.00  0.00     0.145 C 
BRANCH  23  24
HETATM   24  N   UNK N   1      34.957  17.456   9.755  0.00  0.00    -0.420 N 
HETATM   25  H   UNK N   1      35.520  18.017  10.393  0.00  0.00     0.150 HD
HETATM   26  H   UNK N   1      34.561  18.082   9.055  0.00  0.00     0.150 HD
ENDBRANCH  23  24
BRANCH  23  27
HETATM   27  C   UNK N   1      33.223  16.175   8.639  0.00  0.00    -0.033 A 
HETATM   28  C   UNK N   1      32.474  17.362   8.648  0.00  0.00     0.010 A 
HETATM   29  C   UNK N   1      31.332  17.486   7.851  0.00  0.00     0.007 A 
HETATM   30  C   UNK N   1      30.928  16.425   7.037  0.00  0.00    -0.062 A 
HETATM   31  C   UNK N   1      29.728  16.566   6.174  0.00  0.00     0.048 C 
HETATM   32  C   UNK N   1      31.657  15.234   7.029  0.00  0.00     0.007 A 
HETATM   33  C   UNK N   1      32.799  15.109   7.825  0.00  0.00     0.010 A 
ENDBRANCH  23  27
ENDBRANCH  20  23
ENDBRANCH   2  20
TORSDOF 12
ENDMDL
MODEL 8
REMARK VINA RESULT:      -7.0     13.384     17.247
REMARK  12 active torsions:
REMARK  status: ('A' for Active; 'I' for Inactive)
REMARK    1  A    between atoms: C_2  and  O_3 
REMARK    2  A    between atoms: C_2  and  C_5 
REMARK    3  A    between atoms: C_5  and  C_6 
REMARK    4  A    between atoms: C_5  and  N_10 
REMARK    5  A    between atoms: C_6  and  C_7 
REMARK       I    between atoms: N_10  and  C_11 
REMARK    6  A    between atoms: C_11  and  C_13 
REMARK    7  A    between atoms: C_13  and  N_15 
REMARK       I    between atoms: N_15  and  C_16 
REMARK    8  A    between atoms: C_16  and  C_18 
REMARK    9  A    between atoms: C_18  and  O_19 
REMARK   10  A    between atoms: C_18  and  C_20 
REMARK   11  A    between atoms: C_20  and  N_21 
REMARK   12  A    between atoms: C_20  and  C_22 
ROOT
HETATM    1  N   UNK N   1      21.439  17.869   2.714  0.00  0.00    -0.346 N 
HETATM    2  C   UNK N   1      20.185  17.589   2.276  0.00  0.00     0.249 C 
HETATM    3  O   UNK N   1      19.210  18.115   2.798  0.00  0.00    -0.271 OA
HETATM    4  H   UNK N   1      22.182  17.344   2.339  0.00  0.00     0.163 HD
ENDROOT
BRANCH   1   5
HETATM    5  C   UNK N   1      21.761  18.890   3.695  0.00  0.00     0.172 C 
HETATM    6  C   UNK N   1      22.135  20.211   3.035  0.00  0.00     0.042 C 
BRANCH   5   7
HETATM    7  C   UNK N   1      22.880  18.396   4.608  0.00  0.00     0.240 C 
HETATM    8  N   UNK N   1      22.653  17.605   5.694  0.00  0.00    -0.345 N 
HETATM    9  H   UNK N   1      23.423  17.421   6.280  0.00  0.00     0.163 HD
HETATM   10  O   UNK N   1      24.030  18.715   4.356  0.00  0.00    -0.271 OA
BRANCH   8  11
HETATM   11  C   UNK N   1      21.385  17.008   6.065  0.00  0.00     0.184 C 
BRANCH  11  12
HETATM   12  C   UNK N   1      20.868  17.674   7.319  0.00  0.00     0.281 C 
HETATM   13  O   UNK N   1      20.797  18.891   7.351  0.00  0.00    -0.263 OA
BRANCH  12  14
HETATM   14  O   UNK N   1      20.500  16.967   8.421  0.00  0.00    -0.325 OA
HETATM   15  C   UNK N   1      19.197  16.824   8.840  0.00  0.00     0.213 C 
ENDBRANCH  12  14
ENDBRANCH  11  12
BRANCH  11  16
HETATM   16  C   UNK N   1      21.555  15.502   6.287  0.00  0.00     0.039 C 
BRANCH  16  17
HETATM   17  C   UNK N   1      22.872  14.952   5.741  0.00  0.00    -0.020 C 
HETATM   18  C   UNK N   1      22.641  14.002   4.580  0.00  0.00     0.009 C 
HETATM   19  C   UNK N   1      23.592  14.208   6.846  0.00  0.00     0.009 C 
ENDBRANCH  16  17
ENDBRANCH  11  16
ENDBRANCH   8  11
ENDBRANCH   5   7
ENDBRANCH   1   5
BRANCH   2  20
HETATM   20  C   UNK N   1      19.988  16.683   1.094  0.00  0.00     0.236 C 
BRANCH  20  21
HETATM   21  O   UNK N   1      18.885  17.168   0.387  0.00  0.00    -0.384 OA
HETATM   22  H   UNK N   1      17.915  17.203   0.426  0.00  0.00     0.210 HD
ENDBRANCH  20  21
BRANCH  20  23
HETATM   23  C   UNK N   1      19.738  15.223   1.535  0.00  0.00     0.145 C 
BRANCH  23  24
HETATM   24  N   UNK N   1      19.567  15.172   2.981  0.00  0.00    -0.420 N 
HETATM   25  H   UNK N   1      19.790  14.643   3.824  0.00  0.00     0.150 HD
HETATM   26  H   UNK N   1      19.007  15.978   3.258  0.00  0.00     0.150 HD
ENDBRANCH  23  24
BRANCH  23  27
HETATM   27  C   UNK N   1      20.818  14.243   1.121  0.00  0.00    -0.033 A 
HETATM   28  C   UNK N   1      22.134  14.706   0.973  0.00  0.00     0.010 A 
HETATM   29  C   UNK N   1      23.168  13.818   0.661  0.00  0.00     0.007 A 
HETATM   30  C   UNK N   1      22.896  12.458   0.495  0.00  0.00    -0.062 A 
HETATM   31  C   UNK N   1      23.998  11.511   0.187  0.00  0.00     0.048 C 
HETATM   32  C   UNK N   1      21.588  11.987   0.626  0.00  0.00     0.007 A 
HETATM   33  C   UNK N   1      20.554  12.874   0.938  0.00  0.00     0.010 A 
ENDBRANCH  23  27
ENDBRANCH  20  23
ENDBRANCH   2  20
TORSDOF 12
ENDMDL
MODEL 9
REMARK VINA RESULT:      -7.0     17.285     21.438
REMARK  12 active torsions:
REMARK  status: ('A' for Active; 'I' for Inactive)
REMARK    1  A    between atoms: C_2  and  O_3 
REMARK    2  A    between atoms: C_2  and  C_5 
REMARK    3  A    between atoms: C_5  and  C_6 
REMARK    4  A    between atoms: C_5  and  N_10 
REMARK    5  A    between atoms: C_6  and  C_7 
REMARK       I    between atoms: N_10  and  C_11 
REMARK    6  A    between atoms: C_11  and  C_13 
REMARK    7  A    between atoms: C_13  and  N_15 
REMARK       I    between atoms: N_15  and  C_16 
REMARK    8  A    between atoms: C_16  and  C_18 
REMARK    9  A    between atoms: C_18  and  O_19 
REMARK   10  A    between atoms: C_18  and  C_20 
REMARK   11  A    between atoms: C_20  and  N_21 
REMARK   12  A    between atoms: C_20  and  C_22 
ROOT
HETATM    1  N   UNK N   1      27.945  24.223  -3.856  0.00  0.00    -0.346 N 
HETATM    2  C   UNK N   1      27.331  24.012  -5.048  0.00  0.00     0.249 C 
HETATM    3  O   UNK N   1      27.750  23.162  -5.824  0.00  0.00    -0.271 OA
HETATM    4  H   UNK N   1      27.641  24.986  -3.313  0.00  0.00     0.163 HD
ENDROOT
BRANCH   1   5
HETATM    5  C   UNK N   1      29.018  23.402  -3.325  0.00  0.00     0.172 C 
HETATM    6  C   UNK N   1      28.801  23.067  -1.855  0.00  0.00     0.042 C 
BRANCH   5   7
HETATM    7  C   UNK N   1      30.359  24.101  -3.536  0.00  0.00     0.240 C 
HETATM    8  N   UNK N   1      31.510  23.426  -3.812  0.00  0.00    -0.345 N 
HETATM    9  H   UNK N   1      32.342  23.952  -3.831  0.00  0.00     0.163 HD
HETATM   10  O   UNK N   1      30.407  25.318  -3.463  0.00  0.00    -0.271 OA
BRANCH   8  11
HETATM   11  C   UNK N   1      31.623  22.006  -4.080  0.00  0.00     0.184 C 
BRANCH  11  12
HETATM   12  C   UNK N   1      32.789  21.442  -3.301  0.00  0.00     0.281 C 
HETATM   13  O   UNK N   1      32.702  21.366  -2.087  0.00  0.00    -0.263 OA
BRANCH  12  14
HETATM   14  O   UNK N   1      33.939  21.036  -3.902  0.00  0.00    -0.325 OA
HETATM   15  C   UNK N   1      34.322  19.719  -4.016  0.00  0.00     0.213 C 
ENDBRANCH  12  14
ENDBRANCH  11  12
BRANCH  11  16
HETATM   16  C   UNK N   1      31.813  21.766  -5.581  0.00  0.00     0.039 C 
BRANCH  16  17
HETATM   17  C   UNK N   1      31.313  20.399  -6.046  0.00  0.00    -0.020 C 
HETATM   18  C   UNK N   1      32.189  19.829  -7.147  0.00  0.00     0.009 C 
HETATM   19  C   UNK N   1      29.899  20.542  -6.571  0.00  0.00     0.009 C 
ENDBRANCH  16  17
ENDBRANCH  11  16
ENDBRANCH   8  11
ENDBRANCH   5   7
ENDBRANCH   1   5
BRANCH   2  20
HETATM   20  C   UNK N   1      26.082  24.772  -5.393  0.00  0.00     0.236 C 
BRANCH  20  21
HETATM   21  O   UNK N   1      25.200  23.864  -5.983  0.00  0.00    -0.384 OA
HETATM   22  H   UNK N   1      24.308  23.496  -5.878  0.00  0.00     0.210 HD
ENDBRANCH  20  21
BRANCH  20  23
HETATM   23  C   UNK N   1      26.379  25.936  -6.367  0.00  0.00     0.145 C 
BRANCH  23  24
HETATM   24  N   UNK N   1      27.603  25.655  -7.105  0.00  0.00    -0.420 N 
HETATM   25  H   UNK N   1      28.593  25.429  -7.012  0.00  0.00     0.150 HD
HETATM   26  H   UNK N   1      27.386  25.702  -8.099  0.00  0.00     0.150 HD
ENDBRANCH  23  24
BRANCH  23  27
HETATM   27  C   UNK N   1      26.487  27.298  -5.709  0.00  0.00    -0.033 A 
HETATM   28  C   UNK N   1      25.753  27.548  -4.541  0.00  0.00     0.010 A 
HETATM   29  C   UNK N   1      25.883  28.768  -3.868  0.00  0.00     0.007 A 
HETATM   30  C   UNK N   1      26.749  29.747  -4.358  0.00  0.00    -0.062 A 
HETATM   31  C   UNK N   1      26.905  31.033  -3.631  0.00  0.00     0.048 C 
HETATM   32  C   UNK N   1      27.476  29.516  -5.527  0.00  0.00     0.007 A 
HETATM   33  C   UNK N   1      27.347  28.297  -6.200  0.00  0.00     0.010 A 
ENDBRANCH  23  27
ENDBRANCH  20  23
ENDBRANCH   2  20
TORSDOF 12
ENDMDL
