MODEL 1
REMARK VINA RESULT:      -6.3      0.000      0.000
REMARK  13 active torsions:
REMARK  status: ('A' for Active; 'I' for Inactive)
REMARK    1  A    between atoms: C_2  and  C_3 
REMARK       I    between atoms: C_2  and  N_16 
REMARK    2  A    between atoms: C_3  and  C_4 
REMARK    3  A    between atoms: C_3  and  O_15 
REMARK    4  A    between atoms: C_4  and  C_5 
REMARK    5  A    between atoms: C_4  and  N_14 
REMARK    6  A    between atoms: C_8  and  C_9 
REMARK    7  A    between atoms: N_16  and  C_17 
REMARK    8  A    between atoms: C_17  and  C_19 
REMARK       I    between atoms: C_19  and  N_21 
REMARK    9  A    between atoms: C_22  and  N_21 
REMARK   10  A    between atoms: C_22  and  C_23 
REMARK   11  A    between atoms: C_22  and  C_27 
REMARK   12  A    between atoms: C_23  and  C_24 
REMARK   13  A    between atoms: C_27  and  O_29 
ROOT
HETATM    1  O   UNK N   1      27.360  23.215  -6.022  0.00  0.00    -0.271 OA
HETATM    2  C   UNK N   1      27.847  23.163  -7.140  0.00  0.00     0.249 C 
HETATM    3  N   UNK N   1      28.630  22.113  -7.512  0.00  0.00    -0.346 N 
HETATM    4  H   UNK N   1      28.836  22.018  -8.470  0.00  0.00     0.163 HD
ENDROOT
BRANCH   2   5
HETATM    5  C   UNK N   1      27.667  24.308  -8.109  0.00  0.00     0.236 C 
BRANCH   5   6
HETATM    6  C   UNK N   1      26.291  25.013  -8.028  0.00  0.00     0.145 C 
BRANCH   6   7
HETATM    7  C   UNK N   1      26.336  26.172  -7.040  0.00  0.00    -0.033 A 
HETATM    8  C   UNK N   1      27.292  27.186  -7.214  0.00  0.00     0.010 A 
HETATM    9  C   UNK N   1      27.373  28.255  -6.325  0.00  0.00     0.008 A 
HETATM   10  C   UNK N   1      26.495  28.343  -5.242  0.00  0.00    -0.055 A 
HETATM   11  C   UNK N   1      25.523  27.342  -5.066  0.00  0.00     0.008 A 
HETATM   12  C   UNK N   1      25.444  26.263  -5.959  0.00  0.00     0.010 A 
BRANCH  10  13
HETATM   13  C   UNK N   1      26.605  29.526  -4.311  0.00  0.00     0.010 C 
HETATM   14  C   UNK N   1      27.073  29.167  -2.909  0.00  0.00     0.015 C 
HETATM   15  C   UNK N   1      27.533  30.583  -4.886  0.00  0.00     0.015 C 
ENDBRANCH  10  13
ENDBRANCH   6   7
BRANCH   6  16
HETATM   16  N   UNK N   1      25.266  24.048  -7.649  0.00  0.00    -0.420 N 
HETATM   17  H   UNK N   1      25.414  23.042  -7.724  0.00  0.00     0.150 HD
HETATM   18  H   UNK N   1      24.370  24.390  -7.297  0.00  0.00     0.150 HD
ENDBRANCH   6  16
ENDBRANCH   5   6
BRANCH   5  19
HETATM   19  O   UNK N   1      27.879  23.820  -9.401  0.00  0.00    -0.384 OA
HETATM   20  H   UNK N   1      27.938  22.867  -9.577  0.00  0.00     0.210 HD
ENDBRANCH   5  19
ENDBRANCH   2   5
BRANCH   3  21
HETATM   21  C   UNK N   1      29.184  21.127  -6.612  0.00  0.00     0.172 C 
HETATM   22  C   UNK N   1      29.567  19.880  -7.396  0.00  0.00     0.042 C 
BRANCH  21  23
HETATM   23  C   UNK N   1      30.379  21.773  -5.945  0.00  0.00     0.240 C 
HETATM   24  O   UNK N   1      31.500  21.532  -6.373  0.00  0.00    -0.271 OA
HETATM   25  N   UNK N   1      30.222  22.585  -4.865  0.00  0.00    -0.345 N 
HETATM   26  H   UNK N   1      29.306  22.829  -4.595  0.00  0.00     0.163 HD
BRANCH  25  27
HETATM   27  C   UNK N   1      31.332  23.114  -4.086  0.00  0.00     0.184 C 
BRANCH  27  28
HETATM   28  C   UNK N   1      31.257  24.640  -4.085  0.00  0.00     0.039 C 
BRANCH  28  29
HETATM   29  C   UNK N   1      30.070  25.147  -4.891  0.00  0.00    -0.020 C 
HETATM   30  C   UNK N   1      29.125  25.955  -4.025  0.00  0.00     0.009 C 
HETATM   31  C   UNK N   1      30.568  26.001  -6.037  0.00  0.00     0.009 C 
ENDBRANCH  28  29
ENDBRANCH  27  28
BRANCH  27  32
HETATM   32  C   UNK N   1      31.283  22.608  -2.649  0.00  0.00     0.281 C 
HETATM   33  O   UNK N   1      32.014  21.690  -2.308  0.00  0.00    -0.263 OA
BRANCH  32  34
HETATM   34  O   UNK N   1      30.449  23.150  -1.722  0.00  0.00    -0.325 OA
HETATM   35  C   UNK N   1      29.082  22.987  -1.727  0.00  0.00     0.213 C 
ENDBRANCH  32  34
ENDBRANCH  27  32
ENDBRANCH  25  27
ENDBRANCH  21  23
ENDBRANCH   3  21
TORSDOF 13
ENDMDL
MODEL 2
REMARK VINA RESULT:      -6.2     15.319     20.053
REMARK  13 active torsions:
REMARK  status: ('A' for Active; 'I' for Inactive)
REMARK    1  A    between atoms: C_2  and  C_3 
REMARK       I    between atoms: C_2  and  N_16 
REMARK    2  A    between atoms: C_3  and  C_4 
REMARK    3  A    between atoms: C_3  and  O_15 
REMARK    4  A    between atoms: C_4  and  C_5 
REMARK    5  A    between atoms: C_4  and  N_14 
REMARK    6  A    between atoms: C_8  and  C_9 
REMARK    7  A    between atoms: N_16  and  C_17 
REMARK    8  A    between atoms: C_17  and  C_19 
REMARK       I    between atoms: C_19  and  N_21 
REMARK    9  A    between atoms: C_22  and  N_21 
REMARK   10  A    between atoms: C_22  and  C_23 
REMARK   11  A    between atoms: C_22  and  C_27 
REMARK   12  A    between atoms: C_23  and  C_24 
REMARK   13  A    between atoms: C_27  and  O_29 
ROOT
HETATM    1  O   UNK N   1      35.346  17.515   9.880  0.00  0.00    -0.271 OA
HETATM    2  C   UNK N   1      34.587  16.559   9.853  0.00  0.00     0.249 C 
HETATM    3  N   UNK N   1      33.758  16.354   8.793  0.00  0.00    -0.346 N 
HETATM    4  H   UNK N   1      33.314  15.478   8.727  0.00  0.00     0.163 HD
ENDROOT
BRANCH   2   5
HETATM    5  C   UNK N   1      34.487  15.627  11.038  0.00  0.00     0.236 C 
BRANCH   5   6
HETATM    6  C   UNK N   1      35.614  14.570  11.126  0.00  0.00     0.145 C 
BRANCH   6   7
HETATM    7  C   UNK N   1      35.662  13.947  12.517  0.00  0.00    -0.033 A 
HETATM    8  C   UNK N   1      34.959  12.756  12.760  0.00  0.00     0.010 A 
HETATM    9  C   UNK N   1      34.967  12.163  14.020  0.00  0.00     0.008 A 
HETATM   10  C   UNK N   1      35.685  12.742  15.070  0.00  0.00    -0.055 A 
HETATM   11  C   UNK N   1      36.406  13.927  14.835  0.00  0.00     0.008 A 
HETATM   12  C   UNK N   1      36.394  14.526  13.567  0.00  0.00     0.010 A 
BRANCH  10  13
HETATM   13  C   UNK N   1      35.682  12.059  16.416  0.00  0.00     0.010 C 
HETATM   14  C   UNK N   1      35.102  12.908  17.537  0.00  0.00     0.015 C 
HETATM   15  C   UNK N   1      34.928  10.741  16.353  0.00  0.00     0.015 C 
ENDBRANCH  10  13
ENDBRANCH   6   7
BRANCH   6  16
HETATM   16  N   UNK N   1      36.893  15.184  10.790  0.00  0.00    -0.420 N 
HETATM   17  H   UNK N   1      37.517  15.563  11.502  0.00  0.00     0.150 HD
HETATM   18  H   UNK N   1      37.173  15.239   9.810  0.00  0.00     0.150 HD
ENDBRANCH   6  16
ENDBRANCH   5   6
BRANCH   5  19
HETATM   19  O   UNK N   1      33.242  14.994  10.989  0.00  0.00    -0.384 OA
HETATM   20  H   UNK N   1      32.757  14.900  10.153  0.00  0.00     0.210 HD
ENDBRANCH   5  19
ENDBRANCH   2   5
BRANCH   3  21
HETATM   21  C   UNK N   1      33.476  17.322   7.757  0.00  0.00     0.172 C 
HETATM   22  C   UNK N   1      34.190  16.920   6.475  0.00  0.00     0.042 C 
BRANCH  21  23
HETATM   23  C   UNK N   1      31.972  17.349   7.589  0.00  0.00     0.240 C 
HETATM   24  O   UNK N   1      31.274  17.689   8.535  0.00  0.00    -0.271 OA
HETATM   25  N   UNK N   1      31.393  16.973   6.415  0.00  0.00    -0.345 N 
HETATM   26  H   UNK N   1      31.979  16.787   5.646  0.00  0.00     0.163 HD
BRANCH  25  27
HETATM   27  C   UNK N   1      29.956  16.830   6.235  0.00  0.00     0.184 C 
BRANCH  27  28
HETATM   28  C   UNK N   1      29.467  17.904   5.265  0.00  0.00     0.039 C 
BRANCH  28  29
HETATM   29  C   UNK N   1      28.187  18.565   5.756  0.00  0.00    -0.020 C 
HETATM   30  C   UNK N   1      28.287  18.930   7.223  0.00  0.00     0.009 C 
HETATM   31  C   UNK N   1      27.918  19.810   4.937  0.00  0.00     0.009 C 
ENDBRANCH  28  29
ENDBRANCH  27  28
BRANCH  27  32
HETATM   32  C   UNK N   1      29.607  15.455   5.679  0.00  0.00     0.281 C 
HETATM   33  O   UNK N   1      30.416  14.544   5.772  0.00  0.00    -0.263 OA
BRANCH  32  34
HETATM   34  O   UNK N   1      28.413  15.201   5.080  0.00  0.00    -0.325 OA
HETATM   35  C   UNK N   1      27.253  14.916   5.763  0.00  0.00     0.213 C 
ENDBRANCH  32  34
ENDBRANCH  27  32
ENDBRANCH  25  27
ENDBRANCH  21  23
ENDBRANCH   3  21
TORSDOF 13
ENDMDL
MODEL 3
REMARK VINA RESULT:      -6.1     18.168     22.836
REMARK  13 active torsions:
REMARK  status: ('A' for Active; 'I' for Inactive)
REMARK    1  A    between atoms: C_2  and  C_3 
REMARK       I    between atoms: C_2  and  N_16 
REMARK    2  A    between atoms: C_3  and  C_4 
REMARK    3  A    between atoms: C_3  and  O_15 
REMARK    4  A    between atoms: C_4  and  C_5 
REMARK    5  A    between atoms: C_4  and  N_14 
REMARK    6  A    between atoms: C_8  and  C_9 
REMARK    7  A    between atoms: N_16  and  C_17 
REMARK    8  A    between atoms: C_17  and  C_19 
REMARK       I    between atoms: C_19  and  N_21 
REMARK    9  A    between atoms: C_22  and  N_21 
REMARK   10  A    between atoms: C_22  and  C_23 
REMARK   11  A    between atoms: C_22  and  C_27 
REMARK   12  A    between atoms: C_23  and  C_24 
REMARK   13  A    between atoms: C_27  and  O_29 
ROOT
HETATM    1  O   UNK N   1      35.961  14.591  13.449  0.00  0.00    -0.271 OA
HETATM    2  C   UNK N   1      35.353  13.845  12.697  0.00  0.00     0.249 C 
HETATM    3  N   UNK N   1      34.950  14.270  11.468  0.00  0.00    -0.346 N 
HETATM    4  H   UNK N   1      34.643  13.586  10.830  0.00  0.00     0.163 HD
ENDROOT
BRANCH   2   5
HETATM    5  C   UNK N   1      34.956  12.459  13.149  0.00  0.00     0.236 C 
BRANCH   5   6
HETATM    6  C   UNK N   1      36.121  11.597  13.691  0.00  0.00     0.145 C 
BRANCH   6   7
HETATM    7  C   UNK N   1      35.990  11.400  15.197  0.00  0.00    -0.033 A 
HETATM    8  C   UNK N   1      35.351  12.386  15.965  0.00  0.00     0.010 A 
HETATM    9  C   UNK N   1      35.223  12.248  17.346  0.00  0.00     0.008 A 
HETATM   10  C   UNK N   1      35.725  11.116  17.994  0.00  0.00    -0.055 A 
HETATM   11  C   UNK N   1      36.353  10.114  17.232  0.00  0.00     0.008 A 
HETATM   12  C   UNK N   1      36.485  10.255  15.843  0.00  0.00     0.010 A 
BRANCH  10  13
HETATM   13  C   UNK N   1      35.551  10.997  19.488  0.00  0.00     0.010 C 
HETATM   14  C   UNK N   1      36.766  10.433  20.207  0.00  0.00     0.015 C 
HETATM   15  C   UNK N   1      35.194  12.342  20.101  0.00  0.00     0.015 C 
ENDBRANCH  10  13
ENDBRANCH   6   7
BRANCH   6  16
HETATM   16  N   UNK N   1      37.394  12.225  13.359  0.00  0.00    -0.420 N 
HETATM   17  H   UNK N   1      37.461  13.000  12.700  0.00  0.00     0.150 HD
HETATM   18  H   UNK N   1      38.247  11.879  13.801  0.00  0.00     0.150 HD
ENDBRANCH   6  16
ENDBRANCH   5   6
BRANCH   5  19
HETATM   19  O   UNK N   1      34.343  11.812  12.071  0.00  0.00    -0.384 OA
HETATM   20  H   UNK N   1      34.352  12.196  11.181  0.00  0.00     0.210 HD
ENDBRANCH   5  19
ENDBRANCH   2   5
BRANCH   3  21
HETATM   21  C   UNK N   1      34.936  15.646  11.025  0.00  0.00     0.172 C 
HETATM   22  C   UNK N   1      36.324  16.040  10.542  0.00  0.00     0.042 C 
BRANCH  21  23
HETATM   23  C   UNK N   1      33.901  15.735   9.924  0.00  0.00     0.240 C 
HETATM   24  O   UNK N   1      33.389  14.706   9.505  0.00  0.00    -0.271 OA
HETATM   25  N   UNK N   1      33.561  16.936   9.380  0.00  0.00    -0.345 N 
HETATM   26  H   UNK N   1      33.924  17.753   9.794  0.00  0.00     0.163 HD
BRANCH  25  27
HETATM   27  C   UNK N   1      32.692  17.079   8.223  0.00  0.00     0.184 C 
BRANCH  27  28
HETATM   28  C   UNK N   1      31.582  18.075   8.553  0.00  0.00     0.039 C 
BRANCH  28  29
HETATM   29  C   UNK N   1      30.223  17.395   8.643  0.00  0.00    -0.020 C 
HETATM   30  C   UNK N   1      29.372  18.016   9.732  0.00  0.00     0.009 C 
HETATM   31  C   UNK N   1      29.513  17.512   7.311  0.00  0.00     0.009 C 
ENDBRANCH  28  29
ENDBRANCH  27  28
BRANCH  27  32
HETATM   32  C   UNK N   1      33.470  17.577   7.011  0.00  0.00     0.281 C 
HETATM   33  O   UNK N   1      34.583  18.058   7.165  0.00  0.00    -0.263 OA
BRANCH  32  34
HETATM   34  O   UNK N   1      32.966  17.504   5.750  0.00  0.00    -0.325 OA
HETATM   35  C   UNK N   1      33.479  16.696   4.761  0.00  0.00     0.213 C 
ENDBRANCH  32  34
ENDBRANCH  27  32
ENDBRANCH  25  27
ENDBRANCH  21  23
ENDBRANCH   3  21
TORSDOF 13
ENDMDL
MODEL 4
REMARK VINA RESULT:      -6.1     16.114     20.716
REMARK  13 active torsions:
REMARK  status: ('A' for Active; 'I' for Inactive)
REMARK    1  A    between atoms: C_2  and  C_3 
REMARK       I    between atoms: C_2  and  N_16 
REMARK    2  A    between atoms: C_3  and  C_4 
REMARK    3  A    between atoms: C_3  and  O_15 
REMARK    4  A    between atoms: C_4  and  C_5 
REMARK    5  A    between atoms: C_4  and  N_14 
REMARK    6  A    between atoms: C_8  and  C_9 
REMARK    7  A    between atoms: N_16  and  C_17 
REMARK    8  A    between atoms: C_17  and  C_19 
REMARK       I    between atoms: C_19  and  N_21 
REMARK    9  A    between atoms: C_22  and  N_21 
REMARK   10  A    between atoms: C_22  and  C_23 
REMARK   11  A    between atoms: C_22  and  C_27 
REMARK   12  A    between atoms: C_23  and  C_24 
REMARK   13  A    between atoms: C_27  and  O_29 
ROOT
HETATM    1  O   UNK N   1      36.599  15.779  10.233  0.00  0.00    -0.271 OA
HETATM    2  C   UNK N   1      35.544  15.180  10.096  0.00  0.00     0.249 C 
HETATM    3  N   UNK N   1      34.973  15.040   8.868  0.00  0.00    -0.346 N 
HETATM    4  H   UNK N   1      34.238  14.391   8.781  0.00  0.00     0.163 HD
ENDROOT
BRANCH   2   5
HETATM    5  C   UNK N   1      34.800  14.653  11.302  0.00  0.00     0.236 C 
BRANCH   5   6
HETATM    6  C   UNK N   1      35.080  13.169  11.637  0.00  0.00     0.145 C 
BRANCH   6   7
HETATM    7  C   UNK N   1      35.210  12.971  13.143  0.00  0.00    -0.033 A 
HETATM    8  C   UNK N   1      36.169  13.711  13.853  0.00  0.00     0.010 A 
HETATM    9  C   UNK N   1      36.326  13.550  15.227  0.00  0.00     0.008 A 
HETATM   10  C   UNK N   1      35.524  12.648  15.931  0.00  0.00    -0.055 A 
HETATM   11  C   UNK N   1      34.549  11.911  15.233  0.00  0.00     0.008 A 
HETATM   12  C   UNK N   1      34.393  12.071  13.849  0.00  0.00     0.010 A 
BRANCH  10  13
HETATM   13  C   UNK N   1      35.715  12.513  17.422  0.00  0.00     0.010 C 
HETATM   14  C   UNK N   1      35.040  13.609  18.231  0.00  0.00     0.015 C 
HETATM   15  C   UNK N   1      35.222  11.162  17.911  0.00  0.00     0.015 C 
ENDBRANCH  10  13
ENDBRANCH   6   7
BRANCH   6  16
HETATM   16  N   UNK N   1      36.289  12.729  10.950  0.00  0.00    -0.420 N 
HETATM   17  H   UNK N   1      37.135  13.297  10.925  0.00  0.00     0.150 HD
HETATM   18  H   UNK N   1      36.288  11.823  10.480  0.00  0.00     0.150 HD
ENDBRANCH   6  16
ENDBRANCH   5   6
BRANCH   5  19
HETATM   19  O   UNK N   1      33.433  14.845  11.085  0.00  0.00    -0.384 OA
HETATM   20  H   UNK N   1      32.788  14.739  11.803  0.00  0.00     0.210 HD
ENDBRANCH   5  19
ENDBRANCH   2   5
BRANCH   3  21
HETATM   21  C   UNK N   1      35.360  15.770   7.682  0.00  0.00     0.172 C 
HETATM   22  C   UNK N   1      35.659  14.791   6.556  0.00  0.00     0.042 C 
BRANCH  21  23
HETATM   23  C   UNK N   1      34.207  16.692   7.347  0.00  0.00     0.240 C 
HETATM   24  O   UNK N   1      34.446  17.843   7.007  0.00  0.00    -0.271 OA
HETATM   25  N   UNK N   1      32.918  16.266   7.449  0.00  0.00    -0.345 N 
HETATM   26  H   UNK N   1      32.757  15.313   7.642  0.00  0.00     0.163 HD
BRANCH  25  27
HETATM   27  C   UNK N   1      31.766  17.139   7.291  0.00  0.00     0.184 C 
BRANCH  27  28
HETATM   28  C   UNK N   1      30.825  16.539   6.247  0.00  0.00     0.039 C 
BRANCH  28  29
HETATM   29  C   UNK N   1      30.710  17.426   5.016  0.00  0.00    -0.020 C 
HETATM   30  C   UNK N   1      31.125  16.681   3.763  0.00  0.00     0.009 C 
HETATM   31  C   UNK N   1      29.282  17.907   4.874  0.00  0.00     0.009 C 
ENDBRANCH  28  29
ENDBRANCH  27  28
BRANCH  27  32
HETATM   32  C   UNK N   1      31.016  17.302   8.607  0.00  0.00     0.281 C 
HETATM   33  O   UNK N   1      31.038  16.398   9.430  0.00  0.00    -0.263 OA
BRANCH  32  34
HETATM   34  O   UNK N   1      30.318  18.431   8.904  0.00  0.00    -0.325 OA
HETATM   35  C   UNK N   1      29.019  18.436   9.358  0.00  0.00     0.213 C 
ENDBRANCH  32  34
ENDBRANCH  27  32
ENDBRANCH  25  27
ENDBRANCH  21  23
ENDBRANCH   3  21
TORSDOF 13
ENDMDL
MODEL 5
REMARK VINA RESULT:      -6.0     12.807     15.380
REMARK  13 active torsions:
REMARK  status: ('A' for Active; 'I' for Inactive)
REMARK    1  A    between atoms: C_2  and  C_3 
REMARK       I    between atoms: C_2  and  N_16 
REMARK    2  A    between atoms: C_3  and  C_4 
REMARK    3  A    between atoms: C_3  and  O_15 
REMARK    4  A    between atoms: C_4  and  C_5 
REMARK    5  A    between atoms: C_4  and  N_14 
REMARK    6  A    between atoms: C_8  and  C_9 
REMARK    7  A    between atoms: N_16  and  C_17 
REMARK    8  A    between atoms: C_17  and  C_19 
REMARK       I    between atoms: C_19  and  N_21 
REMARK    9  A    between atoms: C_22  and  N_21 
REMARK   10  A    between atoms: C_22  and  C_23 
REMARK   11  A    between atoms: C_22  and  C_27 
REMARK   12  A    between atoms: C_23  and  C_24 
REMARK   13  A    between atoms: C_27  and  O_29 
ROOT
HETATM    1  O   UNK N   1      27.929  19.578   7.182  0.00  0.00    -0.271 OA
HETATM    2  C   UNK N   1      28.028  18.370   7.041  0.00  0.00     0.249 C 
HETATM    3  N   UNK N   1      28.839  17.636   7.851  0.00  0.00    -0.346 N 
HETATM    4  H   UNK N   1      28.738  16.657   7.828  0.00  0.00     0.163 HD
ENDROOT
BRANCH   2   5
HETATM    5  C   UNK N   1      27.320  17.671   5.903  0.00  0.00     0.236 C 
BRANCH   5   6
HETATM    6  C   UNK N   1      28.058  17.736   4.545  0.00  0.00     0.145 C 
BRANCH   6   7
HETATM    7  C   UNK N   1      28.797  16.431   4.270  0.00  0.00    -0.033 A 
HETATM    8  C   UNK N   1      29.427  16.247   3.029  0.00  0.00     0.010 A 
HETATM    9  C   UNK N   1      30.101  15.064   2.735  0.00  0.00     0.008 A 
HETATM   10  C   UNK N   1      30.169  14.035   3.679  0.00  0.00    -0.055 A 
HETATM   11  C   UNK N   1      29.555  14.214   4.932  0.00  0.00     0.008 A 
HETATM   12  C   UNK N   1      28.873  15.404   5.225  0.00  0.00     0.010 A 
BRANCH  10  13
HETATM   13  C   UNK N   1      30.923  12.776   3.328  0.00  0.00     0.010 C 
HETATM   14  C   UNK N   1      30.649  11.611   4.267  0.00  0.00     0.015 C 
HETATM   15  C   UNK N   1      30.621  12.343   1.902  0.00  0.00     0.015 C 
ENDBRANCH  10  13
ENDBRANCH   6   7
BRANCH   6  16
HETATM   16  N   UNK N   1      28.981  18.865   4.540  0.00  0.00    -0.420 N 
HETATM   17  H   UNK N   1      29.000  19.552   5.293  0.00  0.00     0.150 HD
HETATM   18  H   UNK N   1      29.627  18.973   3.757  0.00  0.00     0.150 HD
ENDBRANCH   6  16
ENDBRANCH   5   6
BRANCH   5  19
HETATM   19  O   UNK N   1      26.043  18.227   5.781  0.00  0.00    -0.384 OA
HETATM   20  H   UNK N   1      25.541  18.513   6.560  0.00  0.00     0.210 HD
ENDBRANCH   5  19
ENDBRANCH   2   5
BRANCH   3  21
HETATM   21  C   UNK N   1      29.838  18.179   8.743  0.00  0.00     0.172 C 
HETATM   22  C   UNK N   1      29.360  18.054  10.182  0.00  0.00     0.042 C 
BRANCH  21  23
HETATM   23  C   UNK N   1      31.111  17.398   8.494  0.00  0.00     0.240 C 
HETATM   24  O   UNK N   1      31.195  16.250   8.909  0.00  0.00    -0.271 OA
HETATM   25  N   UNK N   1      32.164  17.967   7.846  0.00  0.00    -0.345 N 
HETATM   26  H   UNK N   1      32.039  18.860   7.449  0.00  0.00     0.163 HD
BRANCH  25  27
HETATM   27  C   UNK N   1      33.465  17.330   7.708  0.00  0.00     0.184 C 
BRANCH  27  28
HETATM   28  C   UNK N   1      33.902  17.401   6.246  0.00  0.00     0.039 C 
BRANCH  28  29
HETATM   29  C   UNK N   1      32.869  16.778   5.318  0.00  0.00    -0.020 C 
HETATM   30  C   UNK N   1      32.732  17.575   4.037  0.00  0.00     0.009 C 
HETATM   31  C   UNK N   1      33.276  15.356   4.994  0.00  0.00     0.009 C 
ENDBRANCH  28  29
ENDBRANCH  27  28
BRANCH  27  32
HETATM   32  C   UNK N   1      34.508  18.020   8.578  0.00  0.00     0.281 C 
HETATM   33  O   UNK N   1      35.023  19.059   8.193  0.00  0.00    -0.263 OA
BRANCH  32  34
HETATM   34  O   UNK N   1      34.890  17.516   9.782  0.00  0.00    -0.325 OA
HETATM   35  C   UNK N   1      35.105  16.179  10.025  0.00  0.00     0.213 C 
ENDBRANCH  32  34
ENDBRANCH  27  32
ENDBRANCH  25  27
ENDBRANCH  21  23
ENDBRANCH   3  21
TORSDOF 13
ENDMDL
MODEL 6
REMARK VINA RESULT:      -5.8     12.574     15.311
REMARK  13 active torsions:
REMARK  status: ('A' for Active; 'I' for Inactive)
REMARK    1  A    between atoms: C_2  and  C_3 
REMARK       I    between atoms: C_2  and  N_16 
REMARK    2  A    between atoms: C_3  and  C_4 
REMARK    3  A    between atoms: C_3  and  O_15 
REMARK    4  A    between atoms: C_4  and  C_5 
REMARK    5  A    between atoms: C_4  and  N_14 
REMARK    6  A    between atoms: C_8  and  C_9 
REMARK    7  A    between atoms: N_16  and  C_17 
REMARK    8  A    between atoms: C_17  and  C_19 
REMARK       I    between atoms: C_19  and  N_21 
REMARK    9  A    between atoms: C_22  and  N_21 
REMARK   10  A    between atoms: C_22  and  C_23 
REMARK   11  A    between atoms: C_22  and  C_27 
REMARK   12  A    between atoms: C_23  and  C_24 
REMARK   13  A    between atoms: C_27  and  O_29 
ROOT
HETATM    1  O   UNK N   1      18.782  18.396   2.722  0.00  0.00    -0.271 OA
HETATM    2  C   UNK N   1      19.933  17.995   2.661  0.00  0.00     0.249 C 
HETATM    3  N   UNK N   1      20.305  16.843   3.284  0.00  0.00    -0.346 N 
HETATM    4  H   UNK N   1      21.182  16.462   3.047  0.00  0.00     0.163 HD
ENDROOT
BRANCH   2   5
HETATM    5  C   UNK N   1      20.995  18.816   1.967  0.00  0.00     0.236 C 
BRANCH   5   6
HETATM    6  C   UNK N   1      21.507  20.030   2.779  0.00  0.00     0.145 C 
BRANCH   6   7
HETATM    7  C   UNK N   1      22.998  19.896   3.065  0.00  0.00    -0.033 A 
HETATM    8  C   UNK N   1      23.446  18.870   3.913  0.00  0.00     0.010 A 
HETATM    9  C   UNK N   1      24.799  18.724   4.208  0.00  0.00     0.008 A 
HETATM   10  C   UNK N   1      25.743  19.595   3.659  0.00  0.00    -0.055 A 
HETATM   11  C   UNK N   1      25.308  20.618   2.796  0.00  0.00     0.008 A 
HETATM   12  C   UNK N   1      23.945  20.768   2.501  0.00  0.00     0.010 A 
BRANCH  10  13
HETATM   13  C   UNK N   1      27.201  19.392   3.991  0.00  0.00     0.010 C 
HETATM   14  C   UNK N   1      27.699  20.260   5.136  0.00  0.00     0.015 C 
HETATM   15  C   UNK N   1      27.485  17.935   4.314  0.00  0.00     0.015 C 
ENDBRANCH  10  13
ENDBRANCH   6   7
BRANCH   6  16
HETATM   16  N   UNK N   1      20.750  20.148   4.020  0.00  0.00    -0.420 N 
HETATM   17  H   UNK N   1      20.784  20.986   4.598  0.00  0.00     0.150 HD
HETATM   18  H   UNK N   1      20.167  19.365   4.319  0.00  0.00     0.150 HD
ENDBRANCH   6  16
ENDBRANCH   5   6
BRANCH   5  19
HETATM   19  O   UNK N   1      20.478  19.245   0.741  0.00  0.00    -0.384 OA
HETATM   20  H   UNK N   1      19.961  20.063   0.670  0.00  0.00     0.210 HD
ENDBRANCH   5  19
ENDBRANCH   2   5
BRANCH   3  21
HETATM   21  C   UNK N   1      19.516  16.134   4.265  0.00  0.00     0.172 C 
HETATM   22  C   UNK N   1      19.611  14.637   4.011  0.00  0.00     0.042 C 
BRANCH  21  23
HETATM   23  C   UNK N   1      20.065  16.519   5.622  0.00  0.00     0.240 C 
HETATM   24  O   UNK N   1      20.780  17.508   5.715  0.00  0.00    -0.271 OA
HETATM   25  N   UNK N   1      19.798  15.765   6.724  0.00  0.00    -0.345 N 
HETATM   26  H   UNK N   1      19.152  15.026   6.636  0.00  0.00     0.163 HD
BRANCH  25  27
HETATM   27  C   UNK N   1      20.414  15.990   8.022  0.00  0.00     0.184 C 
BRANCH  27  28
HETATM   28  C   UNK N   1      19.317  16.152   9.073  0.00  0.00     0.039 C 
BRANCH  28  29
HETATM   29  C   UNK N   1      18.627  17.505   8.963  0.00  0.00    -0.020 C 
HETATM   30  C   UNK N   1      17.378  17.553   9.820  0.00  0.00     0.009 C 
HETATM   31  C   UNK N   1      19.585  18.595   9.394  0.00  0.00     0.009 C 
ENDBRANCH  28  29
ENDBRANCH  27  28
BRANCH  27  32
HETATM   32  C   UNK N   1      21.314  14.824   8.412  0.00  0.00     0.281 C 
HETATM   33  O   UNK N   1      21.316  14.423   9.567  0.00  0.00    -0.263 OA
BRANCH  32  34
HETATM   34  O   UNK N   1      22.121  14.203   7.511  0.00  0.00    -0.325 OA
HETATM   35  C   UNK N   1      23.151  13.357   7.853  0.00  0.00     0.213 C 
ENDBRANCH  32  34
ENDBRANCH  27  32
ENDBRANCH  25  27
ENDBRANCH  21  23
ENDBRANCH   3  21
TORSDOF 13
ENDMDL
MODEL 7
REMARK VINA RESULT:      -5.8     11.189     15.402
REMARK  13 active torsions:
REMARK  status: ('A' for Active; 'I' for Inactive)
REMARK    1  A    between atoms: C_2  and  C_3 
REMARK       I    between atoms: C_2  and  N_16 
REMARK    2  A    between atoms: C_3  and  C_4 
REMARK    3  A    between atoms: C_3  and  O_15 
REMARK    4  A    between atoms: C_4  and  C_5 
REMARK    5  A    between atoms: C_4  and  N_14 
REMARK    6  A    between atoms: C_8  and  C_9 
REMARK    7  A    between atoms: N_16  and  C_17 
REMARK    8  A    between atoms: C_17  and  C_19 
REMARK       I    between atoms: C_19  and  N_21 
REMARK    9  A    between atoms: C_22  and  N_21 
REMARK   10  A    between atoms: C_22  and  C_23 
REMARK   11  A    between atoms: C_22  and  C_27 
REMARK   12  A    between atoms: C_23  and  C_24 
REMARK   13  A    between atoms: C_27  and  O_29 
ROOT
HETATM    1  O   UNK N   1      27.339  20.205   5.679  0.00  0.00    -0.271 OA
HETATM    2  C   UNK N   1      26.913  19.085   5.448  0.00  0.00     0.249 C 
HETATM    3  N   UNK N   1      25.860  18.898   4.605  0.00  0.00    -0.346 N 
HETATM    4  H   UNK N   1      25.681  17.979   4.300  0.00  0.00     0.163 HD
ENDROOT
BRANCH   2   5
HETATM    5  C   UNK N   1      27.489  17.884   6.161  0.00  0.00     0.236 C 
BRANCH   5   6
HETATM    6  C   UNK N   1      28.717  17.247   5.468  0.00  0.00     0.145 C 
BRANCH   6   7
HETATM    7  C   UNK N   1      29.946  17.332   6.365  0.00  0.00    -0.033 A 
HETATM    8  C   UNK N   1      31.216  17.101   5.814  0.00  0.00     0.010 A 
HETATM    9  C   UNK N   1      32.362  17.156   6.604  0.00  0.00     0.008 A 
HETATM   10  C   UNK N   1      32.269  17.452   7.967  0.00  0.00    -0.055 A 
HETATM   11  C   UNK N   1      31.003  17.701   8.528  0.00  0.00     0.008 A 
HETATM   12  C   UNK N   1      29.850  17.641   7.733  0.00  0.00     0.010 A 
BRANCH  10  13
HETATM   13  C   UNK N   1      33.536  17.519   8.785  0.00  0.00     0.010 C 
HETATM   14  C   UNK N   1      34.182  16.166   9.033  0.00  0.00     0.015 C 
HETATM   15  C   UNK N   1      34.553  18.441   8.132  0.00  0.00     0.015 C 
ENDBRANCH  10  13
ENDBRANCH   6   7
BRANCH   6  16
HETATM   16  N   UNK N   1      28.960  17.909   4.192  0.00  0.00    -0.420 N 
HETATM   17  H   UNK N   1      28.205  18.311   3.638  0.00  0.00     0.150 HD
HETATM   18  H   UNK N   1      29.917  17.971   3.841  0.00  0.00     0.150 HD
ENDBRANCH   6  16
ENDBRANCH   5   6
BRANCH   5  19
HETATM   19  O   UNK N   1      26.472  16.934   6.300  0.00  0.00    -0.384 OA
HETATM   20  H   UNK N   1      25.669  16.972   5.757  0.00  0.00     0.210 HD
ENDBRANCH   5  19
ENDBRANCH   2   5
BRANCH   3  21
HETATM   21  C   UNK N   1      24.984  19.941   4.123  0.00  0.00     0.172 C 
HETATM   22  C   UNK N   1      25.481  20.444   2.776  0.00  0.00     0.042 C 
BRANCH  21  23
HETATM   23  C   UNK N   1      23.599  19.335   4.031  0.00  0.00     0.240 C 
HETATM   24  O   UNK N   1      22.806  19.787   3.217  0.00  0.00    -0.271 OA
HETATM   25  N   UNK N   1      23.224  18.322   4.859  0.00  0.00    -0.345 N 
HETATM   26  H   UNK N   1      23.908  17.921   5.444  0.00  0.00     0.163 HD
BRANCH  25  27
HETATM   27  C   UNK N   1      21.868  17.799   4.929  0.00  0.00     0.184 C 
BRANCH  27  28
HETATM   28  C   UNK N   1      21.831  16.421   4.270  0.00  0.00     0.039 C 
BRANCH  28  29
HETATM   29  C   UNK N   1      20.614  16.258   3.371  0.00  0.00    -0.020 C 
HETATM   30  C   UNK N   1      19.557  15.395   4.031  0.00  0.00     0.009 C 
HETATM   31  C   UNK N   1      20.035  17.621   3.055  0.00  0.00     0.009 C 
ENDBRANCH  28  29
ENDBRANCH  27  28
BRANCH  27  32
HETATM   32  C   UNK N   1      21.400  17.677   6.373  0.00  0.00     0.281 C 
HETATM   33  O   UNK N   1      21.168  18.688   7.020  0.00  0.00    -0.263 OA
BRANCH  32  34
HETATM   34  O   UNK N   1      21.228  16.470   6.976  0.00  0.00    -0.325 OA
HETATM   35  C   UNK N   1      20.728  16.308   8.248  0.00  0.00     0.213 C 
ENDBRANCH  32  34
ENDBRANCH  27  32
ENDBRANCH  25  27
ENDBRANCH  21  23
ENDBRANCH   3  21
TORSDOF 13
ENDMDL
MODEL 8
REMARK VINA RESULT:      -5.8     12.413     14.935
REMARK  13 active torsions:
REMARK  status: ('A' for Active; 'I' for Inactive)
REMARK    1  A    between atoms: C_2  and  C_3 
REMARK       I    between atoms: C_2  and  N_16 
REMARK    2  A    between atoms: C_3  and  C_4 
REMARK    3  A    between atoms: C_3  and  O_15 
REMARK    4  A    between atoms: C_4  and  C_5 
REMARK    5  A    between atoms: C_4  and  N_14 
REMARK    6  A    between atoms: C_8  and  C_9 
REMARK    7  A    between atoms: N_16  and  C_17 
REMARK    8  A    between atoms: C_17  and  C_19 
REMARK       I    between atoms: C_19  and  N_21 
REMARK    9  A    between atoms: C_22  and  N_21 
REMARK   10  A    between atoms: C_22  and  C_23 
REMARK   11  A    between atoms: C_22  and  C_27 
REMARK   12  A    between atoms: C_23  and  C_24 
REMARK   13  A    between atoms: C_27  and  O_29 
ROOT
HETATM    1  O   UNK N   1      28.220  14.553   2.432  0.00  0.00    -0.271 OA
HETATM    2  C   UNK N   1      28.811  14.350   3.481  0.00  0.00     0.249 C 
HETATM    3  N   UNK N   1      28.128  14.199   4.649  0.00  0.00    -0.346 N 
HETATM    4  H   UNK N   1      28.626  13.846   5.423  0.00  0.00     0.163 HD
ENDROOT
BRANCH   2   5
HETATM    5  C   UNK N   1      30.321  14.350   3.522  0.00  0.00     0.236 C 
BRANCH   5   6
HETATM    6  C   UNK N   1      30.971  15.751   3.420  0.00  0.00     0.145 C 
BRANCH   6   7
HETATM    7  C   UNK N   1      31.579  16.161   4.756  0.00  0.00    -0.033 A 
HETATM    8  C   UNK N   1      32.459  17.254   4.803  0.00  0.00     0.010 A 
HETATM    9  C   UNK N   1      33.045  17.651   6.003  0.00  0.00     0.008 A 
HETATM   10  C   UNK N   1      32.761  16.971   7.189  0.00  0.00    -0.055 A 
HETATM   11  C   UNK N   1      31.868  15.884   7.158  0.00  0.00     0.008 A 
HETATM   12  C   UNK N   1      31.282  15.481   5.949  0.00  0.00     0.010 A 
BRANCH  10  13
HETATM   13  C   UNK N   1      33.404  17.443   8.471  0.00  0.00     0.010 C 
HETATM   14  C   UNK N   1      34.002  16.325   9.309  0.00  0.00     0.015 C 
HETATM   15  C   UNK N   1      34.479  18.479   8.187  0.00  0.00     0.015 C 
ENDBRANCH  10  13
ENDBRANCH   6   7
BRANCH   6  16
HETATM   16  N   UNK N   1      29.977  16.724   2.982  0.00  0.00    -0.420 N 
HETATM   17  H   UNK N   1      28.996  16.656   3.254  0.00  0.00     0.150 HD
HETATM   18  H   UNK N   1      30.271  17.496   2.384  0.00  0.00     0.150 HD
ENDBRANCH   6  16
ENDBRANCH   5   6
BRANCH   5  19
HETATM   19  O   UNK N   1      30.783  13.532   2.486  0.00  0.00    -0.384 OA
HETATM   20  H   UNK N   1      30.187  12.925   2.019  0.00  0.00     0.210 HD
ENDBRANCH   5  19
ENDBRANCH   2   5
BRANCH   3  21
HETATM   21  C   UNK N   1      26.732  14.515   4.845  0.00  0.00     0.172 C 
HETATM   22  C   UNK N   1      26.050  13.376   5.589  0.00  0.00     0.042 C 
BRANCH  21  23
HETATM   23  C   UNK N   1      26.687  15.813   5.623  0.00  0.00     0.240 C 
HETATM   24  O   UNK N   1      25.624  16.181   6.104  0.00  0.00    -0.271 OA
HETATM   25  N   UNK N   1      27.802  16.583   5.763  0.00  0.00    -0.345 N 
HETATM   26  H   UNK N   1      28.660  16.222   5.440  0.00  0.00     0.163 HD
BRANCH  25  27
HETATM   27  C   UNK N   1      27.795  17.908   6.362  0.00  0.00     0.184 C 
BRANCH  27  28
HETATM   28  C   UNK N   1      29.050  18.073   7.219  0.00  0.00     0.039 C 
BRANCH  28  29
HETATM   29  C   UNK N   1      28.705  18.398   8.666  0.00  0.00    -0.020 C 
HETATM   30  C   UNK N   1      28.055  17.214   9.353  0.00  0.00     0.009 C 
HETATM   31  C   UNK N   1      29.965  18.790   9.407  0.00  0.00     0.009 C 
ENDBRANCH  28  29
ENDBRANCH  27  28
BRANCH  27  32
HETATM   32  C   UNK N   1      27.772  18.993   5.294  0.00  0.00     0.281 C 
HETATM   33  O   UNK N   1      27.794  18.678   4.113  0.00  0.00    -0.263 OA
BRANCH  32  34
HETATM   34  O   UNK N   1      27.723  20.315   5.610  0.00  0.00    -0.325 OA
HETATM   35  C   UNK N   1      26.712  20.896   6.341  0.00  0.00     0.213 C 
ENDBRANCH  32  34
ENDBRANCH  27  32
ENDBRANCH  25  27
ENDBRANCH  21  23
ENDBRANCH   3  21
TORSDOF 13
ENDMDL
MODEL 9
REMARK VINA RESULT:      -5.7     11.843     14.567
REMARK  13 active torsions:
REMARK  status: ('A' for Active; 'I' for Inactive)
REMARK    1  A    between atoms: C_2  and  C_3 
REMARK       I    between atoms: C_2  and  N_16 
REMARK    2  A    between atoms: C_3  and  C_4 
REMARK    3  A    between atoms: C_3  and  O_15 
REMARK    4  A    between atoms: C_4  and  C_5 
REMARK    5  A    between atoms: C_4  and  N_14 
REMARK    6  A    between atoms: C_8  and  C_9 
REMARK    7  A    between atoms: N_16  and  C_17 
REMARK    8  A    between atoms: C_17  and  C_19 
REMARK       I    between atoms: C_19  and  N_21 
REMARK    9  A    between atoms: C_22  and  N_21 
REMARK   10  A    between atoms: C_22  and  C_23 
REMARK   11  A    between atoms: C_22  and  C_27 
REMARK   12  A    between atoms: C_23  and  C_24 
REMARK   13  A    between atoms: C_27  and  O_29 
ROOT
HETATM    1  O   UNK N   1      18.971  18.331   2.473  0.00  0.00    -0.271 OA
HETATM    2  C   UNK N   1      20.132  18.136   2.151  0.00  0.00     0.249 C 
HETATM    3  N   UNK N   1      20.609  16.871   1.991  0.00  0.00    -0.346 N 
HETATM    4  H   UNK N   1      21.482  16.768   1.546  0.00  0.00     0.163 HD
ENDROOT
BRANCH   2   5
HETATM    5  C   UNK N   1      21.093  19.294   2.007  0.00  0.00     0.236 C 
BRANCH   5   6
HETATM    6  C   UNK N   1      21.593  19.889   3.345  0.00  0.00     0.145 C 
BRANCH   6   7
HETATM    7  C   UNK N   1      23.108  19.768   3.456  0.00  0.00    -0.033 A 
HETATM    8  C   UNK N   1      23.660  18.784   4.291  0.00  0.00     0.010 A 
HETATM    9  C   UNK N   1      25.039  18.651   4.429  0.00  0.00     0.008 A 
HETATM   10  C   UNK N   1      25.905  19.495   3.728  0.00  0.00    -0.055 A 
HETATM   11  C   UNK N   1      25.365  20.476   2.876  0.00  0.00     0.008 A 
HETATM   12  C   UNK N   1      23.976  20.612   2.742  0.00  0.00     0.010 A 
BRANCH  10  13
HETATM   13  C   UNK N   1      27.394  19.308   3.892  0.00  0.00     0.010 C 
HETATM   14  C   UNK N   1      27.961  19.945   5.151  0.00  0.00     0.015 C 
HETATM   15  C   UNK N   1      27.759  17.833   3.876  0.00  0.00     0.015 C 
ENDBRANCH  10  13
ENDBRANCH   6   7
BRANCH   6  16
HETATM   16  N   UNK N   1      20.936  19.215   4.459  0.00  0.00    -0.420 N 
HETATM   17  H   UNK N   1      21.363  19.153   5.383  0.00  0.00     0.150 HD
HETATM   18  H   UNK N   1      20.020  18.791   4.310  0.00  0.00     0.150 HD
ENDBRANCH   6  16
ENDBRANCH   5   6
BRANCH   5  19
HETATM   19  O   UNK N   1      20.465  20.286   1.248  0.00  0.00    -0.384 OA
HETATM   20  H   UNK N   1      20.335  21.182   1.597  0.00  0.00     0.210 HD
ENDBRANCH   5  19
ENDBRANCH   2   5
BRANCH   3  21
HETATM   21  C   UNK N   1      19.938  15.667   2.424  0.00  0.00     0.172 C 
HETATM   22  C   UNK N   1      19.801  14.709   1.249  0.00  0.00     0.042 C 
BRANCH  21  23
HETATM   23  C   UNK N   1      20.774  15.083   3.543  0.00  0.00     0.240 C 
HETATM   24  O   UNK N   1      21.616  14.237   3.276  0.00  0.00    -0.271 OA
HETATM   25  N   UNK N   1      20.577  15.466   4.834  0.00  0.00    -0.345 N 
HETATM   26  H   UNK N   1      19.953  16.208   5.010  0.00  0.00     0.163 HD
BRANCH  25  27
HETATM   27  C   UNK N   1      21.235  14.838   5.970  0.00  0.00     0.184 C 
BRANCH  27  28
HETATM   28  C   UNK N   1      22.494  15.632   6.317  0.00  0.00     0.039 C 
BRANCH  28  29
HETATM   29  C   UNK N   1      23.741  14.761   6.264  0.00  0.00    -0.020 C 
HETATM   30  C   UNK N   1      24.994  15.606   6.158  0.00  0.00     0.009 C 
HETATM   31  C   UNK N   1      23.808  13.901   7.508  0.00  0.00     0.009 C 
ENDBRANCH  28  29
ENDBRANCH  27  28
BRANCH  27  32
HETATM   32  C   UNK N   1      20.316  14.799   7.184  0.00  0.00     0.281 C 
HETATM   33  O   UNK N   1      20.332  13.825   7.922  0.00  0.00    -0.263 OA
BRANCH  32  34
HETATM   34  O   UNK N   1      19.471  15.823   7.482  0.00  0.00    -0.325 OA
HETATM   35  C   UNK N   1      19.537  16.564   8.640  0.00  0.00     0.213 C 
ENDBRANCH  32  34
ENDBRANCH  27  32
ENDBRANCH  25  27
ENDBRANCH  21  23
ENDBRANCH   3  21
TORSDOF 13
ENDMDL
