REMARK  13 active torsions:
REMARK  status: ('A' for Active; 'I' for Inactive)
REMARK    1  A    between atoms: C_2  and  C_3 
REMARK       I    between atoms: C_2  and  N_16 
REMARK    2  A    between atoms: C_3  and  C_4 
REMARK    3  A    between atoms: C_3  and  O_15 
REMARK    4  A    between atoms: C_4  and  C_5 
REMARK    5  A    between atoms: C_4  and  N_14 
REMARK    6  A    between atoms: C_8  and  C_9 
REMARK    7  A    between atoms: N_16  and  C_17 
REMARK    8  A    between atoms: C_17  and  C_19 
REMARK       I    between atoms: C_19  and  N_21 
REMARK    9  A    between atoms: C_22  and  N_21 
REMARK   10  A    between atoms: C_22  and  C_23 
REMARK   11  A    between atoms: C_22  and  C_27 
REMARK   12  A    between atoms: C_23  and  C_24 
REMARK   13  A    between atoms: C_27  and  O_29 
ROOT
HETATM    1  O   UNK N   1      -1.407   2.852  -0.568  0.00  0.00    -0.271 OA
HETATM    2  C   UNK N   1      -1.101   1.724  -0.215  0.00  0.00     0.249 C 
HETATM    3  N   UNK N   1       0.152   1.451   0.242  0.00  0.00    -0.346 N 
HETATM    4  H   UNK N   1       0.292   0.587   0.693  0.00  0.00     0.163 HD
ENDROOT
BRANCH   2   5
HETATM    5  C   UNK N   1      -2.081   0.583  -0.361  0.00  0.00     0.236 C 
BRANCH   5   6
HETATM    6  C   UNK N   1      -3.342   0.696   0.529  0.00  0.00     0.145 C 
BRANCH   6   7
HETATM    7  C   UNK N   1      -4.207  -0.552   0.399  0.00  0.00    -0.033 A 
HETATM    8  C   UNK N   1      -3.689  -1.792   0.805  0.00  0.00     0.010 A 
HETATM    9  C   UNK N   1      -4.444  -2.957   0.690  0.00  0.00     0.008 A 
HETATM   10  C   UNK N   1      -5.741  -2.912   0.172  0.00  0.00    -0.055 A 
HETATM   11  C   UNK N   1      -6.277  -1.673  -0.224  0.00  0.00     0.008 A 
HETATM   12  C   UNK N   1      -5.515  -0.501  -0.112  0.00  0.00     0.010 A 
BRANCH  10  13
HETATM   13  C   UNK N   1      -6.532  -4.194   0.079  0.00  0.00     0.010 C 
HETATM   14  C   UNK N   1      -7.965  -4.002  -0.392  0.00  0.00     0.015 C 
HETATM   15  C   UNK N   1      -5.840  -5.192  -0.835  0.00  0.00     0.015 C 
ENDBRANCH  10  13
ENDBRANCH   6   7
BRANCH   6  16
HETATM   16  N   UNK N   1      -4.096   1.890   0.165  0.00  0.00    -0.420 N 
HETATM   17  H   UNK N   1      -3.637   2.764  -0.089  0.00  0.00     0.150 HD
HETATM   18  H   UNK N   1      -5.116   1.850   0.165  0.00  0.00     0.150 HD
ENDBRANCH   6  16
ENDBRANCH   5   6
BRANCH   5  19
HETATM   19  O   UNK N   1      -1.404  -0.608  -0.082  0.00  0.00    -0.384 OA
HETATM   20  H   UNK N   1      -1.885  -1.428   0.112  0.00  0.00     0.210 HD
ENDBRANCH   5  19
ENDBRANCH   2   5
BRANCH   3  21
HETATM   21  C   UNK N   1       1.294   2.328   0.117  0.00  0.00     0.172 C 
HETATM   22  C   UNK N   1       1.622   2.935   1.473  0.00  0.00     0.042 C 
BRANCH  21  23
HETATM   23  C   UNK N   1       2.430   1.485  -0.422  0.00  0.00     0.240 C 
HETATM   24  O   UNK N   1       2.270   0.872  -1.469  0.00  0.00    -0.271 OA
HETATM   25  N   UNK N   1       3.605   1.379   0.257  0.00  0.00    -0.345 N 
HETATM   26  H   UNK N   1       3.737   1.949   1.050  0.00  0.00     0.163 HD
BRANCH  25  27
HETATM   27  C   UNK N   1       4.676   0.471  -0.123  0.00  0.00     0.184 C 
BRANCH  27  28
HETATM   28  C   UNK N   1       5.963   0.896   0.582  0.00  0.00     0.039 C 
BRANCH  28  29
HETATM   29  C   UNK N   1       6.645   2.051  -0.138  0.00  0.00    -0.020 C 
HETATM   30  C   UNK N   1       6.054   3.382   0.280  0.00  0.00     0.009 C 
HETATM   31  C   UNK N   1       8.127   2.031   0.170  0.00  0.00     0.009 C 
ENDBRANCH  28  29
ENDBRANCH  27  28
BRANCH  27  32
HETATM   32  C   UNK N   1       4.342  -0.964   0.265  0.00  0.00     0.281 C 
HETATM   33  O   UNK N   1       3.260  -1.215   0.775  0.00  0.00    -0.263 OA
BRANCH  32  34
HETATM   34  O   UNK N   1       5.213  -1.988   0.059  0.00  0.00    -0.325 OA
HETATM   35  C   UNK N   1       6.475  -1.832  -0.467  0.00  0.00     0.213 C 
ENDBRANCH  32  34
ENDBRANCH  27  32
ENDBRANCH  25  27
ENDBRANCH  21  23
ENDBRANCH   3  21
TORSDOF 13
