MODEL 1
REMARK VINA RESULT:      -6.2      0.000      0.000
REMARK  8 active torsions:
REMARK  status: ('A' for Active; 'I' for Inactive)
REMARK    1  A    between atoms: C_1  and  C_22 
REMARK    2  A    between atoms: C_4  and  C_7 
REMARK    3  A    between atoms: C_7  and  C_8 
REMARK    4  A    between atoms: C_8  and  C_9 
REMARK    5  A    between atoms: C_9  and  N_11 
REMARK    6  A    between atoms: N_11  and  C_12 
REMARK    7  A    between atoms: C_12  and  C_13 
REMARK    8  A    between atoms: C_13  and  C_15 
REMARK       I    between atoms: C_22  and  N_23 
ROOT
HETATM    1  C   UNK N   1      25.744  24.360  -9.989  0.00  0.00     0.073 C 
HETATM    2  C   UNK N   1      27.193  23.911 -10.087  0.00  0.00     0.031 C 
ENDROOT
BRANCH   1   3
HETATM    3  C   UNK N   1      25.699  25.854  -9.674  0.00  0.00     0.029 C 
BRANCH   3   4
HETATM    4  C   UNK N   1      26.989  26.300  -8.988  0.00  0.00     0.040 C 
BRANCH   4   5
HETATM    5  C   UNK N   1      26.713  26.899  -7.639  0.00  0.00    -0.058 A 
HETATM    6  C   UNK N   1      25.461  26.718  -7.046  0.00  0.00     0.008 A 
HETATM    7  C   UNK N   1      25.196  27.260  -5.782  0.00  0.00     0.017 A 
HETATM    8  C   UNK N   1      26.183  27.996  -5.106  0.00  0.00     0.031 A 
HETATM    9  C   UNK N   1      27.436  28.174  -5.703  0.00  0.00     0.017 A 
HETATM   10  C   UNK N   1      27.701  27.624  -6.957  0.00  0.00     0.008 A 
BRANCH   8  11
HETATM   11  C   UNK N   1      25.910  28.579  -3.776  0.00  0.00     0.249 C 
HETATM   12  O   UNK N   1      25.540  27.862  -2.857  0.00  0.00    -0.268 OA
HETATM   13  N   UNK N   1      26.063  29.901  -3.565  0.00  0.00    -0.366 N 
HETATM   14  H   UNK N   1      26.035  30.266  -2.651  0.00  0.00     0.159 HD
HETATM   15  H   UNK N   1      26.202  30.506  -4.329  0.00  0.00     0.159 HD
ENDBRANCH   8  11
ENDBRANCH   4   5
ENDBRANCH   3   4
ENDBRANCH   1   3
BRANCH   1  16
HETATM   16  N   UNK N   1      25.061  23.626  -8.925  0.00  0.00    -0.411 N 
HETATM   17  H   UNK N   1      24.068  23.693  -8.703  0.00  0.00     0.154 HD
BRANCH  16  18
HETATM   18  C   UNK N   1      26.030  22.780  -8.232  0.00  0.00     0.198 C 
BRANCH  18  19
HETATM   19  C   UNK N   1      25.835  22.852  -6.750  0.00  0.00     0.176 C 
HETATM   20  O   UNK N   1      24.881  22.273  -6.252  0.00  0.00    -0.291 OA
BRANCH  19  21
HETATM   21  C   UNK N   1      26.794  23.578  -5.887  0.00  0.00     0.011 A 
HETATM   22  C   UNK N   1      26.392  24.066  -4.636  0.00  0.00     0.018 A 
HETATM   23  C   UNK N   1      27.301  24.749  -3.821  0.00  0.00     0.043 A 
HETATM   24  C   UNK N   1      28.615  24.950  -4.253  0.00  0.00     0.116 A 
HETATM   25  C   UNK N   1      29.022  24.466  -5.497  0.00  0.00     0.043 A 
HETATM   26  F   UNK N   1      29.494  25.612  -3.465  0.00  0.00    -0.206 F 
HETATM   27  C   UNK N   1      28.117  23.781  -6.309  0.00  0.00     0.018 A 
ENDBRANCH  19  21
ENDBRANCH  18  19
ENDBRANCH  16  18
ENDBRANCH   1  16
TORSDOF 8
ENDMDL
MODEL 2
REMARK VINA RESULT:      -5.6      3.330      5.454
REMARK  8 active torsions:
REMARK  status: ('A' for Active; 'I' for Inactive)
REMARK    1  A    between atoms: C_1  and  C_22 
REMARK    2  A    between atoms: C_4  and  C_7 
REMARK    3  A    between atoms: C_7  and  C_8 
REMARK    4  A    between atoms: C_8  and  C_9 
REMARK    5  A    between atoms: C_9  and  N_11 
REMARK    6  A    between atoms: N_11  and  C_12 
REMARK    7  A    between atoms: C_12  and  C_13 
REMARK    8  A    between atoms: C_13  and  C_15 
REMARK       I    between atoms: C_22  and  N_23 
ROOT
HETATM    1  C   UNK N   1      25.732  26.839  -4.835  0.00  0.00     0.073 C 
HETATM    2  C   UNK N   1      26.616  27.746  -5.675  0.00  0.00     0.031 C 
ENDROOT
BRANCH   1   3
HETATM    3  C   UNK N   1      26.606  26.015  -3.892  0.00  0.00     0.029 C 
BRANCH   3   4
HETATM    4  C   UNK N   1      28.085  26.327  -4.116  0.00  0.00     0.040 C 
BRANCH   4   5
HETATM    5  C   UNK N   1      28.948  25.135  -3.818  0.00  0.00    -0.058 A 
HETATM    6  C   UNK N   1      28.355  23.941  -3.397  0.00  0.00     0.008 A 
HETATM    7  C   UNK N   1      29.147  22.818  -3.129  0.00  0.00     0.017 A 
HETATM    8  C   UNK N   1      30.543  22.885  -3.274  0.00  0.00     0.031 A 
HETATM    9  C   UNK N   1      31.133  24.082  -3.696  0.00  0.00     0.017 A 
HETATM   10  C   UNK N   1      30.340  25.195  -3.973  0.00  0.00     0.008 A 
BRANCH   8  11
HETATM   11  C   UNK N   1      31.388  21.708  -2.984  0.00  0.00     0.249 C 
HETATM   12  O   UNK N   1      32.251  21.771  -2.120  0.00  0.00    -0.268 OA
HETATM   13  N   UNK N   1      31.217  20.559  -3.667  0.00  0.00    -0.366 N 
HETATM   14  H   UNK N   1      31.665  19.733  -3.373  0.00  0.00     0.159 HD
HETATM   15  H   UNK N   1      30.642  20.546  -4.466  0.00  0.00     0.159 HD
ENDBRANCH   8  11
ENDBRANCH   4   5
ENDBRANCH   3   4
ENDBRANCH   1   3
BRANCH   1  16
HETATM   16  N   UNK N   1      24.976  25.933  -5.698  0.00  0.00    -0.411 N 
HETATM   17  H   UNK N   1      24.085  25.497  -5.462  0.00  0.00     0.154 HD
BRANCH  16  18
HETATM   18  C   UNK N   1      25.702  25.755  -6.954  0.00  0.00     0.198 C 
BRANCH  18  19
HETATM   19  C   UNK N   1      26.025  24.311  -7.182  0.00  0.00     0.176 C 
HETATM   20  O   UNK N   1      25.118  23.540  -7.453  0.00  0.00    -0.291 OA
BRANCH  19  21
HETATM   21  C   UNK N   1      27.421  23.822  -7.118  0.00  0.00     0.011 A 
HETATM   22  C   UNK N   1      28.486  24.680  -7.427  0.00  0.00     0.018 A 
HETATM   23  C   UNK N   1      29.805  24.218  -7.362  0.00  0.00     0.043 A 
HETATM   24  C   UNK N   1      30.065  22.895  -6.991  0.00  0.00     0.116 A 
HETATM   25  C   UNK N   1      29.010  22.036  -6.682  0.00  0.00     0.043 A 
HETATM   26  F   UNK N   1      31.341  22.447  -6.930  0.00  0.00    -0.206 F 
HETATM   27  C   UNK N   1      27.694  22.498  -6.742  0.00  0.00     0.018 A 
ENDBRANCH  19  21
ENDBRANCH  18  19
ENDBRANCH  16  18
ENDBRANCH   1  16
TORSDOF 8
ENDMDL
MODEL 3
REMARK VINA RESULT:      -5.6      3.306      5.823
REMARK  8 active torsions:
REMARK  status: ('A' for Active; 'I' for Inactive)
REMARK    1  A    between atoms: C_1  and  C_22 
REMARK    2  A    between atoms: C_4  and  C_7 
REMARK    3  A    between atoms: C_7  and  C_8 
REMARK    4  A    between atoms: C_8  and  C_9 
REMARK    5  A    between atoms: C_9  and  N_11 
REMARK    6  A    between atoms: N_11  and  C_12 
REMARK    7  A    between atoms: C_12  and  C_13 
REMARK    8  A    between atoms: C_13  and  C_15 
REMARK       I    between atoms: C_22  and  N_23 
ROOT
HETATM    1  C   UNK N   1      29.179  29.423  -5.892  0.00  0.00     0.073 C 
HETATM    2  C   UNK N   1      28.069  29.126  -6.887  0.00  0.00     0.031 C 
ENDROOT
BRANCH   1   3
HETATM    3  C   UNK N   1      30.247  28.336  -5.989  0.00  0.00     0.029 C 
BRANCH   3   4
HETATM    4  C   UNK N   1      29.633  27.015  -6.447  0.00  0.00     0.040 C 
BRANCH   4   5
HETATM    5  C   UNK N   1      29.905  25.913  -5.464  0.00  0.00    -0.058 A 
HETATM    6  C   UNK N   1      30.442  26.223  -4.210  0.00  0.00     0.008 A 
HETATM    7  C   UNK N   1      30.688  25.207  -3.280  0.00  0.00     0.017 A 
HETATM    8  C   UNK N   1      30.405  23.869  -3.601  0.00  0.00     0.031 A 
HETATM    9  C   UNK N   1      29.868  23.563  -4.856  0.00  0.00     0.017 A 
HETATM   10  C   UNK N   1      29.613  24.578  -5.777  0.00  0.00     0.008 A 
BRANCH   8  11
HETATM   11  C   UNK N   1      30.671  22.788  -2.628  0.00  0.00     0.249 C 
HETATM   12  O   UNK N   1      30.437  22.963  -1.441  0.00  0.00    -0.268 OA
HETATM   13  N   UNK N   1      31.172  21.607  -3.038  0.00  0.00    -0.366 N 
HETATM   14  H   UNK N   1      31.201  20.838  -2.424  0.00  0.00     0.159 HD
HETATM   15  H   UNK N   1      31.511  21.512  -3.958  0.00  0.00     0.159 HD
ENDBRANCH   8  11
ENDBRANCH   4   5
ENDBRANCH   3   4
ENDBRANCH   1   3
BRANCH   1  16
HETATM   16  N   UNK N   1      28.643  29.447  -4.533  0.00  0.00    -0.411 N 
HETATM   17  H   UNK N   1      29.189  29.594  -3.684  0.00  0.00     0.154 HD
BRANCH  16  18
HETATM   18  C   UNK N   1      27.199  29.228  -4.586  0.00  0.00     0.198 C 
BRANCH  18  19
HETATM   19  C   UNK N   1      26.797  28.104  -3.683  0.00  0.00     0.176 C 
HETATM   20  O   UNK N   1      26.711  28.315  -2.483  0.00  0.00    -0.291 OA
BRANCH  19  21
HETATM   21  C   UNK N   1      26.473  26.767  -4.227  0.00  0.00     0.011 A 
HETATM   22  C   UNK N   1      26.712  25.615  -3.464  0.00  0.00     0.018 A 
HETATM   23  C   UNK N   1      26.401  24.352  -3.978  0.00  0.00     0.043 A 
HETATM   24  C   UNK N   1      25.853  24.233  -5.259  0.00  0.00     0.116 A 
HETATM   25  C   UNK N   1      25.611  25.375  -6.023  0.00  0.00     0.043 A 
HETATM   26  F   UNK N   1      25.554  23.010  -5.757  0.00  0.00    -0.206 F 
HETATM   27  C   UNK N   1      25.917  26.636  -5.509  0.00  0.00     0.018 A 
ENDBRANCH  19  21
ENDBRANCH  18  19
ENDBRANCH  16  18
ENDBRANCH   1  16
TORSDOF 8
ENDMDL
MODEL 4
REMARK VINA RESULT:      -5.6     15.059     17.430
REMARK  8 active torsions:
REMARK  status: ('A' for Active; 'I' for Inactive)
REMARK    1  A    between atoms: C_1  and  C_22 
REMARK    2  A    between atoms: C_4  and  C_7 
REMARK    3  A    between atoms: C_7  and  C_8 
REMARK    4  A    between atoms: C_8  and  C_9 
REMARK    5  A    between atoms: C_9  and  N_11 
REMARK    6  A    between atoms: N_11  and  C_12 
REMARK    7  A    between atoms: C_12  and  C_13 
REMARK    8  A    between atoms: C_13  and  C_15 
REMARK       I    between atoms: C_22  and  N_23 
ROOT
HETATM    1  C   UNK N   1      29.604  17.256   4.268  0.00  0.00     0.073 C 
HETATM    2  C   UNK N   1      28.630  16.201   4.765  0.00  0.00     0.031 C 
ENDROOT
BRANCH   1   3
HETATM    3  C   UNK N   1      30.857  17.237   5.140  0.00  0.00     0.029 C 
BRANCH   3   4
HETATM    4  C   UNK N   1      30.757  16.145   6.204  0.00  0.00     0.040 C 
BRANCH   4   5
HETATM    5  C   UNK N   1      31.824  16.300   7.250  0.00  0.00    -0.058 A 
HETATM    6  C   UNK N   1      32.676  17.408   7.209  0.00  0.00     0.008 A 
HETATM    7  C   UNK N   1      33.665  17.570   8.186  0.00  0.00     0.017 A 
HETATM    8  C   UNK N   1      33.814  16.619   9.209  0.00  0.00     0.031 A 
HETATM    9  C   UNK N   1      32.959  15.511   9.246  0.00  0.00     0.017 A 
HETATM   10  C   UNK N   1      31.967  15.358   8.279  0.00  0.00     0.008 A 
BRANCH   8  11
HETATM   11  C   UNK N   1      34.862  16.778  10.239  0.00  0.00     0.249 C 
HETATM   12  O   UNK N   1      35.666  17.695  10.158  0.00  0.00    -0.268 OA
HETATM   13  N   UNK N   1      34.942  15.916  11.272  0.00  0.00    -0.366 N 
HETATM   14  H   UNK N   1      35.531  16.108  12.036  0.00  0.00     0.159 HD
HETATM   15  H   UNK N   1      34.407  15.089  11.262  0.00  0.00     0.159 HD
ENDBRANCH   8  11
ENDBRANCH   4   5
ENDBRANCH   3   4
ENDBRANCH   1   3
BRANCH   1  16
HETATM   16  N   UNK N   1      28.991  18.581   4.341  0.00  0.00    -0.411 N 
HETATM   17  H   UNK N   1      29.346  19.423   3.889  0.00  0.00     0.154 HD
BRANCH  16  18
HETATM   18  C   UNK N   1      27.787  18.504   5.167  0.00  0.00     0.198 C 
BRANCH  18  19
HETATM   19  C   UNK N   1      27.971  19.256   6.448  0.00  0.00     0.176 C 
HETATM   20  O   UNK N   1      27.748  20.457   6.463  0.00  0.00    -0.291 OA
BRANCH  19  21
HETATM   21  C   UNK N   1      28.380  18.561   7.689  0.00  0.00     0.011 A 
HETATM   22  C   UNK N   1      29.511  18.989   8.399  0.00  0.00     0.018 A 
HETATM   23  C   UNK N   1      29.895  18.334   9.574  0.00  0.00     0.043 A 
HETATM   24  C   UNK N   1      29.152  17.247  10.044  0.00  0.00     0.116 A 
HETATM   25  C   UNK N   1      28.025  16.816   9.342  0.00  0.00     0.043 A 
HETATM   26  F   UNK N   1      29.525  16.612  11.180  0.00  0.00    -0.206 F 
HETATM   27  C   UNK N   1      27.640  17.472   8.172  0.00  0.00     0.018 A 
ENDBRANCH  19  21
ENDBRANCH  18  19
ENDBRANCH  16  18
ENDBRANCH   1  16
TORSDOF 8
ENDMDL
MODEL 5
REMARK VINA RESULT:      -5.6      1.388      2.129
REMARK  8 active torsions:
REMARK  status: ('A' for Active; 'I' for Inactive)
REMARK    1  A    between atoms: C_1  and  C_22 
REMARK    2  A    between atoms: C_4  and  C_7 
REMARK    3  A    between atoms: C_7  and  C_8 
REMARK    4  A    between atoms: C_8  and  C_9 
REMARK    5  A    between atoms: C_9  and  N_11 
REMARK    6  A    between atoms: N_11  and  C_12 
REMARK    7  A    between atoms: C_12  and  C_13 
REMARK    8  A    between atoms: C_13  and  C_15 
REMARK       I    between atoms: C_22  and  N_23 
ROOT
HETATM    1  C   UNK N   1      28.791  24.471  -9.950  0.00  0.00     0.073 C 
HETATM    2  C   UNK N   1      30.136  23.815  -9.683  0.00  0.00     0.031 C 
ENDROOT
BRANCH   1   3
HETATM    3  C   UNK N   1      28.566  25.592  -8.937  0.00  0.00     0.029 C 
BRANCH   3   4
HETATM    4  C   UNK N   1      27.079  25.927  -8.825  0.00  0.00     0.040 C 
BRANCH   4   5
HETATM    5  C   UNK N   1      26.766  26.599  -7.520  0.00  0.00    -0.058 A 
HETATM    6  C   UNK N   1      27.788  27.232  -6.806  0.00  0.00     0.008 A 
HETATM    7  C   UNK N   1      27.506  27.873  -5.594  0.00  0.00     0.017 A 
HETATM    8  C   UNK N   1      26.198  27.880  -5.083  0.00  0.00     0.031 A 
HETATM    9  C   UNK N   1      25.178  27.245  -5.801  0.00  0.00     0.017 A 
HETATM   10  C   UNK N   1      25.459  26.617  -7.013  0.00  0.00     0.008 A 
BRANCH   8  11
HETATM   11  C   UNK N   1      25.893  28.547  -3.800  0.00  0.00     0.249 C 
HETATM   12  O   UNK N   1      25.474  27.894  -2.855  0.00  0.00    -0.268 OA
HETATM   13  N   UNK N   1      26.072  29.875  -3.660  0.00  0.00    -0.366 N 
HETATM   14  H   UNK N   1      26.022  30.293  -2.771  0.00  0.00     0.159 HD
HETATM   15  H   UNK N   1      26.254  30.430  -4.453  0.00  0.00     0.159 HD
ENDBRANCH   8  11
ENDBRANCH   4   5
ENDBRANCH   3   4
ENDBRANCH   1   3
BRANCH   1  16
HETATM   16  N   UNK N   1      27.717  23.488  -9.822  0.00  0.00    -0.411 N 
HETATM   17  H   UNK N   1      26.805  23.545 -10.275  0.00  0.00     0.154 HD
BRANCH  16  18
HETATM   18  C   UNK N   1      28.161  22.409  -8.942  0.00  0.00     0.198 C 
BRANCH  18  19
HETATM   19  C   UNK N   1      27.141  22.131  -7.883  0.00  0.00     0.176 C 
HETATM   20  O   UNK N   1      26.344  21.223  -8.057  0.00  0.00    -0.291 OA
BRANCH  19  21
HETATM   21  C   UNK N   1      27.113  22.914  -6.627  0.00  0.00     0.011 A 
HETATM   22  C   UNK N   1      28.306  23.369  -6.049  0.00  0.00     0.018 A 
HETATM   23  C   UNK N   1      28.278  24.112  -4.864  0.00  0.00     0.043 A 
HETATM   24  C   UNK N   1      27.056  24.400  -4.248  0.00  0.00     0.116 A 
HETATM   25  C   UNK N   1      25.864  23.950  -4.818  0.00  0.00     0.043 A 
HETATM   26  F   UNK N   1      27.028  25.117  -3.101  0.00  0.00    -0.206 F 
HETATM   27  C   UNK N   1      25.892  23.213  -6.003  0.00  0.00     0.018 A 
ENDBRANCH  19  21
ENDBRANCH  18  19
ENDBRANCH  16  18
ENDBRANCH   1  16
TORSDOF 8
ENDMDL
MODEL 6
REMARK VINA RESULT:      -5.5     12.961     15.227
REMARK  8 active torsions:
REMARK  status: ('A' for Active; 'I' for Inactive)
REMARK    1  A    between atoms: C_1  and  C_22 
REMARK    2  A    between atoms: C_4  and  C_7 
REMARK    3  A    between atoms: C_7  and  C_8 
REMARK    4  A    between atoms: C_8  and  C_9 
REMARK    5  A    between atoms: C_9  and  N_11 
REMARK    6  A    between atoms: N_11  and  C_12 
REMARK    7  A    between atoms: C_12  and  C_13 
REMARK    8  A    between atoms: C_13  and  C_15 
REMARK       I    between atoms: C_22  and  N_23 
ROOT
HETATM    1  C   UNK N   1      29.551  14.650   3.534  0.00  0.00     0.073 C 
HETATM    2  C   UNK N   1      29.193  14.321   4.974  0.00  0.00     0.031 C 
ENDROOT
BRANCH   1   3
HETATM    3  C   UNK N   1      30.859  15.438   3.507  0.00  0.00     0.029 C 
BRANCH   3   4
HETATM    4  C   UNK N   1      30.645  16.857   4.031  0.00  0.00     0.040 C 
BRANCH   4   5
HETATM    5  C   UNK N   1      31.582  17.170   5.161  0.00  0.00    -0.058 A 
HETATM    6  C   UNK N   1      31.093  17.229   6.470  0.00  0.00     0.008 A 
HETATM    7  C   UNK N   1      31.960  17.507   7.533  0.00  0.00     0.017 A 
HETATM    8  C   UNK N   1      33.325  17.736   7.293  0.00  0.00     0.031 A 
HETATM    9  C   UNK N   1      33.811  17.676   5.983  0.00  0.00     0.017 A 
HETATM   10  C   UNK N   1      32.948  17.388   4.926  0.00  0.00     0.008 A 
BRANCH   8  11
HETATM   11  C   UNK N   1      34.245  18.038   8.409  0.00  0.00     0.249 C 
HETATM   12  O   UNK N   1      34.992  19.004   8.342  0.00  0.00    -0.268 OA
HETATM   13  N   UNK N   1      34.271  17.256   9.506  0.00  0.00    -0.366 N 
HETATM   14  H   UNK N   1      34.763  17.541  10.309  0.00  0.00     0.159 HD
HETATM   15  H   UNK N   1      33.796  16.393   9.503  0.00  0.00     0.159 HD
ENDBRANCH   8  11
ENDBRANCH   4   5
ENDBRANCH   3   4
ENDBRANCH   1   3
BRANCH   1  16
HETATM   16  N   UNK N   1      28.495  15.456   2.925  0.00  0.00    -0.411 N 
HETATM   17  H   UNK N   1      28.520  15.854   1.986  0.00  0.00     0.154 HD
BRANCH  16  18
HETATM   18  C   UNK N   1      27.395  15.599   3.877  0.00  0.00     0.198 C 
BRANCH  18  19
HETATM   19  C   UNK N   1      26.636  16.865   3.629  0.00  0.00     0.176 C 
HETATM   20  O   UNK N   1      25.715  16.852   2.827  0.00  0.00    -0.291 OA
BRANCH  19  21
HETATM   21  C   UNK N   1      26.964  18.108   4.362  0.00  0.00     0.011 A 
HETATM   22  C   UNK N   1      26.657  19.359   3.808  0.00  0.00     0.018 A 
HETATM   23  C   UNK N   1      26.964  20.533   4.503  0.00  0.00     0.043 A 
HETATM   24  C   UNK N   1      27.582  20.463   5.756  0.00  0.00     0.116 A 
HETATM   25  C   UNK N   1      27.889  19.222   6.314  0.00  0.00     0.043 A 
HETATM   26  F   UNK N   1      27.880  21.599   6.428  0.00  0.00    -0.206 F 
HETATM   27  C   UNK N   1      27.579  18.050   5.622  0.00  0.00     0.018 A 
ENDBRANCH  19  21
ENDBRANCH  18  19
ENDBRANCH  16  18
ENDBRANCH   1  16
TORSDOF 8
ENDMDL
MODEL 7
REMARK VINA RESULT:      -5.3      2.538      6.306
REMARK  8 active torsions:
REMARK  status: ('A' for Active; 'I' for Inactive)
REMARK    1  A    between atoms: C_1  and  C_22 
REMARK    2  A    between atoms: C_4  and  C_7 
REMARK    3  A    between atoms: C_7  and  C_8 
REMARK    4  A    between atoms: C_8  and  C_9 
REMARK    5  A    between atoms: C_9  and  N_11 
REMARK    6  A    between atoms: N_11  and  C_12 
REMARK    7  A    between atoms: C_12  and  C_13 
REMARK    8  A    between atoms: C_13  and  C_15 
REMARK       I    between atoms: C_22  and  N_23 
ROOT
HETATM    1  C   UNK N   1      31.637  27.824  -3.847  0.00  0.00     0.073 C 
HETATM    2  C   UNK N   1      31.680  28.971  -4.844  0.00  0.00     0.031 C 
ENDROOT
BRANCH   1   3
HETATM    3  C   UNK N   1      31.115  26.569  -4.544  0.00  0.00     0.029 C 
BRANCH   3   4
HETATM    4  C   UNK N   1      30.122  25.829  -3.650  0.00  0.00     0.040 C 
BRANCH   4   5
HETATM    5  C   UNK N   1      28.998  25.238  -4.452  0.00  0.00    -0.058 A 
HETATM    6  C   UNK N   1      27.898  24.680  -3.794  0.00  0.00     0.008 A 
HETATM    7  C   UNK N   1      26.839  24.137  -4.531  0.00  0.00     0.017 A 
HETATM    8  C   UNK N   1      26.876  24.144  -5.935  0.00  0.00     0.031 A 
HETATM    9  C   UNK N   1      27.978  24.704  -6.590  0.00  0.00     0.017 A 
HETATM   10  C   UNK N   1      29.027  25.253  -5.854  0.00  0.00     0.008 A 
BRANCH   8  11
HETATM   11  C   UNK N   1      25.766  23.565  -6.720  0.00  0.00     0.249 C 
HETATM   12  O   UNK N   1      25.163  22.588  -6.301  0.00  0.00    -0.268 OA
HETATM   13  N   UNK N   1      25.410  24.106  -7.902  0.00  0.00    -0.366 N 
HETATM   14  H   UNK N   1      24.579  23.825  -8.348  0.00  0.00     0.159 HD
HETATM   15  H   UNK N   1      25.985  24.786  -8.322  0.00  0.00     0.159 HD
ENDBRANCH   8  11
ENDBRANCH   4   5
ENDBRANCH   3   4
ENDBRANCH   1   3
BRANCH   1  16
HETATM   16  N   UNK N   1      30.749  28.157  -2.735  0.00  0.00    -0.411 N 
HETATM   17  H   UNK N   1      30.636  27.608  -1.883  0.00  0.00     0.154 HD
BRANCH  16  18
HETATM   18  C   UNK N   1      30.050  29.404  -3.040  0.00  0.00     0.198 C 
BRANCH  18  19
HETATM   19  C   UNK N   1      28.592  29.288  -2.724  0.00  0.00     0.176 C 
HETATM   20  O   UNK N   1      28.187  29.707  -1.651  0.00  0.00    -0.291 OA
BRANCH  19  21
HETATM   21  C   UNK N   1      27.642  28.712  -3.703  0.00  0.00     0.011 A 
HETATM   22  C   UNK N   1      26.460  28.099  -3.264  0.00  0.00     0.018 A 
HETATM   23  C   UNK N   1      25.561  27.558  -4.190  0.00  0.00     0.043 A 
HETATM   24  C   UNK N   1      25.841  27.625  -5.558  0.00  0.00     0.116 A 
HETATM   25  C   UNK N   1      27.016  28.235  -6.001  0.00  0.00     0.043 A 
HETATM   26  F   UNK N   1      24.972  27.100  -6.454  0.00  0.00    -0.206 F 
HETATM   27  C   UNK N   1      27.910  28.778  -5.078  0.00  0.00     0.018 A 
ENDBRANCH  19  21
ENDBRANCH  18  19
ENDBRANCH  16  18
ENDBRANCH   1  16
TORSDOF 8
ENDMDL
MODEL 8
REMARK VINA RESULT:      -5.3     15.997     18.215
REMARK  8 active torsions:
REMARK  status: ('A' for Active; 'I' for Inactive)
REMARK    1  A    between atoms: C_1  and  C_22 
REMARK    2  A    between atoms: C_4  and  C_7 
REMARK    3  A    between atoms: C_7  and  C_8 
REMARK    4  A    between atoms: C_8  and  C_9 
REMARK    5  A    between atoms: C_9  and  N_11 
REMARK    6  A    between atoms: N_11  and  C_12 
REMARK    7  A    between atoms: C_12  and  C_13 
REMARK    8  A    between atoms: C_13  and  C_15 
REMARK       I    between atoms: C_22  and  N_23 
ROOT
HETATM    1  C   UNK N   1      32.475  13.072   3.910  0.00  0.00     0.073 C 
HETATM    2  C   UNK N   1      31.055  13.095   4.450  0.00  0.00     0.031 C 
ENDROOT
BRANCH   1   3
HETATM    3  C   UNK N   1      33.457  13.273   5.063  0.00  0.00     0.029 C 
BRANCH   3   4
HETATM    4  C   UNK N   1      32.749  13.115   6.408  0.00  0.00     0.040 C 
BRANCH   4   5
HETATM    5  C   UNK N   1      33.418  13.928   7.478  0.00  0.00    -0.058 A 
HETATM    6  C   UNK N   1      32.750  14.169   8.682  0.00  0.00     0.008 A 
HETATM    7  C   UNK N   1      33.370  14.915   9.693  0.00  0.00     0.017 A 
HETATM    8  C   UNK N   1      34.662  15.432   9.501  0.00  0.00     0.031 A 
HETATM    9  C   UNK N   1      35.327  15.188   8.294  0.00  0.00     0.017 A 
HETATM   10  C   UNK N   1      34.712  14.435   7.294  0.00  0.00     0.008 A 
BRANCH   8  11
HETATM   11  C   UNK N   1      35.319  16.227  10.559  0.00  0.00     0.249 C 
HETATM   12  O   UNK N   1      35.597  17.401  10.359  0.00  0.00    -0.268 OA
HETATM   13  N   UNK N   1      35.618  15.669  11.748  0.00  0.00    -0.366 N 
HETATM   14  H   UNK N   1      35.908  16.230  12.503  0.00  0.00     0.159 HD
HETATM   15  H   UNK N   1      35.546  14.694  11.863  0.00  0.00     0.159 HD
ENDBRANCH   8  11
ENDBRANCH   4   5
ENDBRANCH   3   4
ENDBRANCH   1   3
BRANCH   1  16
HETATM   16  N   UNK N   1      32.660  14.144   2.933  0.00  0.00    -0.411 N 
HETATM   17  H   UNK N   1      32.199  14.204   2.025  0.00  0.00     0.154 HD
BRANCH  16  18
HETATM   18  C   UNK N   1      33.611  15.117   3.468  0.00  0.00     0.198 C 
BRANCH  18  19
HETATM   19  C   UNK N   1      32.938  16.425   3.742  0.00  0.00     0.176 C 
HETATM   20  O   UNK N   1      32.589  17.117   2.798  0.00  0.00    -0.291 OA
BRANCH  19  21
HETATM   21  C   UNK N   1      32.663  16.867   5.128  0.00  0.00     0.011 A 
HETATM   22  C   UNK N   1      31.414  16.619   5.714  0.00  0.00     0.018 A 
HETATM   23  C   UNK N   1      31.156  17.034   7.025  0.00  0.00     0.043 A 
HETATM   24  C   UNK N   1      32.145  17.700   7.755  0.00  0.00     0.116 A 
HETATM   25  C   UNK N   1      33.390  17.949   7.177  0.00  0.00     0.043 A 
HETATM   26  F   UNK N   1      31.895  18.103   9.023  0.00  0.00    -0.206 F 
HETATM   27  C   UNK N   1      33.649  17.532   5.871  0.00  0.00     0.018 A 
ENDBRANCH  19  21
ENDBRANCH  18  19
ENDBRANCH  16  18
ENDBRANCH   1  16
TORSDOF 8
ENDMDL
MODEL 9
REMARK VINA RESULT:      -5.3      2.205      5.723
REMARK  8 active torsions:
REMARK  status: ('A' for Active; 'I' for Inactive)
REMARK    1  A    between atoms: C_1  and  C_22 
REMARK    2  A    between atoms: C_4  and  C_7 
REMARK    3  A    between atoms: C_7  and  C_8 
REMARK    4  A    between atoms: C_8  and  C_9 
REMARK    5  A    between atoms: C_9  and  N_11 
REMARK    6  A    between atoms: N_11  and  C_12 
REMARK    7  A    between atoms: C_12  and  C_13 
REMARK    8  A    between atoms: C_13  and  C_15 
REMARK       I    between atoms: C_22  and  N_23 
ROOT
HETATM    1  C   UNK N   1      27.184  29.166  -3.941  0.00  0.00     0.073 C 
HETATM    2  C   UNK N   1      26.946  30.485  -3.225  0.00  0.00     0.031 C 
ENDROOT
BRANCH   1   3
HETATM    3  C   UNK N   1      25.878  28.375  -3.990  0.00  0.00     0.029 C 
BRANCH   3   4
HETATM    4  C   UNK N   1      26.111  26.923  -3.574  0.00  0.00     0.040 C 
BRANCH   4   5
HETATM    5  C   UNK N   1      25.994  25.993  -4.746  0.00  0.00    -0.058 A 
HETATM    6  C   UNK N   1      25.869  24.618  -4.527  0.00  0.00     0.008 A 
HETATM    7  C   UNK N   1      25.747  23.741  -5.612  0.00  0.00     0.017 A 
HETATM    8  C   UNK N   1      25.756  24.235  -6.927  0.00  0.00     0.031 A 
HETATM    9  C   UNK N   1      25.882  25.613  -7.142  0.00  0.00     0.017 A 
HETATM   10  C   UNK N   1      25.992  26.484  -6.059  0.00  0.00     0.008 A 
BRANCH   8  11
HETATM   11  C   UNK N   1      25.637  23.316  -8.078  0.00  0.00     0.249 C 
HETATM   12  O   UNK N   1      24.536  22.918  -8.431  0.00  0.00    -0.268 OA
HETATM   13  N   UNK N   1      26.734  22.910  -8.746  0.00  0.00    -0.366 N 
HETATM   14  H   UNK N   1      26.648  22.430  -9.600  0.00  0.00     0.159 HD
HETATM   15  H   UNK N   1      27.628  23.094  -8.376  0.00  0.00     0.159 HD
ENDBRANCH   8  11
ENDBRANCH   4   5
ENDBRANCH   3   4
ENDBRANCH   1   3
BRANCH   1  16
HETATM   16  N   UNK N   1      28.191  28.382  -3.229  0.00  0.00    -0.411 N 
HETATM   17  H   UNK N   1      28.086  27.995  -2.290  0.00  0.00     0.154 HD
BRANCH  16  18
HETATM   18  C   UNK N   1      29.372  28.239  -4.078  0.00  0.00     0.198 C 
BRANCH  18  19
HETATM   19  C   UNK N   1      30.124  26.990  -3.739  0.00  0.00     0.176 C 
HETATM   20  O   UNK N   1      31.007  27.045  -2.897  0.00  0.00    -0.291 OA
BRANCH  19  21
HETATM   21  C   UNK N   1      29.788  25.699  -4.380  0.00  0.00     0.011 A 
HETATM   22  C   UNK N   1      29.665  25.612  -5.774  0.00  0.00     0.018 A 
HETATM   23  C   UNK N   1      29.352  24.390  -6.379  0.00  0.00     0.043 A 
HETATM   24  C   UNK N   1      29.158  23.250  -5.594  0.00  0.00     0.116 A 
HETATM   25  C   UNK N   1      29.279  23.329  -4.206  0.00  0.00     0.043 A 
HETATM   26  F   UNK N   1      28.853  22.068  -6.179  0.00  0.00    -0.206 F 
HETATM   27  C   UNK N   1      29.596  24.547  -3.602  0.00  0.00     0.018 A 
ENDBRANCH  19  21
ENDBRANCH  18  19
ENDBRANCH  16  18
ENDBRANCH   1  16
TORSDOF 8
ENDMDL
