MODEL 1
REMARK VINA RESULT:      -6.8      0.000      0.000
REMARK  5 active torsions:
REMARK  status: ('A' for Active; 'I' for Inactive)
REMARK    1  A    between atoms: C_4  and  C_5 
REMARK    2  A    between atoms: C_9  and  N_15 
REMARK    3  A    between atoms: N_12  and  S_20 
REMARK    4  A    between atoms: C_14  and  S_20 
REMARK    5  A    between atoms: N_15  and  C_18 
ROOT
HETATM    1  C   UNK N   1      35.217  15.187   8.412  0.00  0.00     0.027 A 
HETATM    2  C   UNK N   1      34.740  16.456   8.776  0.00  0.00     0.079 A 
HETATM    3  C   UNK N   1      35.051  16.982  10.031  0.00  0.00     0.027 A 
HETATM    4  C   UNK N   1      35.798  16.234  10.930  0.00  0.00     0.031 A 
HETATM    5  C   UNK N   1      36.256  14.951  10.590  0.00  0.00     0.034 A 
HETATM    6  C   UNK N   1      35.982  14.437   9.317  0.00  0.00     0.031 A 
ENDROOT
BRANCH   5   7
HETATM    7  N   UNK N   1      37.012  14.193  11.526  0.00  0.00    -0.337 N 
HETATM    8  H   UNK N   1      37.939  13.943  11.313  0.00  0.00     0.168 HD
BRANCH   7   9
HETATM    9  C   UNK N   1      36.444  13.792  12.762  0.00  0.00     0.149 A 
HETATM   10  S   UNK N   1      35.274  12.650  12.970  0.00  0.00    -0.057 SA
HETATM   11  C   UNK N   1      35.273  12.668  14.630  0.00  0.00     0.005 A 
HETATM   12  C   UNK N   1      36.224  13.627  15.019  0.00  0.00     0.105 A 
HETATM   13  N   UNK N   1      36.870  14.241  13.971  0.00  0.00    -0.345 N 
ATOM     14  HN  UNK N   1      37.590  14.955  14.090  1.00  0.00     0.167 HD
BRANCH  11  15
HETATM   15  C   UNK N   1      34.472  11.778  15.532  0.00  0.00     0.019 C 
HETATM   16  C   UNK N   1      33.647  10.767  14.751  0.00  0.00     0.015 C 
HETATM   17  C   UNK N   1      35.376  11.045  16.501  0.00  0.00     0.015 C 
ENDBRANCH  11  15
ENDBRANCH   7   9
ENDBRANCH   5   7
BRANCH   2  18
HETATM   18  S   UNK N   1      33.735  17.420   7.650  0.00  0.00     0.256 S 
HETATM   19  O   UNK N   1      34.320  18.016   6.361  0.00  0.00    -0.201 OA
HETATM   20  O   UNK N   1      32.595  18.333   8.120  0.00  0.00    -0.201 OA
BRANCH  18  21
HETATM   21  N   UNK N   1      34.736  18.660   8.417  0.00  0.00    -0.324 N 
HETATM   22  H   UNK N   1      35.445  18.968   9.082  0.00  0.00     0.169 HD
HETATM   23  H   UNK N   1      34.458  19.521   7.945  0.00  0.00     0.169 HD
ENDBRANCH  18  21
ENDBRANCH   2  18
TORSDOF 5
ENDMDL
MODEL 2
REMARK VINA RESULT:      -6.0      5.941      8.475
REMARK  5 active torsions:
REMARK  status: ('A' for Active; 'I' for Inactive)
REMARK    1  A    between atoms: C_4  and  C_5 
REMARK    2  A    between atoms: C_9  and  N_15 
REMARK    3  A    between atoms: N_12  and  S_20 
REMARK    4  A    between atoms: C_14  and  S_20 
REMARK    5  A    between atoms: N_15  and  C_18 
ROOT
HETATM    1  C   UNK N   1      36.081  11.273  16.442  0.00  0.00     0.027 A 
HETATM    2  C   UNK N   1      35.665  12.593  16.208  0.00  0.00     0.079 A 
HETATM    3  C   UNK N   1      35.238  13.387  17.273  0.00  0.00     0.027 A 
HETATM    4  C   UNK N   1      35.188  12.857  18.556  0.00  0.00     0.031 A 
HETATM    5  C   UNK N   1      35.572  11.529  18.799  0.00  0.00     0.034 A 
HETATM    6  C   UNK N   1      36.041  10.743  17.740  0.00  0.00     0.031 A 
ENDROOT
BRANCH   5   7
HETATM    7  N   UNK N   1      35.505  10.998  20.117  0.00  0.00    -0.337 N 
HETATM    8  H   UNK N   1      36.301  11.031  20.695  0.00  0.00     0.168 HD
BRANCH   7   9
HETATM    9  C   UNK N   1      34.306  10.421  20.606  0.00  0.00     0.149 A 
HETATM   10  S   UNK N   1      33.604   9.032  20.063  0.00  0.00    -0.057 SA
HETATM   11  C   UNK N   1      32.388   8.971  21.193  0.00  0.00     0.005 A 
HETATM   12  C   UNK N   1      32.546  10.104  22.011  0.00  0.00     0.105 A 
HETATM   13  N   UNK N   1      33.618  10.898  21.676  0.00  0.00    -0.345 N 
ATOM     14  HN  UNK N   1      33.869  11.752  22.176  1.00  0.00     0.167 HD
BRANCH  11  15
HETATM   15  C   UNK N   1      31.373   7.880  21.354  0.00  0.00     0.019 C 
HETATM   16  C   UNK N   1      30.474   7.753  20.135  0.00  0.00     0.015 C 
HETATM   17  C   UNK N   1      32.052   6.553  21.617  0.00  0.00     0.015 C 
ENDBRANCH  11  15
ENDBRANCH   7   9
ENDBRANCH   5   7
BRANCH   2  18
HETATM   18  S   UNK N   1      35.677  13.283  14.556  0.00  0.00     0.256 S 
HETATM   19  O   UNK N   1      35.663  12.385  13.310  0.00  0.00    -0.201 OA
HETATM   20  O   UNK N   1      36.412  14.581  14.197  0.00  0.00    -0.201 OA
BRANCH  18  21
HETATM   21  N   UNK N   1      37.325  12.663  14.716  0.00  0.00    -0.324 N 
HETATM   22  H   UNK N   1      38.124  12.346  15.265  0.00  0.00     0.169 HD
HETATM   23  H   UNK N   1      37.645  12.576  13.751  0.00  0.00     0.169 HD
ENDBRANCH  18  21
ENDBRANCH   2  18
TORSDOF 5
ENDMDL
MODEL 3
REMARK VINA RESULT:      -5.8      3.428      5.105
REMARK  5 active torsions:
REMARK  status: ('A' for Active; 'I' for Inactive)
REMARK    1  A    between atoms: C_4  and  C_5 
REMARK    2  A    between atoms: C_9  and  N_15 
REMARK    3  A    between atoms: N_12  and  S_20 
REMARK    4  A    between atoms: C_14  and  S_20 
REMARK    5  A    between atoms: N_15  and  C_18 
ROOT
HETATM    1  C   UNK N   1      31.416  16.251   6.363  0.00  0.00     0.027 A 
HETATM    2  C   UNK N   1      32.153  16.650   5.237  0.00  0.00     0.079 A 
HETATM    3  C   UNK N   1      33.383  17.288   5.402  0.00  0.00     0.027 A 
HETATM    4  C   UNK N   1      33.857  17.561   6.678  0.00  0.00     0.031 A 
HETATM    5  C   UNK N   1      33.114  17.195   7.813  0.00  0.00     0.034 A 
HETATM    6  C   UNK N   1      31.901  16.517   7.652  0.00  0.00     0.031 A 
ENDROOT
BRANCH   5   7
HETATM    7  N   UNK N   1      33.608  17.491   9.113  0.00  0.00    -0.337 N 
HETATM    8  H   UNK N   1      33.333  18.323   9.559  0.00  0.00     0.168 HD
BRANCH   7   9
HETATM    9  C   UNK N   1      34.493  16.600   9.773  0.00  0.00     0.149 A 
HETATM   10  S   UNK N   1      34.950  15.110   9.237  0.00  0.00    -0.057 SA
HETATM   11  C   UNK N   1      36.053  14.799  10.438  0.00  0.00     0.005 A 
HETATM   12  C   UNK N   1      36.036  15.913  11.294  0.00  0.00     0.105 A 
HETATM   13  N   UNK N   1      35.168  16.908  10.911  0.00  0.00    -0.345 N 
ATOM     14  HN  UNK N   1      35.045  17.782  11.424  1.00  0.00     0.167 HD
BRANCH  11  15
HETATM   15  C   UNK N   1      36.946  13.599  10.541  0.00  0.00     0.019 C 
HETATM   16  C   UNK N   1      38.333  13.869   9.979  0.00  0.00     0.015 C 
HETATM   17  C   UNK N   1      37.068  13.144  11.980  0.00  0.00     0.015 C 
ENDBRANCH  11  15
ENDBRANCH   7   9
ENDBRANCH   5   7
BRANCH   2  18
HETATM   18  S   UNK N   1      31.542  16.350   3.581  0.00  0.00     0.256 S 
HETATM   19  O   UNK N   1      32.080  17.130   2.372  0.00  0.00    -0.201 OA
HETATM   20  O   UNK N   1      30.088  15.958   3.285  0.00  0.00    -0.201 OA
BRANCH  18  21
HETATM   21  N   UNK N   1      30.802  17.905   3.979  0.00  0.00    -0.324 N 
HETATM   22  H   UNK N   1      30.346  18.554   4.621  0.00  0.00     0.169 HD
HETATM   23  H   UNK N   1      30.861  18.431   3.106  0.00  0.00     0.169 HD
ENDBRANCH  18  21
ENDBRANCH   2  18
TORSDOF 5
ENDMDL
MODEL 4
REMARK VINA RESULT:      -5.6      3.956      7.826
REMARK  5 active torsions:
REMARK  status: ('A' for Active; 'I' for Inactive)
REMARK    1  A    between atoms: C_4  and  C_5 
REMARK    2  A    between atoms: C_9  and  N_15 
REMARK    3  A    between atoms: N_12  and  S_20 
REMARK    4  A    between atoms: C_14  and  S_20 
REMARK    5  A    between atoms: N_15  and  C_18 
ROOT
HETATM    1  C   UNK N   1      35.156  13.725  10.198  0.00  0.00     0.027 A 
HETATM    2  C   UNK N   1      35.744  13.746  11.473  0.00  0.00     0.079 A 
HETATM    3  C   UNK N   1      35.897  14.957  12.148  0.00  0.00     0.027 A 
HETATM    4  C   UNK N   1      35.503  16.143  11.543  0.00  0.00     0.031 A 
HETATM    5  C   UNK N   1      34.942  16.140  10.255  0.00  0.00     0.034 A 
HETATM    6  C   UNK N   1      34.748  14.922   9.592  0.00  0.00     0.031 A 
ENDROOT
BRANCH   5   7
HETATM    7  N   UNK N   1      34.553  17.363   9.645  0.00  0.00    -0.337 N 
HETATM    8  H   UNK N   1      34.994  18.201   9.912  0.00  0.00     0.168 HD
BRANCH   7   9
HETATM    9  C   UNK N   1      33.536  17.390   8.657  0.00  0.00     0.149 A 
HETATM   10  S   UNK N   1      33.766  17.483   7.028  0.00  0.00    -0.057 SA
HETATM   11  C   UNK N   1      32.172  17.318   6.594  0.00  0.00     0.005 A 
HETATM   12  C   UNK N   1      31.442  17.202   7.790  0.00  0.00     0.105 A 
HETATM   13  N   UNK N   1      32.213  17.239   8.928  0.00  0.00    -0.345 N 
ATOM     14  HN  UNK N   1      31.834  17.162   9.872  1.00  0.00     0.167 HD
BRANCH  11  15
HETATM   15  C   UNK N   1      31.631  17.230   5.198  0.00  0.00     0.019 C 
HETATM   16  C   UNK N   1      32.696  17.526   4.154  0.00  0.00     0.015 C 
HETATM   17  C   UNK N   1      31.041  15.860   4.939  0.00  0.00     0.015 C 
ENDBRANCH  11  15
ENDBRANCH   7   9
ENDBRANCH   5   7
BRANCH   2  18
HETATM   18  S   UNK N   1      36.302  12.235  12.255  0.00  0.00     0.256 S 
HETATM   19  O   UNK N   1      35.761  11.791  13.622  0.00  0.00    -0.201 OA
HETATM   20  O   UNK N   1      37.733  11.699  12.113  0.00  0.00    -0.201 OA
BRANCH  18  21
HETATM   21  N   UNK N   1      37.107  13.477  13.221  0.00  0.00    -0.324 N 
HETATM   22  H   UNK N   1      37.764  13.781  13.939  0.00  0.00     0.169 HD
HETATM   23  H   UNK N   1      36.700  14.349  12.882  0.00  0.00     0.169 HD
ENDBRANCH  18  21
ENDBRANCH   2  18
TORSDOF 5
ENDMDL
MODEL 5
REMARK VINA RESULT:      -5.4      3.016      4.235
REMARK  5 active torsions:
REMARK  status: ('A' for Active; 'I' for Inactive)
REMARK    1  A    between atoms: C_4  and  C_5 
REMARK    2  A    between atoms: C_9  and  N_15 
REMARK    3  A    between atoms: N_12  and  S_20 
REMARK    4  A    between atoms: C_14  and  S_20 
REMARK    5  A    between atoms: N_15  and  C_18 
ROOT
HETATM    1  C   UNK N   1      31.275  15.906   8.973  0.00  0.00     0.027 A 
HETATM    2  C   UNK N   1      30.856  17.212   8.675  0.00  0.00     0.079 A 
HETATM    3  C   UNK N   1      31.801  18.193   8.375  0.00  0.00     0.027 A 
HETATM    4  C   UNK N   1      33.155  17.886   8.409  0.00  0.00     0.031 A 
HETATM    5  C   UNK N   1      33.588  16.591   8.737  0.00  0.00     0.034 A 
HETATM    6  C   UNK N   1      32.642  15.593   8.997  0.00  0.00     0.031 A 
ENDROOT
BRANCH   5   7
HETATM    7  N   UNK N   1      34.978  16.295   8.778  0.00  0.00    -0.337 N 
HETATM    8  H   UNK N   1      35.591  16.750   8.157  0.00  0.00     0.168 HD
BRANCH   7   9
HETATM    9  C   UNK N   1      35.491  15.350   9.703  0.00  0.00     0.149 A 
HETATM   10  S   UNK N   1      35.634  15.563  11.331  0.00  0.00    -0.057 SA
HETATM   11  C   UNK N   1      36.148  14.025  11.687  0.00  0.00     0.005 A 
HETATM   12  C   UNK N   1      36.220  13.335  10.464  0.00  0.00     0.105 A 
HETATM   13  N   UNK N   1      35.849  14.082   9.370  0.00  0.00    -0.345 N 
ATOM     14  HN  UNK N   1      35.842  13.724   8.415  1.00  0.00     0.167 HD
BRANCH  11  15
HETATM   15  C   UNK N   1      36.406  13.463  13.053  0.00  0.00     0.019 C 
HETATM   16  C   UNK N   1      36.481  14.551  14.112  0.00  0.00     0.015 C 
HETATM   17  C   UNK N   1      35.332  12.467  13.433  0.00  0.00     0.015 C 
ENDBRANCH  11  15
ENDBRANCH   7   9
ENDBRANCH   5   7
BRANCH   2  18
HETATM   18  S   UNK N   1      29.118  17.644   8.669  0.00  0.00     0.256 S 
HETATM   19  O   UNK N   1      28.633  19.018   8.184  0.00  0.00    -0.201 OA
HETATM   20  O   UNK N   1      28.127  17.137   9.725  0.00  0.00    -0.201 OA
BRANCH  18  21
HETATM   21  N   UNK N   1      29.735  18.587  10.032  0.00  0.00    -0.324 N 
HETATM   22  H   UNK N   1      30.484  19.042  10.553  0.00  0.00     0.169 HD
HETATM   23  H   UNK N   1      28.903  18.774  10.592  0.00  0.00     0.169 HD
ENDBRANCH  18  21
ENDBRANCH   2  18
TORSDOF 5
ENDMDL
MODEL 6
REMARK VINA RESULT:      -5.4      4.046      7.343
REMARK  5 active torsions:
REMARK  status: ('A' for Active; 'I' for Inactive)
REMARK    1  A    between atoms: C_4  and  C_5 
REMARK    2  A    between atoms: C_9  and  N_15 
REMARK    3  A    between atoms: N_12  and  S_20 
REMARK    4  A    between atoms: C_14  and  S_20 
REMARK    5  A    between atoms: N_15  and  C_18 
ROOT
HETATM    1  C   UNK N   1      35.096  13.141  11.931  0.00  0.00     0.027 A 
HETATM    2  C   UNK N   1      35.682  13.989  12.885  0.00  0.00     0.079 A 
HETATM    3  C   UNK N   1      36.063  15.282  12.525  0.00  0.00     0.027 A 
HETATM    4  C   UNK N   1      35.897  15.714  11.216  0.00  0.00     0.031 A 
HETATM    5  C   UNK N   1      35.342  14.865  10.245  0.00  0.00     0.034 A 
HETATM    6  C   UNK N   1      34.920  13.582  10.612  0.00  0.00     0.031 A 
ENDROOT
BRANCH   5   7
HETATM    7  N   UNK N   1      35.189  15.319   8.906  0.00  0.00    -0.337 N 
HETATM    8  H   UNK N   1      35.798  14.988   8.208  0.00  0.00     0.168 HD
BRANCH   7   9
HETATM    9  C   UNK N   1      34.169  16.244   8.566  0.00  0.00     0.149 A 
HETATM   10  S   UNK N   1      32.555  15.922   8.477  0.00  0.00    -0.057 SA
HETATM   11  C   UNK N   1      32.059  17.479   8.185  0.00  0.00     0.005 A 
HETATM   12  C   UNK N   1      33.222  18.267   8.142  0.00  0.00     0.105 A 
HETATM   13  N   UNK N   1      34.387  17.569   8.360  0.00  0.00    -0.345 N 
ATOM     14  HN  UNK N   1      35.313  17.999   8.366  1.00  0.00     0.167 HD
BRANCH  11  15
HETATM   15  C   UNK N   1      30.643  17.958   8.069  0.00  0.00     0.019 C 
HETATM   16  C   UNK N   1      29.758  16.954   7.349  0.00  0.00     0.015 C 
HETATM   17  C   UNK N   1      30.063  18.247   9.438  0.00  0.00     0.015 C 
ENDBRANCH  11  15
ENDBRANCH   7   9
ENDBRANCH   5   7
BRANCH   2  18
HETATM   18  S   UNK N   1      35.947  13.438  14.568  0.00  0.00     0.256 S 
HETATM   19  O   UNK N   1      37.070  14.022  15.437  0.00  0.00    -0.201 OA
HETATM   20  O   UNK N   1      35.695  11.995  15.025  0.00  0.00    -0.201 OA
BRANCH  18  21
HETATM   21  N   UNK N   1      37.299  12.688  13.710  0.00  0.00    -0.324 N 
HETATM   22  H   UNK N   1      38.268  12.661  13.396  0.00  0.00     0.169 HD
HETATM   23  H   UNK N   1      36.897  11.831  13.329  0.00  0.00     0.169 HD
ENDBRANCH  18  21
ENDBRANCH   2  18
TORSDOF 5
ENDMDL
MODEL 7
REMARK VINA RESULT:      -5.4      5.940      8.959
REMARK  5 active torsions:
REMARK  status: ('A' for Active; 'I' for Inactive)
REMARK    1  A    between atoms: C_4  and  C_5 
REMARK    2  A    between atoms: C_9  and  N_15 
REMARK    3  A    between atoms: N_12  and  S_20 
REMARK    4  A    between atoms: C_14  and  S_20 
REMARK    5  A    between atoms: N_15  and  C_18 
ROOT
HETATM    1  C   UNK N   1      35.233  12.456  17.736  0.00  0.00     0.027 A 
HETATM    2  C   UNK N   1      35.183  11.131  18.195  0.00  0.00     0.079 A 
HETATM    3  C   UNK N   1      34.899  10.096  17.303  0.00  0.00     0.027 A 
HETATM    4  C   UNK N   1      34.629  10.383  15.972  0.00  0.00     0.031 A 
HETATM    5  C   UNK N   1      34.645  11.708  15.506  0.00  0.00     0.034 A 
HETATM    6  C   UNK N   1      34.972  12.744  16.388  0.00  0.00     0.031 A 
ENDROOT
BRANCH   5   7
HETATM    7  N   UNK N   1      34.356  11.986  14.142  0.00  0.00    -0.337 N 
HETATM    8  H   UNK N   1      33.464  11.781  13.782  0.00  0.00     0.168 HD
BRANCH   7   9
HETATM    9  C   UNK N   1      35.340  12.555  13.294  0.00  0.00     0.149 A 
HETATM   10  S   UNK N   1      36.608  11.758  12.604  0.00  0.00    -0.057 SA
HETATM   11  C   UNK N   1      37.166  13.028  11.691  0.00  0.00     0.005 A 
HETATM   12  C   UNK N   1      36.321  14.117  11.964  0.00  0.00     0.105 A 
HETATM   13  N   UNK N   1      35.309  13.839  12.853  0.00  0.00    -0.345 N 
ATOM     14  HN  UNK N   1      34.611  14.523  13.148  1.00  0.00     0.167 HD
BRANCH  11  15
HETATM   15  C   UNK N   1      38.299  12.991  10.710  0.00  0.00     0.019 C 
HETATM   16  C   UNK N   1      38.291  11.721   9.875  0.00  0.00     0.015 C 
HETATM   17  C   UNK N   1      38.251  14.195   9.793  0.00  0.00     0.015 C 
ENDBRANCH  11  15
ENDBRANCH   7   9
ENDBRANCH   5   7
BRANCH   2  18
HETATM   18  S   UNK N   1      35.483  10.741  19.917  0.00  0.00     0.256 S 
HETATM   19  O   UNK N   1      34.368  10.839  20.969  0.00  0.00    -0.201 OA
HETATM   20  O   UNK N   1      36.820  11.017  20.616  0.00  0.00    -0.201 OA
BRANCH  18  21
HETATM   21  N   UNK N   1      35.365  12.505  19.946  0.00  0.00    -0.324 N 
HETATM   22  H   UNK N   1      35.762  13.441  19.868  0.00  0.00     0.169 HD
HETATM   23  H   UNK N   1      34.380  12.677  20.148  0.00  0.00     0.169 HD
ENDBRANCH  18  21
ENDBRANCH   2  18
TORSDOF 5
ENDMDL
MODEL 8
REMARK VINA RESULT:      -5.3      1.575      1.797
REMARK  5 active torsions:
REMARK  status: ('A' for Active; 'I' for Inactive)
REMARK    1  A    between atoms: C_4  and  C_5 
REMARK    2  A    between atoms: C_9  and  N_15 
REMARK    3  A    between atoms: N_12  and  S_20 
REMARK    4  A    between atoms: C_14  and  S_20 
REMARK    5  A    between atoms: N_15  and  C_18 
ROOT
HETATM    1  C   UNK N   1      33.664  14.409   9.635  0.00  0.00     0.027 A 
HETATM    2  C   UNK N   1      33.498  15.742   9.228  0.00  0.00     0.079 A 
HETATM    3  C   UNK N   1      34.457  16.697   9.568  0.00  0.00     0.027 A 
HETATM    4  C   UNK N   1      35.553  16.335  10.340  0.00  0.00     0.031 A 
HETATM    5  C   UNK N   1      35.714  15.011  10.780  0.00  0.00     0.034 A 
HETATM    6  C   UNK N   1      34.776  14.042  10.405  0.00  0.00     0.031 A 
ENDROOT
BRANCH   5   7
HETATM    7  N   UNK N   1      36.836  14.658  11.579  0.00  0.00    -0.337 N 
HETATM    8  H   UNK N   1      37.704  15.092  11.418  0.00  0.00     0.168 HD
BRANCH   7   9
HETATM    9  C   UNK N   1      36.718  13.686  12.606  0.00  0.00     0.149 A 
HETATM   10  S   UNK N   1      35.670  13.737  13.877  0.00  0.00    -0.057 SA
HETATM   11  C   UNK N   1      36.039  12.241  14.496  0.00  0.00     0.005 A 
HETATM   12  C   UNK N   1      37.038  11.701  13.668  0.00  0.00     0.105 A 
HETATM   13  N   UNK N   1      37.404  12.513  12.619  0.00  0.00    -0.345 N 
ATOM     14  HN  UNK N   1      38.111  12.262  11.928  1.00  0.00     0.167 HD
BRANCH  11  15
HETATM   15  C   UNK N   1      35.377  11.570  15.662  0.00  0.00     0.019 C 
HETATM   16  C   UNK N   1      35.071  12.547  16.785  0.00  0.00     0.015 C 
HETATM   17  C   UNK N   1      34.096  10.888  15.229  0.00  0.00     0.015 C 
ENDBRANCH  11  15
ENDBRANCH   7   9
ENDBRANCH   5   7
BRANCH   2  18
HETATM   18  S   UNK N   1      32.071  16.243   8.270  0.00  0.00     0.256 S 
HETATM   19  O   UNK N   1      32.221  16.955   6.917  0.00  0.00    -0.201 OA
HETATM   20  O   UNK N   1      30.757  16.710   8.909  0.00  0.00    -0.201 OA
BRANCH  18  21
HETATM   21  N   UNK N   1      32.660  17.786   8.900  0.00  0.00    -0.324 N 
HETATM   22  H   UNK N   1      33.404  18.440   9.145  0.00  0.00     0.169 HD
HETATM   23  H   UNK N   1      31.807  18.286   9.151  0.00  0.00     0.169 HD
ENDBRANCH  18  21
ENDBRANCH   2  18
TORSDOF 5
ENDMDL
MODEL 9
REMARK VINA RESULT:      -5.2      2.370      3.433
REMARK  5 active torsions:
REMARK  status: ('A' for Active; 'I' for Inactive)
REMARK    1  A    between atoms: C_4  and  C_5 
REMARK    2  A    between atoms: C_9  and  N_15 
REMARK    3  A    between atoms: N_12  and  S_20 
REMARK    4  A    between atoms: C_14  and  S_20 
REMARK    5  A    between atoms: N_15  and  C_18 
ROOT
HETATM    1  C   UNK N   1      32.691  15.904   7.976  0.00  0.00     0.027 A 
HETATM    2  C   UNK N   1      32.874  16.961   7.071  0.00  0.00     0.079 A 
HETATM    3  C   UNK N   1      33.821  17.950   7.339  0.00  0.00     0.027 A 
HETATM    4  C   UNK N   1      34.552  17.908   8.519  0.00  0.00     0.031 A 
HETATM    5  C   UNK N   1      34.355  16.874   9.448  0.00  0.00     0.034 A 
HETATM    6  C   UNK N   1      33.437  15.857   9.163  0.00  0.00     0.031 A 
ENDROOT
BRANCH   5   7
HETATM    7  N   UNK N   1      35.104  16.851  10.657  0.00  0.00    -0.337 N 
HETATM    8  H   UNK N   1      35.109  17.643  11.241  0.00  0.00     0.168 HD
BRANCH   7   9
HETATM    9  C   UNK N   1      35.845  15.701  11.029  0.00  0.00     0.149 A 
HETATM   10  S   UNK N   1      35.545  14.729  12.326  0.00  0.00    -0.057 SA
HETATM   11  C   UNK N   1      36.702  13.587  11.989  0.00  0.00     0.005 A 
HETATM   12  C   UNK N   1      37.352  14.011  10.816  0.00  0.00     0.105 A 
HETATM   13  N   UNK N   1      36.863  15.185  10.292  0.00  0.00    -0.345 N 
ATOM     14  HN  UNK N   1      37.224  15.620   9.442  1.00  0.00     0.167 HD
BRANCH  11  15
HETATM   15  C   UNK N   1      36.949  12.316  12.744  0.00  0.00     0.019 C 
HETATM   16  C   UNK N   1      35.723  11.868  13.524  0.00  0.00     0.015 C 
HETATM   17  C   UNK N   1      37.376  11.209  11.803  0.00  0.00     0.015 C 
ENDBRANCH  11  15
ENDBRANCH   7   9
ENDBRANCH   5   7
BRANCH   2  18
HETATM   18  S   UNK N   1      31.912  17.060   5.564  0.00  0.00     0.256 S 
HETATM   19  O   UNK N   1      31.085  15.868   5.059  0.00  0.00    -0.201 OA
HETATM   20  O   UNK N   1      32.347  17.886   4.347  0.00  0.00    -0.201 OA
BRANCH  18  21
HETATM   21  N   UNK N   1      33.273  16.043   5.074  0.00  0.00    -0.324 N 
HETATM   22  H   UNK N   1      33.834  15.557   4.375  0.00  0.00     0.169 HD
HETATM   23  H   UNK N   1      33.743  15.830   5.953  0.00  0.00     0.169 HD
ENDBRANCH  18  21
ENDBRANCH   2  18
TORSDOF 5
ENDMDL
