MODEL 1
REMARK VINA RESULT:      -8.9      0.000      0.000
REMARK  0 active torsions:
REMARK  status: ('A' for Active; 'I' for Inactive)
ROOT
HETATM    1  C   UNK N   1      22.556  12.719   7.726  0.00  0.00     0.004 A 
HETATM    2  C   UNK N   1      21.930  13.796   8.464  0.00  0.00     0.048 A 
HETATM    3  C   UNK N   1      23.089  11.611   8.456  0.00  0.00    -0.024 A 
HETATM    4  C   UNK N   1      22.657  12.671   6.317  0.00  0.00     0.052 A 
HETATM    5  N   UNK N   1      21.306  14.988   7.907  0.00  0.00    -0.315 N 
HETATM    6  C   UNK N   1      21.893  13.678   9.869  0.00  0.00     0.030 A 
HETATM    7  C   UNK N   1      23.693  10.545   7.800  0.00  0.00     0.015 A 
HETATM    8  C   UNK N   1      23.020  11.560   9.841  0.00  0.00     0.012 A 
HETATM    9  C   UNK N   1      23.288  11.600   5.670  0.00  0.00     0.077 A 
HETATM   10  C   UNK N   1      20.517  15.863   8.746  0.00  0.00     0.135 C 
HETATM   11  C   UNK N   1      21.400  15.504   6.668  0.00  0.00     0.246 C 
HETATM   12  C   UNK N   1      22.429  12.589  10.546  0.00  0.00     0.003 A 
HETATM   13  C   UNK N   1      23.798  10.548   6.422  0.00  0.00     0.038 A 
HETATM   14  O   UNK N   1      23.426  11.490   4.332  0.00  0.00    -0.309 OA
HETATM   15  C   UNK N   1      19.854  16.862   7.775  0.00  0.00     0.054 C 
HETATM   16  C   UNK N   1      20.706  16.816   6.506  0.00  0.00     0.171 C 
HETATM   17  C   UNK N   1      22.952  12.116   3.225  0.00  0.00     0.097 A 
HETATM   18  C   UNK N   1      23.179  11.454   2.013  0.00  0.00     0.078 A 
HETATM   19  C   UNK N   1      22.176  13.297   3.240  0.00  0.00     0.047 A 
HETATM   20  C   UNK N   1      20.965  16.857   4.208  0.00  0.00     0.173 C 
HETATM   21  C   UNK N   1      22.701  11.985   0.815  0.00  0.00     0.026 A 
HETATM   22  C   UNK N   1      23.827  10.159   2.049  0.00  0.00     0.102 C 
HETATM   23  C   UNK N   1      21.662  13.828   2.032  0.00  0.00    -0.037 A 
HETATM   24  C   UNK N   1      20.556  17.103   2.807  0.00  0.00     0.045 A 
HETATM   25  C   UNK N   1      21.927  13.153   0.827  0.00  0.00     0.010 A 
HETATM   26  N   UNK N   1      24.350   9.130   2.142  0.00  0.00    -0.191 NA
HETATM   27  C   UNK N   1      20.425  14.700   2.094  0.00  0.00     0.168 C 
HETATM   28  N   UNK N   1      20.465  16.150   1.866  0.00  0.00    -0.340 N 
HETATM   29  C   UNK N   1      20.327  18.331   2.230  0.00  0.00     0.115 A 
HETATM   30  C   UNK N   1      20.134  16.787   0.727  0.00  0.00     0.183 A 
HETATM   31  N   UNK N   1      20.062  18.126   0.921  0.00  0.00    -0.360 N 
ATOM     32  HN  UNK N   1      19.851  18.836   0.220  1.00  0.00     0.166 HD
HETATM   33  O   UNK N   1      22.093  15.036   5.789  0.00  0.00    -0.271 OA
HETATM   34  N   UNK N   1      19.937  16.918   5.253  0.00  0.00    -0.404 N 
HETATM   35  H   UNK N   1      18.928  17.010   5.138  0.00  0.00     0.154 HD
ENDROOT
TORSDOF 0
ENDMDL
MODEL 2
REMARK VINA RESULT:      -8.8      4.507      7.748
REMARK  0 active torsions:
REMARK  status: ('A' for Active; 'I' for Inactive)
ROOT
HETATM    1  C   UNK N   1      21.692  18.373   3.792  0.00  0.00     0.004 A 
HETATM    2  C   UNK N   1      22.396  19.496   3.209  0.00  0.00     0.048 A 
HETATM    3  C   UNK N   1      20.301  18.214   3.503  0.00  0.00    -0.024 A 
HETATM    4  C   UNK N   1      22.294  17.396   4.617  0.00  0.00     0.052 A 
HETATM    5  N   UNK N   1      23.810  19.812   3.357  0.00  0.00    -0.315 N 
HETATM    6  C   UNK N   1      21.650  20.368   2.389  0.00  0.00     0.030 A 
HETATM    7  C   UNK N   1      19.578  17.151   4.028  0.00  0.00     0.015 A 
HETATM    8  C   UNK N   1      19.628  19.112   2.687  0.00  0.00     0.012 A 
HETATM    9  C   UNK N   1      21.548  16.340   5.157  0.00  0.00     0.077 A 
HETATM   10  C   UNK N   1      24.425  20.829   2.532  0.00  0.00     0.135 C 
HETATM   11  C   UNK N   1      24.703  19.343   4.248  0.00  0.00     0.246 C 
HETATM   12  C   UNK N   1      20.296  20.188   2.136  0.00  0.00     0.003 A 
HETATM   13  C   UNK N   1      20.196  16.231   4.854  0.00  0.00     0.038 A 
HETATM   14  O   UNK N   1      22.053  15.377   5.955  0.00  0.00    -0.309 OA
HETATM   15  C   UNK N   1      25.937  20.719   2.817  0.00  0.00     0.054 C 
HETATM   16  C   UNK N   1      26.042  19.999   4.162  0.00  0.00     0.171 C 
HETATM   17  C   UNK N   1      23.279  14.954   6.356  0.00  0.00     0.097 A 
HETATM   18  C   UNK N   1      23.309  13.711   6.998  0.00  0.00     0.078 A 
HETATM   19  C   UNK N   1      24.492  15.622   6.073  0.00  0.00     0.047 A 
HETATM   20  C   UNK N   1      27.048  18.509   5.617  0.00  0.00     0.173 C 
HETATM   21  C   UNK N   1      24.519  13.158   7.417  0.00  0.00     0.026 A 
HETATM   22  C   UNK N   1      22.069  12.970   7.120  0.00  0.00     0.102 C 
HETATM   23  C   UNK N   1      25.728  15.055   6.469  0.00  0.00    -0.037 A 
HETATM   24  C   UNK N   1      28.132  17.633   6.118  0.00  0.00     0.045 A 
HETATM   25  C   UNK N   1      25.724  13.816   7.133  0.00  0.00     0.010 A 
HETATM   26  N   UNK N   1      21.049  12.428   7.187  0.00  0.00    -0.191 NA
HETATM   27  C   UNK N   1      26.978  15.443   5.707  0.00  0.00     0.168 C 
HETATM   28  N   UNK N   1      28.019  16.305   6.278  0.00  0.00    -0.340 N 
HETATM   29  C   UNK N   1      29.353  18.045   6.600  0.00  0.00     0.115 A 
HETATM   30  C   UNK N   1      29.186  15.898   6.812  0.00  0.00     0.183 A 
HETATM   31  N   UNK N   1      30.012  16.949   7.036  0.00  0.00    -0.360 N 
ATOM     32  HN  UNK N   1      30.943  16.920   7.451  1.00  0.00     0.166 HD
HETATM   33  O   UNK N   1      24.431  18.562   5.135  0.00  0.00    -0.271 OA
HETATM   34  N   UNK N   1      27.164  19.048   4.257  0.00  0.00    -0.404 N 
HETATM   35  H   UNK N   1      27.858  18.820   3.546  0.00  0.00     0.154 HD
ENDROOT
TORSDOF 0
ENDMDL
MODEL 3
REMARK VINA RESULT:      -8.8     15.151     17.038
REMARK  0 active torsions:
REMARK  status: ('A' for Active; 'I' for Inactive)
ROOT
HETATM    1  C   UNK N   1      31.084  21.643  -4.577  0.00  0.00     0.004 A 
HETATM    2  C   UNK N   1      31.812  20.721  -5.424  0.00  0.00     0.048 A 
HETATM    3  C   UNK N   1      31.592  21.916  -3.269  0.00  0.00    -0.024 A 
HETATM    4  C   UNK N   1      29.905  22.321  -4.964  0.00  0.00     0.052 A 
HETATM    5  N   UNK N   1      31.476  20.339  -6.789  0.00  0.00    -0.315 N 
HETATM    6  C   UNK N   1      32.984  20.147  -4.891  0.00  0.00     0.030 A 
HETATM    7  C   UNK N   1      30.939  22.798  -2.416  0.00  0.00     0.015 A 
HETATM    8  C   UNK N   1      32.753  21.312  -2.807  0.00  0.00     0.012 A 
HETATM    9  C   UNK N   1      29.246  23.192  -4.086  0.00  0.00     0.077 A 
HETATM   10  C   UNK N   1      32.417  19.592  -7.593  0.00  0.00     0.135 C 
HETATM   11  C   UNK N   1      30.325  20.504  -7.465  0.00  0.00     0.246 C 
HETATM   12  C   UNK N   1      33.445  20.428  -3.611  0.00  0.00     0.003 A 
HETATM   13  C   UNK N   1      29.774  23.420  -2.821  0.00  0.00     0.038 A 
HETATM   14  O   UNK N   1      28.117  23.867  -4.385  0.00  0.00    -0.309 OA
HETATM   15  C   UNK N   1      31.810  19.575  -9.011  0.00  0.00     0.054 C 
HETATM   16  C   UNK N   1      30.322  19.868  -8.815  0.00  0.00     0.171 C 
HETATM   17  C   UNK N   1      27.369  24.123  -5.489  0.00  0.00     0.097 A 
HETATM   18  C   UNK N   1      26.401  25.123  -5.343  0.00  0.00     0.078 A 
HETATM   19  C   UNK N   1      27.579  23.535  -6.756  0.00  0.00     0.047 A 
HETATM   20  C   UNK N   1      28.324  20.842  -9.453  0.00  0.00     0.173 C 
HETATM   21  C   UNK N   1      25.601  25.498  -6.423  0.00  0.00     0.026 A 
HETATM   22  C   UNK N   1      26.325  25.828  -4.079  0.00  0.00     0.102 C 
HETATM   23  C   UNK N   1      26.792  23.929  -7.865  0.00  0.00    -0.037 A 
HETATM   24  C   UNK N   1      27.379  21.505 -10.381  0.00  0.00     0.045 A 
HETATM   25  C   UNK N   1      25.812  24.920  -7.682  0.00  0.00     0.010 A 
HETATM   26  N   UNK N   1      26.312  26.353  -3.048  0.00  0.00    -0.191 NA
HETATM   27  C   UNK N   1      27.362  23.749  -9.257  0.00  0.00     0.168 C 
HETATM   28  N   UNK N   1      26.866  22.731 -10.191  0.00  0.00    -0.340 N 
HETATM   29  C   UNK N   1      26.798  20.938 -11.492  0.00  0.00     0.115 A 
HETATM   30  C   UNK N   1      26.010  22.933 -11.210  0.00  0.00     0.183 A 
HETATM   31  N   UNK N   1      25.937  21.842 -12.010  0.00  0.00    -0.360 N 
ATOM     32  HN  UNK N   1      25.351  21.725 -12.836  1.00  0.00     0.166 HD
HETATM   33  O   UNK N   1      29.324  20.999  -6.991  0.00  0.00    -0.271 OA
HETATM   34  N   UNK N   1      29.727  20.720  -9.861  0.00  0.00    -0.404 N 
HETATM   35  H   UNK N   1      30.184  21.128 -10.676  0.00  0.00     0.154 HD
ENDROOT
TORSDOF 0
ENDMDL
MODEL 4
REMARK VINA RESULT:      -8.7     16.077     17.652
REMARK  0 active torsions:
REMARK  status: ('A' for Active; 'I' for Inactive)
ROOT
HETATM    1  C   UNK N   1      27.178  27.216  -4.694  0.00  0.00     0.004 A 
HETATM    2  C   UNK N   1      28.291  27.913  -4.085  0.00  0.00     0.048 A 
HETATM    3  C   UNK N   1      25.918  27.885  -4.782  0.00  0.00    -0.024 A 
HETATM    4  C   UNK N   1      27.254  25.913  -5.238  0.00  0.00     0.052 A 
HETATM    5  N   UNK N   1      29.652  27.418  -3.930  0.00  0.00    -0.315 N 
HETATM    6  C   UNK N   1      28.051  29.220  -3.612  0.00  0.00     0.030 A 
HETATM    7  C   UNK N   1      24.818  27.268  -5.364  0.00  0.00     0.015 A 
HETATM    8  C   UNK N   1      25.751  29.173  -4.293  0.00  0.00     0.012 A 
HETATM    9  C   UNK N   1      26.131  25.294  -5.803  0.00  0.00     0.077 A 
HETATM   10  C   UNK N   1      30.714  28.308  -3.515  0.00  0.00     0.135 C 
HETATM   11  C   UNK N   1      30.123  26.162  -4.038  0.00  0.00     0.246 C 
HETATM   12  C   UNK N   1      26.810  29.837  -3.706  0.00  0.00     0.003 A 
HETATM   13  C   UNK N   1      24.925  25.982  -5.859  0.00  0.00     0.038 A 
HETATM   14  O   UNK N   1      26.128  24.054  -6.334  0.00  0.00    -0.309 OA
HETATM   15  C   UNK N   1      32.011  27.491  -3.680  0.00  0.00     0.054 C 
HETATM   16  C   UNK N   1      31.568  26.027  -3.688  0.00  0.00     0.171 C 
HETATM   17  C   UNK N   1      27.045  23.114  -6.678  0.00  0.00     0.097 A 
HETATM   18  C   UNK N   1      26.562  22.060  -7.463  0.00  0.00     0.078 A 
HETATM   19  C   UNK N   1      28.426  23.195  -6.392  0.00  0.00     0.047 A 
HETATM   20  C   UNK N   1      31.717  23.844  -4.436  0.00  0.00     0.173 C 
HETATM   21  C   UNK N   1      27.423  21.057  -7.910  0.00  0.00     0.026 A 
HETATM   22  C   UNK N   1      25.177  22.095  -7.884  0.00  0.00     0.102 C 
HETATM   23  C   UNK N   1      29.312  22.197  -6.866  0.00  0.00    -0.037 A 
HETATM   24  C   UNK N   1      32.349  22.686  -5.108  0.00  0.00     0.045 A 
HETATM   25  C   UNK N   1      28.795  21.138  -7.632  0.00  0.00     0.010 A 
HETATM   26  N   UNK N   1      24.062  22.178  -8.187  0.00  0.00    -0.191 NA
HETATM   27  C   UNK N   1      30.771  22.557  -7.056  0.00  0.00     0.168 C 
HETATM   28  N   UNK N   1      31.833  22.056  -6.175  0.00  0.00    -0.340 N 
HETATM   29  C   UNK N   1      33.473  22.015  -4.685  0.00  0.00     0.115 A 
HETATM   30  C   UNK N   1      32.665  21.029  -6.434  0.00  0.00     0.183 A 
HETATM   31  N   UNK N   1      33.667  20.973  -5.523  0.00  0.00    -0.360 N 
ATOM     32  HN  UNK N   1      34.417  20.283  -5.479  1.00  0.00     0.166 HD
HETATM   33  O   UNK N   1      29.428  25.193  -4.264  0.00  0.00    -0.271 OA
HETATM   34  N   UNK N   1      32.318  25.169  -4.622  0.00  0.00    -0.404 N 
HETATM   35  H   UNK N   1      33.076  25.433  -5.250  0.00  0.00     0.154 HD
ENDROOT
TORSDOF 0
ENDMDL
MODEL 5
REMARK VINA RESULT:      -8.6      4.258      7.356
REMARK  0 active torsions:
REMARK  status: ('A' for Active; 'I' for Inactive)
ROOT
HETATM    1  C   UNK N   1      26.109  18.433   4.493  0.00  0.00     0.004 A 
HETATM    2  C   UNK N   1      26.836  17.361   5.141  0.00  0.00     0.048 A 
HETATM    3  C   UNK N   1      26.813  19.632   4.160  0.00  0.00    -0.024 A 
HETATM    4  C   UNK N   1      24.742  18.369   4.139  0.00  0.00     0.052 A 
HETATM    5  N   UNK N   1      26.310  16.060   5.530  0.00  0.00    -0.315 N 
HETATM    6  C   UNK N   1      28.204  17.578   5.404  0.00  0.00     0.030 A 
HETATM    7  C   UNK N   1      26.168  20.689   3.530  0.00  0.00     0.015 A 
HETATM    8  C   UNK N   1      28.162  19.780   4.451  0.00  0.00     0.012 A 
HETATM    9  C   UNK N   1      24.099  19.451   3.522  0.00  0.00     0.077 A 
HETATM   10  C   UNK N   1      27.203  15.005   5.954  0.00  0.00     0.135 C 
HETATM   11  C   UNK N   1      25.032  15.653   5.646  0.00  0.00     0.246 C 
HETATM   12  C   UNK N   1      28.855  18.761   5.074  0.00  0.00     0.003 A 
HETATM   13  C   UNK N   1      24.824  20.600   3.225  0.00  0.00     0.038 A 
HETATM   14  O   UNK N   1      22.800  19.464   3.162  0.00  0.00    -0.309 OA
HETATM   15  C   UNK N   1      26.317  13.747   6.062  0.00  0.00     0.054 C 
HETATM   16  C   UNK N   1      24.886  14.271   6.191  0.00  0.00     0.171 C 
HETATM   17  C   UNK N   1      21.783  18.569   3.063  0.00  0.00     0.097 A 
HETATM   18  C   UNK N   1      20.653  19.016   2.368  0.00  0.00     0.078 A 
HETATM   19  C   UNK N   1      21.844  17.230   3.507  0.00  0.00     0.047 A 
HETATM   20  C   UNK N   1      22.616  14.163   5.760  0.00  0.00     0.173 C 
HETATM   21  C   UNK N   1      19.562  18.168   2.169  0.00  0.00     0.026 A 
HETATM   22  C   UNK N   1      20.688  20.337   1.775  0.00  0.00     0.102 C 
HETATM   23  C   UNK N   1      20.754  16.354   3.284  0.00  0.00    -0.037 A 
HETATM   24  C   UNK N   1      21.352  13.524   5.331  0.00  0.00     0.045 A 
HETATM   25  C   UNK N   1      19.623  16.838   2.604  0.00  0.00     0.010 A 
HETATM   26  N   UNK N   1      20.776  21.401   1.325  0.00  0.00    -0.191 NA
HETATM   27  C   UNK N   1      21.023  14.864   3.233  0.00  0.00     0.168 C 
HETATM   28  N   UNK N   1      20.603  13.946   4.299  0.00  0.00    -0.340 N 
HETATM   29  C   UNK N   1      20.698  12.500   5.976  0.00  0.00     0.115 A 
HETATM   30  C   UNK N   1      19.516  13.150   4.284  0.00  0.00     0.183 A 
HETATM   31  N   UNK N   1      19.544  12.269   5.312  0.00  0.00    -0.360 N 
ATOM     32  HN  UNK N   1      18.835  11.572   5.541  1.00  0.00     0.166 HD
HETATM   33  O   UNK N   1      24.072  16.372   5.464  0.00  0.00    -0.271 OA
HETATM   34  N   UNK N   1      23.876  13.467   5.479  0.00  0.00    -0.404 N 
HETATM   35  H   UNK N   1      24.020  12.625   4.923  0.00  0.00     0.154 HD
ENDROOT
TORSDOF 0
ENDMDL
MODEL 6
REMARK VINA RESULT:      -8.6      8.119      8.719
REMARK  0 active torsions:
REMARK  status: ('A' for Active; 'I' for Inactive)
ROOT
HETATM    1  C   UNK N   1      32.185  16.620   6.423  0.00  0.00     0.004 A 
HETATM    2  C   UNK N   1      31.596  17.358   7.521  0.00  0.00     0.048 A 
HETATM    3  C   UNK N   1      33.606  16.647   6.265  0.00  0.00    -0.024 A 
HETATM    4  C   UNK N   1      31.449  15.843   5.499  0.00  0.00     0.052 A 
HETATM    5  N   UNK N   1      30.183  17.431   7.866  0.00  0.00    -0.315 N 
HETATM    6  C   UNK N   1      32.477  18.065   8.366  0.00  0.00     0.030 A 
HETATM    7  C   UNK N   1      34.225  15.950   5.235  0.00  0.00     0.015 A 
HETATM    8  C   UNK N   1      34.414  17.366   7.135  0.00  0.00     0.012 A 
HETATM    9  C   UNK N   1      32.085  15.162   4.453  0.00  0.00     0.077 A 
HETATM   10  C   UNK N   1      29.764  18.014   9.122  0.00  0.00     0.135 C 
HETATM   11  C   UNK N   1      29.105  17.094   7.135  0.00  0.00     0.246 C 
HETATM   12  C   UNK N   1      33.853  18.076   8.178  0.00  0.00     0.003 A 
HETATM   13  C   UNK N   1      33.469  15.224   4.335  0.00  0.00     0.038 A 
HETATM   14  O   UNK N   1      31.448  14.409   3.533  0.00  0.00    -0.309 OA
HETATM   15  C   UNK N   1      28.255  17.711   9.222  0.00  0.00     0.054 C 
HETATM   16  C   UNK N   1      27.805  17.426   7.789  0.00  0.00     0.171 C 
HETATM   17  C   UNK N   1      30.202  13.903   3.346  0.00  0.00     0.097 A 
HETATM   18  C   UNK N   1      30.089  12.932   2.345  0.00  0.00     0.078 A 
HETATM   19  C   UNK N   1      29.081  14.212   4.148  0.00  0.00     0.047 A 
HETATM   20  C   UNK N   1      26.538  16.285   6.226  0.00  0.00     0.173 C 
HETATM   21  C   UNK N   1      28.864  12.313   2.093  0.00  0.00     0.026 A 
HETATM   22  C   UNK N   1      31.292  12.511   1.656  0.00  0.00     0.102 C 
HETATM   23  C   UNK N   1      27.840  13.569   3.919  0.00  0.00    -0.037 A 
HETATM   24  C   UNK N   1      25.437  15.414   5.755  0.00  0.00     0.045 A 
HETATM   25  C   UNK N   1      27.752  12.614   2.891  0.00  0.00     0.010 A 
HETATM   26  N   UNK N   1      32.286  12.219   1.140  0.00  0.00    -0.191 NA
HETATM   27  C   UNK N   1      26.857  13.462   5.067  0.00  0.00     0.168 C 
HETATM   28  N   UNK N   1      25.616  14.244   5.122  0.00  0.00    -0.340 N 
HETATM   29  C   UNK N   1      24.095  15.714   5.781  0.00  0.00     0.115 A 
HETATM   30  C   UNK N   1      24.383  13.805   4.805  0.00  0.00     0.183 A 
HETATM   31  N   UNK N   1      23.436  14.698   5.182  0.00  0.00    -0.360 N 
ATOM     32  HN  UNK N   1      22.429  14.620   5.042  1.00  0.00     0.166 HD
HETATM   33  O   UNK N   1      29.160  16.685   5.994  0.00  0.00    -0.271 OA
HETATM   34  N   UNK N   1      26.800  16.355   7.668  0.00  0.00    -0.404 N 
HETATM   35  H   UNK N   1      26.384  15.795   8.411  0.00  0.00     0.154 HD
ENDROOT
TORSDOF 0
ENDMDL
MODEL 7
REMARK VINA RESULT:      -8.5      4.494      6.563
REMARK  0 active torsions:
REMARK  status: ('A' for Active; 'I' for Inactive)
ROOT
HETATM    1  C   UNK N   1      22.259  14.567   1.648  0.00  0.00     0.004 A 
HETATM    2  C   UNK N   1      21.267  15.568   1.979  0.00  0.00     0.048 A 
HETATM    3  C   UNK N   1      21.845  13.411   0.914  0.00  0.00    -0.024 A 
HETATM    4  C   UNK N   1      23.630  14.661   1.980  0.00  0.00     0.052 A 
HETATM    5  N   UNK N   1      21.494  16.820   2.689  0.00  0.00    -0.315 N 
HETATM    6  C   UNK N   1      19.944  15.330   1.553  0.00  0.00     0.030 A 
HETATM    7  C   UNK N   1      22.756  12.422   0.562  0.00  0.00     0.015 A 
HETATM    8  C   UNK N   1      20.524  13.239   0.527  0.00  0.00     0.012 A 
HETATM    9  C   UNK N   1      24.533  13.646   1.637  0.00  0.00     0.077 A 
HETATM   10  C   UNK N   1      20.459  17.829   2.745  0.00  0.00     0.135 C 
HETATM   11  C   UNK N   1      22.551  17.207   3.426  0.00  0.00     0.246 C 
HETATM   12  C   UNK N   1      19.575  14.191   0.848  0.00  0.00     0.003 A 
HETATM   13  C   UNK N   1      24.082  12.538   0.929  0.00  0.00     0.038 A 
HETATM   14  O   UNK N   1      25.851  13.666   1.925  0.00  0.00    -0.309 OA
HETATM   15  C   UNK N   1      21.136  19.065   3.371  0.00  0.00     0.054 C 
HETATM   16  C   UNK N   1      22.365  18.524   4.103  0.00  0.00     0.171 C 
HETATM   17  C   UNK N   1      26.756  14.562   2.395  0.00  0.00     0.097 A 
HETATM   18  C   UNK N   1      28.098  14.185   2.270  0.00  0.00     0.078 A 
HETATM   19  C   UNK N   1      26.436  15.848   2.883  0.00  0.00     0.047 A 
HETATM   20  C   UNK N   1      24.568  18.667   4.793  0.00  0.00     0.173 C 
HETATM   21  C   UNK N   1      29.117  15.045   2.683  0.00  0.00     0.026 A 
HETATM   22  C   UNK N   1      28.402  12.933   1.608  0.00  0.00     0.102 C 
HETATM   23  C   UNK N   1      27.464  16.739   3.278  0.00  0.00    -0.037 A 
HETATM   24  C   UNK N   1      25.858  19.342   5.065  0.00  0.00     0.045 A 
HETATM   25  C   UNK N   1      28.802  16.323   3.162  0.00  0.00     0.010 A 
HETATM   26  N   UNK N   1      28.581  11.923   1.072  0.00  0.00    -0.191 NA
HETATM   27  C   UNK N   1      27.182  18.227   3.248  0.00  0.00     0.168 C 
HETATM   28  N   UNK N   1      27.018  19.027   4.467  0.00  0.00    -0.340 N 
HETATM   29  C   UNK N   1      26.090  20.291   6.033  0.00  0.00     0.115 A 
HETATM   30  C   UNK N   1      27.950  19.816   5.035  0.00  0.00     0.183 A 
HETATM   31  N   UNK N   1      27.409  20.586   6.010  0.00  0.00    -0.360 N 
ATOM     32  HN  UNK N   1      27.898  21.252   6.606  1.00  0.00     0.166 HD
HETATM   33  O   UNK N   1      23.518  16.507   3.646  0.00  0.00    -0.271 OA
HETATM   34  N   UNK N   1      23.553  19.394   4.023  0.00  0.00    -0.404 N 
HETATM   35  H   UNK N   1      23.646  20.290   3.545  0.00  0.00     0.154 HD
ENDROOT
TORSDOF 0
ENDMDL
MODEL 8
REMARK VINA RESULT:      -8.3      9.647     11.277
REMARK  0 active torsions:
REMARK  status: ('A' for Active; 'I' for Inactive)
ROOT
HETATM    1  C   UNK N   1      28.637  16.544   4.609  0.00  0.00     0.004 A 
HETATM    2  C   UNK N   1      28.232  17.358   5.735  0.00  0.00     0.048 A 
HETATM    3  C   UNK N   1      27.774  16.473   3.471  0.00  0.00    -0.024 A 
HETATM    4  C   UNK N   1      29.852  15.824   4.540  0.00  0.00     0.052 A 
HETATM    5  N   UNK N   1      28.980  17.582   6.965  0.00  0.00    -0.315 N 
HETATM    6  C   UNK N   1      26.996  18.030   5.632  0.00  0.00     0.030 A 
HETATM    7  C   UNK N   1      28.116  15.714   2.358  0.00  0.00     0.015 A 
HETATM    8  C   UNK N   1      26.569  17.161   3.437  0.00  0.00     0.012 A 
HETATM    9  C   UNK N   1      30.174  15.046   3.420  0.00  0.00     0.077 A 
HETATM   10  C   UNK N   1      28.562  18.600   7.902  0.00  0.00     0.135 C 
HETATM   11  C   UNK N   1      30.032  16.905   7.461  0.00  0.00     0.246 C 
HETATM   12  C   UNK N   1      26.178  17.932   4.514  0.00  0.00     0.003 A 
HETATM   13  C   UNK N   1      29.300  15.002   2.341  0.00  0.00     0.038 A 
HETATM   14  O   UNK N   1      31.310  14.331   3.289  0.00  0.00    -0.309 OA
HETATM   15  C   UNK N   1      29.702  18.686   8.938  0.00  0.00     0.054 C 
HETATM   16  C   UNK N   1      30.455  17.360   8.818  0.00  0.00     0.171 C 
HETATM   17  C   UNK N   1      32.497  14.212   3.938  0.00  0.00     0.097 A 
HETATM   18  C   UNK N   1      33.493  13.511   3.250  0.00  0.00     0.078 A 
HETATM   19  C   UNK N   1      32.802  14.828   5.172  0.00  0.00     0.047 A 
HETATM   20  C   UNK N   1      32.391  16.095   8.820  0.00  0.00     0.173 C 
HETATM   21  C   UNK N   1      34.766  13.363   3.804  0.00  0.00     0.026 A 
HETATM   22  C   UNK N   1      33.204  13.040   1.911  0.00  0.00     0.102 C 
HETATM   23  C   UNK N   1      34.099  14.707   5.729  0.00  0.00    -0.037 A 
HETATM   24  C   UNK N   1      33.821  15.813   9.083  0.00  0.00     0.045 A 
HETATM   25  C   UNK N   1      35.073  13.977   5.025  0.00  0.00     0.010 A 
HETATM   26  N   UNK N   1      32.911  12.688   0.848  0.00  0.00    -0.191 NA
HETATM   27  C   UNK N   1      34.576  15.776   6.689  0.00  0.00     0.168 C 
HETATM   28  N   UNK N   1      34.726  15.538   8.130  0.00  0.00    -0.340 N 
HETATM   29  C   UNK N   1      34.408  15.673  10.319  0.00  0.00     0.115 A 
HETATM   30  C   UNK N   1      35.876  15.277   8.779  0.00  0.00     0.183 A 
HETATM   31  N   UNK N   1      35.702  15.335  10.122  0.00  0.00    -0.360 N 
ATOM     32  HN  UNK N   1      36.405  15.160  10.839  1.00  0.00     0.166 HD
HETATM   33  O   UNK N   1      30.519  15.926   6.936  0.00  0.00    -0.271 OA
HETATM   34  N   UNK N   1      31.917  17.475   8.966  0.00  0.00    -0.404 N 
HETATM   35  H   UNK N   1      32.470  18.316   9.130  0.00  0.00     0.154 HD
ENDROOT
TORSDOF 0
ENDMDL
MODEL 9
REMARK VINA RESULT:      -8.0      4.364      7.457
REMARK  0 active torsions:
REMARK  status: ('A' for Active; 'I' for Inactive)
ROOT
HETATM    1  C   UNK N   1      26.645  17.409   4.197  0.00  0.00     0.004 A 
HETATM    2  C   UNK N   1      27.598  16.338   3.996  0.00  0.00     0.048 A 
HETATM    3  C   UNK N   1      27.123  18.672   4.668  0.00  0.00    -0.024 A 
HETATM    4  C   UNK N   1      25.259  17.303   3.935  0.00  0.00     0.052 A 
HETATM    5  N   UNK N   1      27.316  15.000   3.498  0.00  0.00    -0.315 N 
HETATM    6  C   UNK N   1      28.950  16.618   4.285  0.00  0.00     0.030 A 
HETATM    7  C   UNK N   1      26.254  19.737   4.871  0.00  0.00     0.015 A 
HETATM    8  C   UNK N   1      28.469  18.877   4.935  0.00  0.00     0.012 A 
HETATM    9  C   UNK N   1      24.392  18.379   4.164  0.00  0.00     0.077 A 
HETATM   10  C   UNK N   1      28.395  14.112   3.128  0.00  0.00     0.135 C 
HETATM   11  C   UNK N   1      26.137  14.361   3.382  0.00  0.00     0.246 C 
HETATM   12  C   UNK N   1      29.380  17.855   4.750  0.00  0.00     0.003 A 
HETATM   13  C   UNK N   1      24.903  19.586   4.629  0.00  0.00     0.038 A 
HETATM   14  O   UNK N   1      23.061  18.348   3.942  0.00  0.00    -0.309 OA
HETATM   15  C   UNK N   1      27.711  12.905   2.453  0.00  0.00     0.054 C 
HETATM   16  C   UNK N   1      26.261  12.941   2.938  0.00  0.00     0.171 C 
HETATM   17  C   UNK N   1      22.168  17.522   3.340  0.00  0.00     0.097 A 
HETATM   18  C   UNK N   1      20.895  18.062   3.127  0.00  0.00     0.078 A 
HETATM   19  C   UNK N   1      22.474  16.237   2.838  0.00  0.00     0.047 A 
HETATM   20  C   UNK N   1      23.986  12.667   2.623  0.00  0.00     0.173 C 
HETATM   21  C   UNK N   1      19.909  17.316   2.479  0.00  0.00     0.026 A 
HETATM   22  C   UNK N   1      20.662  19.443   3.498  0.00  0.00     0.102 C 
HETATM   23  C   UNK N   1      21.489  15.485   2.155  0.00  0.00    -0.037 A 
HETATM   24  C   UNK N   1      22.766  12.187   1.936  0.00  0.00     0.045 A 
HETATM   25  C   UNK N   1      20.211  16.044   1.976  0.00  0.00     0.010 A 
HETATM   26  N   UNK N   1      20.538  20.549   3.816  0.00  0.00    -0.191 NA
HETATM   27  C   UNK N   1      21.941  14.429   1.166  0.00  0.00     0.168 C 
HETATM   28  N   UNK N   1      21.817  12.991   1.430  0.00  0.00    -0.340 N 
HETATM   29  C   UNK N   1      22.361  10.878   1.816  0.00  0.00     0.115 A 
HETATM   30  C   UNK N   1      20.856  12.174   0.959  0.00  0.00     0.183 A 
HETATM   31  N   UNK N   1      21.159  10.875   1.200  0.00  0.00    -0.360 N 
ATOM     32  HN  UNK N   1      20.593  10.060   0.965  1.00  0.00     0.166 HD
HETATM   33  O   UNK N   1      25.073  14.830   3.730  0.00  0.00    -0.271 OA
HETATM   34  N   UNK N   1      25.268  12.559   1.918  0.00  0.00    -0.404 N 
HETATM   35  H   UNK N   1      25.433  12.284   0.950  0.00  0.00     0.154 HD
ENDROOT
TORSDOF 0
ENDMDL
