REMARK  0 active torsions:
REMARK  status: ('A' for Active; 'I' for Inactive)
ROOT
HETATM    1  C   UNK N   1      -2.818   0.202  -0.005  0.00  0.00     0.004 A 
HETATM    2  C   UNK N   1      -2.711   1.641  -0.126  0.00  0.00     0.048 A 
HETATM    3  C   UNK N   1      -4.120  -0.389  -0.006  0.00  0.00    -0.024 A 
HETATM    4  C   UNK N   1      -1.713  -0.675   0.090  0.00  0.00     0.052 A 
HETATM    5  N   UNK N   1      -1.484   2.424  -0.175  0.00  0.00    -0.315 N 
HETATM    6  C   UNK N   1      -3.914   2.369  -0.234  0.00  0.00     0.030 A 
HETATM    7  C   UNK N   1      -4.282  -1.765   0.099  0.00  0.00     0.015 A 
HETATM    8  C   UNK N   1      -5.264   0.389  -0.114  0.00  0.00     0.012 A 
HETATM    9  C   UNK N   1      -1.892  -2.059   0.216  0.00  0.00     0.077 A 
HETATM   10  C   UNK N   1      -1.522   3.825  -0.531  0.00  0.00     0.135 C 
HETATM   11  C   UNK N   1      -0.228   2.068   0.151  0.00  0.00     0.246 C 
HETATM   12  C   UNK N   1      -5.164   1.762  -0.223  0.00  0.00     0.003 A 
HETATM   13  C   UNK N   1      -3.178  -2.587   0.218  0.00  0.00     0.038 A 
HETATM   14  O   UNK N   1      -0.887  -2.953   0.317  0.00  0.00    -0.309 OA
HETATM   15  C   UNK N   1      -0.045   4.240  -0.690  0.00  0.00     0.054 C 
HETATM   16  C   UNK N   1       0.754   3.190   0.083  0.00  0.00     0.171 C 
HETATM   17  C   UNK N   1       0.463  -2.958   0.173  0.00  0.00     0.097 A 
HETATM   18  C   UNK N   1       1.059  -4.223   0.118  0.00  0.00     0.078 A 
HETATM   19  C   UNK N   1       1.254  -1.805  -0.027  0.00  0.00     0.047 A 
HETATM   20  C   UNK N   1       2.593   1.818   0.374  0.00  0.00     0.173 C 
HETATM   21  C   UNK N   1       2.436  -4.350  -0.069  0.00  0.00     0.026 A 
HETATM   22  C   UNK N   1       0.201  -5.390   0.153  0.00  0.00     0.102 C 
HETATM   23  C   UNK N   1       2.648  -1.925  -0.246  0.00  0.00    -0.037 A 
HETATM   24  C   UNK N   1       3.973   1.339   0.132  0.00  0.00     0.045 A 
HETATM   25  C   UNK N   1       3.222  -3.208  -0.273  0.00  0.00     0.010 A 
HETATM   26  N   UNK N   1      -0.536  -6.282   0.187  0.00  0.00    -0.191 NA
HETATM   27  C   UNK N   1       3.360  -0.818  -0.996  0.00  0.00     0.168 C 
HETATM   28  N   UNK N   1       4.279   0.120  -0.340  0.00  0.00    -0.340 N 
HETATM   29  C   UNK N   1       5.133   2.003   0.457  0.00  0.00     0.115 A 
HETATM   30  C   UNK N   1       5.624   0.056  -0.349  0.00  0.00     0.183 A 
HETATM   31  N   UNK N   1       6.169   1.191   0.152  0.00  0.00    -0.360 N 
ATOM     32  HN  UNK N   1       7.161   1.392   0.275  1.00  0.00     0.166 HD
HETATM   33  O   UNK N   1       0.076   0.980   0.594  0.00  0.00    -0.271 OA
HETATM   34  N   UNK N   1       2.031   2.811  -0.548  0.00  0.00    -0.404 N 
HETATM   35  H   UNK N   1       2.430   3.157  -1.420  0.00  0.00     0.154 HD
ENDROOT
TORSDOF 0
