MODEL 1
REMARK VINA RESULT:      -6.1      0.000      0.000
REMARK  4 active torsions:
REMARK  status: ('A' for Active; 'I' for Inactive)
REMARK       I    between atoms: C_2  and  N_3 
REMARK    1  A    between atoms: C_2  and  C_13 
REMARK    2  A    between atoms: N_3  and  C_5 
REMARK    3  A    between atoms: C_9  and  C_10 
REMARK    4  A    between atoms: C_13  and  C_14 
ROOT
HETATM    1  O   UNK N   1      35.879  17.352  10.592  0.00  0.00    -0.273 OA
HETATM    2  C   UNK N   1      35.081  16.839   9.825  0.00  0.00     0.227 C 
HETATM    3  N   UNK N   1      34.025  17.584   9.380  0.00  0.00    -0.307 N 
ATOM      4  HN  UNK N   1      33.914  18.506   9.804  1.00  0.00     0.171 HD
ENDROOT
BRANCH   3   5
HETATM    5  C   UNK N   1      33.150  17.261   8.484  0.00  0.00     0.151 A 
HETATM    6  N   UNK N   1      31.918  16.786   8.804  0.00  0.00    -0.345 N 
HETATM    7  C   UNK N   1      31.114  16.609   7.694  0.00  0.00     0.105 A 
HETATM    8  H   UNK N   1      31.631  16.589   9.725  0.00  0.00     0.167 HD
HETATM    9  C   UNK N   1      31.722  16.957   6.473  0.00  0.00     0.005 A 
HETATM   10  S   UNK N   1      33.250  17.447   6.840  0.00  0.00    -0.057 SA
BRANCH   9  11
HETATM   11  C   UNK N   1      31.128  16.952   5.094  0.00  0.00     0.019 C 
HETATM   12  C   UNK N   1      29.780  17.650   5.051  0.00  0.00     0.015 C 
HETATM   13  C   UNK N   1      32.068  17.645   4.124  0.00  0.00     0.015 C 
ENDBRANCH   9  11
ENDBRANCH   3   5
BRANCH   2  14
HETATM   14  C   UNK N   1      35.266  15.384   9.471  0.00  0.00     0.143 C 
BRANCH  14  15
HETATM   15  C   UNK N   1      35.762  14.537  10.602  0.00  0.00    -0.034 A 
HETATM   16  C   UNK N   1      34.900  14.235  11.658  0.00  0.00     0.010 A 
HETATM   17  C   UNK N   1      35.357  13.480  12.738  0.00  0.00     0.018 A 
HETATM   18  C   UNK N   1      36.681  13.043  12.750  0.00  0.00     0.087 A 
HETATM   19  N   UNK N   1      37.512  13.350  11.716  0.00  0.00    -0.375 N 
HETATM   20  C   UNK N   1      37.084  14.086  10.653  0.00  0.00     0.095 A 
ATOM     21  HN  UNK N   1      38.478  13.024  11.740  1.00  0.00     0.164 HD
ENDBRANCH  14  15
ENDBRANCH   2  14
TORSDOF 4
ENDMDL
MODEL 2
REMARK VINA RESULT:      -6.0      2.432      6.905
REMARK  4 active torsions:
REMARK  status: ('A' for Active; 'I' for Inactive)
REMARK       I    between atoms: C_2  and  N_3 
REMARK    1  A    between atoms: C_2  and  C_13 
REMARK    2  A    between atoms: N_3  and  C_5 
REMARK    3  A    between atoms: C_9  and  C_10 
REMARK    4  A    between atoms: C_13  and  C_14 
ROOT
HETATM    1  O   UNK N   1      31.326  17.608   7.671  0.00  0.00    -0.273 OA
HETATM    2  C   UNK N   1      32.490  17.332   7.908  0.00  0.00     0.227 C 
HETATM    3  N   UNK N   1      32.788  16.680   9.072  0.00  0.00    -0.307 N 
ATOM      4  HN  UNK N   1      32.015  16.553   9.727  1.00  0.00     0.171 HD
ENDROOT
BRANCH   3   5
HETATM    5  C   UNK N   1      33.932  16.204   9.442  0.00  0.00     0.151 A 
HETATM    6  N   UNK N   1      34.745  16.852  10.316  0.00  0.00    -0.345 N 
HETATM    7  C   UNK N   1      35.862  16.112  10.650  0.00  0.00     0.105 A 
HETATM    8  H   UNK N   1      34.558  17.752  10.671  0.00  0.00     0.167 HD
HETATM    9  C   UNK N   1      35.930  14.848  10.032  0.00  0.00     0.005 A 
HETATM   10  S   UNK N   1      34.597  14.731   9.074  0.00  0.00    -0.057 SA
BRANCH   9  11
HETATM   11  C   UNK N   1      36.957  13.769  10.213  0.00  0.00     0.019 C 
HETATM   12  C   UNK N   1      38.330  14.201   9.730  0.00  0.00     0.015 C 
HETATM   13  C   UNK N   1      37.053  13.388  11.679  0.00  0.00     0.015 C 
ENDBRANCH   9  11
ENDBRANCH   3   5
BRANCH   2  14
HETATM   14  C   UNK N   1      33.546  17.796   6.935  0.00  0.00     0.143 C 
BRANCH  14  15
HETATM   15  C   UNK N   1      33.523  17.081   5.620  0.00  0.00    -0.034 A 
HETATM   16  C   UNK N   1      32.866  17.666   4.535  0.00  0.00     0.010 A 
HETATM   17  C   UNK N   1      32.801  16.997   3.314  0.00  0.00     0.018 A 
HETATM   18  C   UNK N   1      33.391  15.739   3.196  0.00  0.00     0.087 A 
HETATM   19  N   UNK N   1      34.023  15.177   4.263  0.00  0.00    -0.375 N 
HETATM   20  C   UNK N   1      34.097  15.816   5.464  0.00  0.00     0.095 A 
ATOM     21  HN  UNK N   1      34.449  14.256   4.162  1.00  0.00     0.164 HD
ENDBRANCH  14  15
ENDBRANCH   2  14
TORSDOF 4
ENDMDL
MODEL 3
REMARK VINA RESULT:      -5.9      3.430      7.584
REMARK  4 active torsions:
REMARK  status: ('A' for Active; 'I' for Inactive)
REMARK       I    between atoms: C_2  and  N_3 
REMARK    1  A    between atoms: C_2  and  C_13 
REMARK    2  A    between atoms: N_3  and  C_5 
REMARK    3  A    between atoms: C_9  and  C_10 
REMARK    4  A    between atoms: C_13  and  C_14 
ROOT
HETATM    1  O   UNK N   1      38.158  13.914   9.363  0.00  0.00    -0.273 OA
HETATM    2  C   UNK N   1      37.318  13.668  10.213  0.00  0.00     0.227 C 
HETATM    3  N   UNK N   1      37.733  13.355  11.478  0.00  0.00    -0.307 N 
ATOM      4  HN  UNK N   1      38.739  13.246  11.606  1.00  0.00     0.171 HD
ENDROOT
BRANCH   3   5
HETATM    5  C   UNK N   1      37.002  13.181  12.529  0.00  0.00     0.151 A 
HETATM    6  N   UNK N   1      36.696  14.192  13.383  0.00  0.00    -0.345 N 
HETATM    7  C   UNK N   1      35.816  13.802  14.375  0.00  0.00     0.105 A 
HETATM    8  H   UNK N   1      37.061  15.103  13.304  0.00  0.00     0.167 HD
HETATM    9  C   UNK N   1      35.414  12.454  14.299  0.00  0.00     0.005 A 
HETATM   10  S   UNK N   1      36.202  11.809  13.006  0.00  0.00    -0.057 SA
BRANCH   9  11
HETATM   11  C   UNK N   1      34.431  11.719  15.163  0.00  0.00     0.019 C 
HETATM   12  C   UNK N   1      33.634  10.695  14.376  0.00  0.00     0.015 C 
HETATM   13  C   UNK N   1      35.163  11.010  16.289  0.00  0.00     0.015 C 
ENDBRANCH   9  11
ENDBRANCH   3   5
BRANCH   2  14
HETATM   14  C   UNK N   1      35.867  13.650   9.798  0.00  0.00     0.143 C 
BRANCH  14  15
HETATM   15  C   UNK N   1      35.310  14.998   9.461  0.00  0.00    -0.034 A 
HETATM   16  C   UNK N   1      34.988  15.293   8.135  0.00  0.00     0.010 A 
HETATM   17  C   UNK N   1      34.504  16.556   7.797  0.00  0.00     0.018 A 
HETATM   18  C   UNK N   1      34.356  17.517   8.798  0.00  0.00     0.087 A 
HETATM   19  N   UNK N   1      34.680  17.218  10.086  0.00  0.00    -0.375 N 
HETATM   20  C   UNK N   1      35.153  15.989  10.435  0.00  0.00     0.095 A 
ATOM     21  HN  UNK N   1      34.567  17.930  10.806  1.00  0.00     0.164 HD
ENDBRANCH  14  15
ENDBRANCH   2  14
TORSDOF 4
ENDMDL
MODEL 4
REMARK VINA RESULT:      -5.9      2.120      7.074
REMARK  4 active torsions:
REMARK  status: ('A' for Active; 'I' for Inactive)
REMARK       I    between atoms: C_2  and  N_3 
REMARK    1  A    between atoms: C_2  and  C_13 
REMARK    2  A    between atoms: N_3  and  C_5 
REMARK    3  A    between atoms: C_9  and  C_10 
REMARK    4  A    between atoms: C_13  and  C_14 
ROOT
HETATM    1  O   UNK N   1      34.452  18.996   8.209  0.00  0.00    -0.273 OA
HETATM    2  C   UNK N   1      34.617  17.832   8.535  0.00  0.00     0.227 C 
HETATM    3  N   UNK N   1      34.997  17.556   9.819  0.00  0.00    -0.307 N 
ATOM      4  HN  UNK N   1      35.220  18.362  10.405  1.00  0.00     0.171 HD
ENDROOT
BRANCH   3   5
HETATM    5  C   UNK N   1      35.107  16.396  10.379  0.00  0.00     0.151 A 
HETATM    6  N   UNK N   1      34.028  15.650  10.732  0.00  0.00    -0.345 N 
HETATM    7  C   UNK N   1      34.379  14.404  11.214  0.00  0.00     0.105 A 
HETATM    8  H   UNK N   1      33.097  15.964  10.654  0.00  0.00     0.167 HD
HETATM    9  C   UNK N   1      35.766  14.158  11.236  0.00  0.00     0.005 A 
HETATM   10  S   UNK N   1      36.486  15.526  10.673  0.00  0.00    -0.057 SA
BRANCH   9  11
HETATM   11  C   UNK N   1      36.490  12.904  11.631  0.00  0.00     0.019 C 
HETATM   12  C   UNK N   1      37.873  12.824  11.012  0.00  0.00     0.015 C 
HETATM   13  C   UNK N   1      36.626  12.841  13.142  0.00  0.00     0.015 C 
ENDBRANCH   9  11
ENDBRANCH   3   5
BRANCH   2  14
HETATM   14  C   UNK N   1      34.467  16.767   7.477  0.00  0.00     0.143 C 
BRANCH  14  15
HETATM   15  C   UNK N   1      33.286  16.961   6.577  0.00  0.00    -0.034 A 
HETATM   16  C   UNK N   1      33.494  17.348   5.251  0.00  0.00     0.010 A 
HETATM   17  C   UNK N   1      32.405  17.570   4.410  0.00  0.00     0.018 A 
HETATM   18  C   UNK N   1      31.113  17.411   4.912  0.00  0.00     0.087 A 
HETATM   19  N   UNK N   1      30.925  17.040   6.209  0.00  0.00    -0.375 N 
HETATM   20  C   UNK N   1      31.976  16.817   7.046  0.00  0.00     0.095 A 
ATOM     21  HN  UNK N   1      29.975  16.928   6.562  1.00  0.00     0.164 HD
ENDBRANCH  14  15
ENDBRANCH   2  14
TORSDOF 4
ENDMDL
MODEL 5
REMARK VINA RESULT:      -5.7      4.192      6.258
REMARK  4 active torsions:
REMARK  status: ('A' for Active; 'I' for Inactive)
REMARK       I    between atoms: C_2  and  N_3 
REMARK    1  A    between atoms: C_2  and  C_13 
REMARK    2  A    between atoms: N_3  and  C_5 
REMARK    3  A    between atoms: C_9  and  C_10 
REMARK    4  A    between atoms: C_13  and  C_14 
ROOT
HETATM    1  O   UNK N   1      37.485  14.353  15.717  0.00  0.00    -0.273 OA
HETATM    2  C   UNK N   1      36.624  14.116  14.886  0.00  0.00     0.227 C 
HETATM    3  N   UNK N   1      36.814  14.545  13.602  0.00  0.00    -0.307 N 
ATOM      4  HN  UNK N   1      37.631  15.135  13.440  1.00  0.00     0.171 HD
ENDROOT
BRANCH   3   5
HETATM    5  C   UNK N   1      36.081  14.291  12.567  0.00  0.00     0.151 A 
HETATM    6  N   UNK N   1      35.844  13.027  12.131  0.00  0.00    -0.345 N 
HETATM    7  C   UNK N   1      34.950  12.987  11.079  0.00  0.00     0.105 A 
HETATM    8  H   UNK N   1      36.265  12.226  12.522  0.00  0.00     0.167 HD
HETATM    9  C   UNK N   1      34.465  14.247  10.679  0.00  0.00     0.005 A 
HETATM   10  S   UNK N   1      35.201  15.354  11.649  0.00  0.00    -0.057 SA
BRANCH   9  11
HETATM   11  C   UNK N   1      33.445  14.569   9.626  0.00  0.00     0.019 C 
HETATM   12  C   UNK N   1      33.694  15.921   8.984  0.00  0.00     0.015 C 
HETATM   13  C   UNK N   1      33.465  13.502   8.545  0.00  0.00     0.015 C 
ENDBRANCH   9  11
ENDBRANCH   3   5
BRANCH   2  14
HETATM   14  C   UNK N   1      35.362  13.427  15.343  0.00  0.00     0.143 C 
BRANCH  14  15
HETATM   15  C   UNK N   1      35.384  12.999  16.778  0.00  0.00    -0.034 A 
HETATM   16  C   UNK N   1      35.539  11.646  17.085  0.00  0.00     0.010 A 
HETATM   17  C   UNK N   1      35.523  11.225  18.414  0.00  0.00     0.018 A 
HETATM   18  C   UNK N   1      35.341  12.170  19.425  0.00  0.00     0.087 A 
HETATM   19  N   UNK N   1      35.183  13.485  19.110  0.00  0.00    -0.375 N 
HETATM   20  C   UNK N   1      35.197  13.915  17.818  0.00  0.00     0.095 A 
ATOM     21  HN  UNK N   1      35.050  14.164  19.859  1.00  0.00     0.164 HD
ENDBRANCH  14  15
ENDBRANCH   2  14
TORSDOF 4
ENDMDL
MODEL 6
REMARK VINA RESULT:      -5.6     17.935     19.825
REMARK  4 active torsions:
REMARK  status: ('A' for Active; 'I' for Inactive)
REMARK       I    between atoms: C_2  and  N_3 
REMARK    1  A    between atoms: C_2  and  C_13 
REMARK    2  A    between atoms: N_3  and  C_5 
REMARK    3  A    between atoms: C_9  and  C_10 
REMARK    4  A    between atoms: C_13  and  C_14 
ROOT
HETATM    1  O   UNK N   1      25.861  27.687  -2.630  0.00  0.00    -0.273 OA
HETATM    2  C   UNK N   1      25.967  27.005  -3.636  0.00  0.00     0.227 C 
HETATM    3  N   UNK N   1      26.491  25.747  -3.526  0.00  0.00    -0.307 N 
ATOM      4  HN  UNK N   1      26.861  25.492  -2.610  1.00  0.00     0.171 HD
ENDROOT
BRANCH   3   5
HETATM    5  C   UNK N   1      26.574  24.842  -4.446  0.00  0.00     0.151 A 
HETATM    6  N   UNK N   1      25.479  24.279  -5.019  0.00  0.00    -0.345 N 
HETATM    7  C   UNK N   1      25.802  23.417  -6.049  0.00  0.00     0.105 A 
HETATM    8  H   UNK N   1      24.555  24.465  -4.730  0.00  0.00     0.167 HD
HETATM    9  C   UNK N   1      27.183  23.302  -6.300  0.00  0.00     0.005 A 
HETATM   10  S   UNK N   1      27.935  24.267  -5.199  0.00  0.00    -0.057 SA
BRANCH   9  11
HETATM   11  C   UNK N   1      27.879  22.515  -7.372  0.00  0.00     0.019 C 
HETATM   12  C   UNK N   1      29.065  21.737  -6.831  0.00  0.00     0.015 C 
HETATM   13  C   UNK N   1      26.906  21.541  -8.012  0.00  0.00     0.015 C 
ENDBRANCH   9  11
ENDBRANCH   3   5
BRANCH   2  14
HETATM   14  C   UNK N   1      25.582  27.620  -4.959  0.00  0.00     0.143 C 
BRANCH  14  15
HETATM   15  C   UNK N   1      26.705  28.322  -5.658  0.00  0.00    -0.034 A 
HETATM   16  C   UNK N   1      27.239  27.765  -6.822  0.00  0.00     0.010 A 
HETATM   17  C   UNK N   1      28.311  28.385  -7.464  0.00  0.00     0.018 A 
HETATM   18  C   UNK N   1      28.843  29.556  -6.924  0.00  0.00     0.087 A 
HETATM   19  N   UNK N   1      28.316  30.083  -5.784  0.00  0.00    -0.375 N 
HETATM   20  C   UNK N   1      27.269  29.493  -5.143  0.00  0.00     0.095 A 
ATOM     21  HN  UNK N   1      28.716  30.939  -5.401  1.00  0.00     0.164 HD
ENDBRANCH  14  15
ENDBRANCH   2  14
TORSDOF 4
ENDMDL
MODEL 7
REMARK VINA RESULT:      -5.5     14.134     16.384
REMARK  4 active torsions:
REMARK  status: ('A' for Active; 'I' for Inactive)
REMARK       I    between atoms: C_2  and  N_3 
REMARK    1  A    between atoms: C_2  and  C_13 
REMARK    2  A    between atoms: N_3  and  C_5 
REMARK    3  A    between atoms: C_9  and  C_10 
REMARK    4  A    between atoms: C_13  and  C_14 
ROOT
HETATM    1  O   UNK N   1      30.759  24.839  -2.877  0.00  0.00    -0.273 OA
HETATM    2  C   UNK N   1      29.845  24.176  -3.337  0.00  0.00     0.227 C 
HETATM    3  N   UNK N   1      28.955  24.780  -4.182  0.00  0.00    -0.307 N 
ATOM      4  HN  UNK N   1      29.056  25.789  -4.295  1.00  0.00     0.171 HD
ENDROOT
BRANCH   3   5
HETATM    5  C   UNK N   1      28.001  24.223  -4.854  0.00  0.00     0.151 A 
HETATM    6  N   UNK N   1      26.697  24.312  -4.483  0.00  0.00    -0.345 N 
HETATM    7  C   UNK N   1      25.843  23.736  -5.404  0.00  0.00     0.105 A 
HETATM    8  H   UNK N   1      26.394  24.739  -3.648  0.00  0.00     0.167 HD
HETATM    9  C   UNK N   1      26.485  23.187  -6.530  0.00  0.00     0.005 A 
HETATM   10  S   UNK N   1      28.098  23.427  -6.304  0.00  0.00    -0.057 SA
BRANCH   9  11
HETATM   11  C   UNK N   1      25.871  22.548  -7.742  0.00  0.00     0.019 C 
HETATM   12  C   UNK N   1      24.790  21.549  -7.374  0.00  0.00     0.015 C 
HETATM   13  C   UNK N   1      25.267  23.615  -8.638  0.00  0.00     0.015 C 
ENDBRANCH   9  11
ENDBRANCH   3   5
BRANCH   2  14
HETATM   14  C   UNK N   1      29.705  22.743  -2.886  0.00  0.00     0.143 C 
BRANCH  14  15
HETATM   15  C   UNK N   1      30.737  21.819  -3.453  0.00  0.00    -0.034 A 
HETATM   16  C   UNK N   1      30.445  21.099  -4.614  0.00  0.00     0.010 A 
HETATM   17  C   UNK N   1      31.379  20.205  -5.135  0.00  0.00     0.018 A 
HETATM   18  C   UNK N   1      32.598  20.036  -4.478  0.00  0.00     0.087 A 
HETATM   19  N   UNK N   1      32.867  20.739  -3.343  0.00  0.00    -0.375 N 
HETATM   20  C   UNK N   1      31.967  21.618  -2.820  0.00  0.00     0.095 A 
ATOM     21  HN  UNK N   1      33.762  20.604  -2.874  1.00  0.00     0.164 HD
ENDBRANCH  14  15
ENDBRANCH   2  14
TORSDOF 4
ENDMDL
MODEL 8
REMARK VINA RESULT:      -5.5      2.777      7.502
REMARK  4 active torsions:
REMARK  status: ('A' for Active; 'I' for Inactive)
REMARK       I    between atoms: C_2  and  N_3 
REMARK    1  A    between atoms: C_2  and  C_13 
REMARK    2  A    between atoms: N_3  and  C_5 
REMARK    3  A    between atoms: C_9  and  C_10 
REMARK    4  A    between atoms: C_13  and  C_14 
ROOT
HETATM    1  O   UNK N   1      36.060  17.328  10.560  0.00  0.00    -0.273 OA
HETATM    2  C   UNK N   1      35.624  16.219  10.820  0.00  0.00     0.227 C 
HETATM    3  N   UNK N   1      36.381  15.378  11.589  0.00  0.00    -0.307 N 
ATOM      4  HN  UNK N   1      37.322  15.701  11.816  1.00  0.00     0.171 HD
ENDROOT
BRANCH   3   5
HETATM    5  C   UNK N   1      36.045  14.223  12.063  0.00  0.00     0.151 A 
HETATM    6  N   UNK N   1      36.007  13.102  11.297  0.00  0.00    -0.345 N 
HETATM    7  C   UNK N   1      35.728  11.966  12.033  0.00  0.00     0.105 A 
HETATM    8  H   UNK N   1      36.161  13.099  10.325  0.00  0.00     0.167 HD
HETATM    9  C   UNK N   1      35.548  12.195  13.411  0.00  0.00     0.005 A 
HETATM   10  S   UNK N   1      35.722  13.816  13.637  0.00  0.00    -0.057 SA
BRANCH   9  11
HETATM   11  C   UNK N   1      35.298  11.196  14.503  0.00  0.00     0.019 C 
HETATM   12  C   UNK N   1      35.682  11.735  15.869  0.00  0.00     0.015 C 
HETATM   13  C   UNK N   1      33.829  10.810  14.524  0.00  0.00     0.015 C 
ENDBRANCH   9  11
ENDBRANCH   3   5
BRANCH   2  14
HETATM   14  C   UNK N   1      34.305  15.810  10.213  0.00  0.00     0.143 C 
BRANCH  14  15
HETATM   15  C   UNK N   1      34.094  16.307   8.816  0.00  0.00    -0.034 A 
HETATM   16  C   UNK N   1      34.705  15.639   7.753  0.00  0.00     0.010 A 
HETATM   17  C   UNK N   1      34.552  16.110   6.450  0.00  0.00     0.018 A 
HETATM   18  C   UNK N   1      33.791  17.258   6.228  0.00  0.00     0.087 A 
HETATM   19  N   UNK N   1      33.207  17.904   7.274  0.00  0.00    -0.375 N 
HETATM   20  C   UNK N   1      33.345  17.458   8.554  0.00  0.00     0.095 A 
ATOM     21  HN  UNK N   1      32.654  18.742   7.096  1.00  0.00     0.164 HD
ENDBRANCH  14  15
ENDBRANCH   2  14
TORSDOF 4
ENDMDL
MODEL 9
REMARK VINA RESULT:      -5.5      4.249      8.534
REMARK  4 active torsions:
REMARK  status: ('A' for Active; 'I' for Inactive)
REMARK       I    between atoms: C_2  and  N_3 
REMARK    1  A    between atoms: C_2  and  C_13 
REMARK    2  A    between atoms: N_3  and  C_5 
REMARK    3  A    between atoms: C_9  and  C_10 
REMARK    4  A    between atoms: C_13  and  C_14 
ROOT
HETATM    1  O   UNK N   1      27.651  16.262   4.484  0.00  0.00    -0.273 OA
HETATM    2  C   UNK N   1      28.667  16.732   4.969  0.00  0.00     0.227 C 
HETATM    3  N   UNK N   1      29.430  15.945   5.787  0.00  0.00    -0.307 N 
ATOM      4  HN  UNK N   1      29.041  15.032   6.024  1.00  0.00     0.171 HD
ENDROOT
BRANCH   3   5
HETATM    5  C   UNK N   1      30.586  16.221   6.295  0.00  0.00     0.151 A 
HETATM    6  N   UNK N   1      31.722  16.259   5.551  0.00  0.00    -0.345 N 
HETATM    7  C   UNK N   1      32.819  16.679   6.278  0.00  0.00     0.105 A 
HETATM    8  H   UNK N   1      31.759  16.013   4.598  0.00  0.00     0.167 HD
HETATM    9  C   UNK N   1      32.543  16.986   7.624  0.00  0.00     0.005 A 
HETATM   10  S   UNK N   1      30.939  16.691   7.845  0.00  0.00    -0.057 SA
BRANCH   9  11
HETATM   11  C   UNK N   1      33.471  17.526   8.673  0.00  0.00     0.019 C 
HETATM   12  C   UNK N   1      34.152  16.419   9.457  0.00  0.00     0.015 C 
HETATM   13  C   UNK N   1      34.536  18.392   8.023  0.00  0.00     0.015 C 
ENDBRANCH   9  11
ENDBRANCH   3   5
BRANCH   2  14
HETATM   14  C   UNK N   1      28.982  18.183   4.699  0.00  0.00     0.143 C 
BRANCH  14  15
HETATM   15  C   UNK N   1      28.133  19.147   5.468  0.00  0.00    -0.034 A 
HETATM   16  C   UNK N   1      27.614  20.269   4.818  0.00  0.00     0.010 A 
HETATM   17  C   UNK N   1      26.853  21.197   5.528  0.00  0.00     0.018 A 
HETATM   18  C   UNK N   1      26.628  20.993   6.889  0.00  0.00     0.087 A 
HETATM   19  N   UNK N   1      27.146  19.898   7.512  0.00  0.00    -0.375 N 
HETATM   20  C   UNK N   1      27.891  18.980   6.835  0.00  0.00     0.095 A 
ATOM     21  HN  UNK N   1      26.974  19.763   8.507  1.00  0.00     0.164 HD
ENDBRANCH  14  15
ENDBRANCH   2  14
TORSDOF 4
ENDMDL
