MODEL 1
REMARK VINA RESULT:      -5.3      0.000      0.000
REMARK  4 active torsions:
REMARK  status: ('A' for Active; 'I' for Inactive)
REMARK    1  A    between atoms: S_2  and  N_5 
REMARK    2  A    between atoms: S_2  and  O_4 
REMARK    3  A    between atoms: N_5  and  C_6 
REMARK    4  A    between atoms: C_9  and  C_10 
ROOT
HETATM    1  C   UNK N   1      28.464  24.207  -3.495  0.00  0.00     0.044 A 
HETATM    2  C   UNK N   1      29.108  25.309  -4.068  0.00  0.00     0.031 A 
HETATM    3  C   UNK N   1      28.360  26.365  -4.596  0.00  0.00     0.009 A 
HETATM    4  C   UNK N   1      26.961  26.326  -4.567  0.00  0.00    -0.058 A 
HETATM    5  C   UNK N   1      26.316  25.222  -3.986  0.00  0.00     0.009 A 
HETATM    6  C   UNK N   1      27.063  24.171  -3.451  0.00  0.00     0.031 A 
ENDROOT
BRANCH   1   7
HETATM    7  N   UNK N   1      29.241  23.123  -3.005  0.00  0.00    -0.273 N 
HETATM    8  H   UNK N   1      28.772  22.339  -2.637  0.00  0.00     0.180 HD
BRANCH   7   9
HETATM    9  S   UNK N   1      31.003  23.119  -3.022  0.00  0.00     0.199 S 
HETATM   10  O   UNK N   1      31.586  21.922  -2.257  0.00  0.00    -0.585 OA
HETATM   11  O   UNK N   1      30.557  21.895  -3.839  0.00  0.00    -0.585 OA
BRANCH   9  12
HETATM   12  O   UNK N   1      30.432  23.098  -1.401  0.00  0.00    -0.279 OA
HETATM   13  H   UNK N   1      29.954  23.353  -0.596  0.00  0.00     0.234 HD
ENDBRANCH   9  12
ENDBRANCH   7   9
ENDBRANCH   1   7
BRANCH   4  14
HETATM   14  C   UNK N   1      26.195  27.465  -5.175  0.00  0.00     0.034 C 
HETATM   15  C   UNK N   1      24.798  27.088  -5.648  0.00  0.00     0.010 C 
ENDBRANCH   4  14
TORSDOF 4
ENDMDL
MODEL 2
REMARK VINA RESULT:      -5.2     13.713     14.918
REMARK  4 active torsions:
REMARK  status: ('A' for Active; 'I' for Inactive)
REMARK    1  A    between atoms: S_2  and  N_5 
REMARK    2  A    between atoms: S_2  and  O_4 
REMARK    3  A    between atoms: N_5  and  C_6 
REMARK    4  A    between atoms: C_9  and  C_10 
ROOT
HETATM    1  C   UNK N   1      33.334  17.197   8.295  0.00  0.00     0.044 A 
HETATM    2  C   UNK N   1      34.155  17.413   7.184  0.00  0.00     0.031 A 
HETATM    3  C   UNK N   1      33.601  17.488   5.902  0.00  0.00     0.009 A 
HETATM    4  C   UNK N   1      32.222  17.336   5.718  0.00  0.00    -0.058 A 
HETATM    5  C   UNK N   1      31.397  17.126   6.835  0.00  0.00     0.009 A 
HETATM    6  C   UNK N   1      31.950  17.059   8.116  0.00  0.00     0.031 A 
ENDROOT
BRANCH   1   7
HETATM    7  N   UNK N   1      33.920  17.079   9.584  0.00  0.00    -0.273 N 
HETATM    8  H   UNK N   1      33.566  17.638  10.313  0.00  0.00     0.180 HD
BRANCH   7   9
HETATM    9  S   UNK N   1      35.252  15.981   9.935  0.00  0.00     0.199 S 
HETATM   10  O   UNK N   1      35.657  16.018  11.416  0.00  0.00    -0.585 OA
HETATM   11  O   UNK N   1      34.025  15.427  10.677  0.00  0.00    -0.585 OA
BRANCH   9  12
HETATM   12  O   UNK N   1      35.669  17.579  10.411  0.00  0.00    -0.279 OA
HETATM   13  H   UNK N   1      35.634  18.437  10.862  0.00  0.00     0.234 HD
ENDBRANCH   9  12
ENDBRANCH   7   9
ENDBRANCH   1   7
BRANCH   4  14
HETATM   14  C   UNK N   1      31.671  17.389   4.322  0.00  0.00     0.034 C 
HETATM   15  C   UNK N   1      32.666  16.972   3.248  0.00  0.00     0.010 C 
ENDBRANCH   4  14
TORSDOF 4
ENDMDL
MODEL 3
REMARK VINA RESULT:      -5.1     10.972     12.018
REMARK  4 active torsions:
REMARK  status: ('A' for Active; 'I' for Inactive)
REMARK    1  A    between atoms: S_2  and  N_5 
REMARK    2  A    between atoms: S_2  and  O_4 
REMARK    3  A    between atoms: N_5  and  C_6 
REMARK    4  A    between atoms: C_9  and  C_10 
ROOT
HETATM    1  C   UNK N   1      27.726  19.485   7.231  0.00  0.00     0.044 A 
HETATM    2  C   UNK N   1      28.185  18.760   6.126  0.00  0.00     0.031 A 
HETATM    3  C   UNK N   1      27.820  19.143   4.832  0.00  0.00     0.009 A 
HETATM    4  C   UNK N   1      26.984  20.246   4.630  0.00  0.00    -0.058 A 
HETATM    5  C   UNK N   1      26.530  20.978   5.739  0.00  0.00     0.009 A 
HETATM    6  C   UNK N   1      26.901  20.600   7.031  0.00  0.00     0.031 A 
ENDROOT
BRANCH   1   7
HETATM    7  N   UNK N   1      28.071  19.054   8.540  0.00  0.00    -0.273 N 
HETATM    8  H   UNK N   1      27.820  19.624   9.303  0.00  0.00     0.180 HD
BRANCH   7   9
HETATM    9  S   UNK N   1      28.928  17.548   8.860  0.00  0.00     0.199 S 
HETATM   10  O   UNK N   1      29.201  17.345  10.358  0.00  0.00    -0.585 OA
HETATM   11  O   UNK N   1      27.531  17.393   9.481  0.00  0.00    -0.585 OA
BRANCH   9  12
HETATM   12  O   UNK N   1      29.813  18.874   9.502  0.00  0.00    -0.279 OA
HETATM   13  H   UNK N   1      30.298  19.713   9.548  0.00  0.00     0.234 HD
ENDBRANCH   9  12
ENDBRANCH   7   9
ENDBRANCH   1   7
BRANCH   4  14
HETATM   14  C   UNK N   1      26.589  20.604   3.226  0.00  0.00     0.034 C 
HETATM   15  C   UNK N   1      25.113  20.383   2.924  0.00  0.00     0.010 C 
ENDBRANCH   4  14
TORSDOF 4
ENDMDL
MODEL 4
REMARK VINA RESULT:      -5.0     23.360     24.838
REMARK  4 active torsions:
REMARK  status: ('A' for Active; 'I' for Inactive)
REMARK    1  A    between atoms: S_2  and  N_5 
REMARK    2  A    between atoms: S_2  and  O_4 
REMARK    3  A    between atoms: N_5  and  C_6 
REMARK    4  A    between atoms: C_9  and  C_10 
ROOT
HETATM    1  C   UNK N   1      35.374  12.353  15.697  0.00  0.00     0.044 A 
HETATM    2  C   UNK N   1      35.595  11.056  16.172  0.00  0.00     0.031 A 
HETATM    3  C   UNK N   1      35.576  10.795  17.545  0.00  0.00     0.009 A 
HETATM    4  C   UNK N   1      35.346  11.830  18.458  0.00  0.00    -0.058 A 
HETATM    5  C   UNK N   1      35.116  13.131  17.981  0.00  0.00     0.009 A 
HETATM    6  C   UNK N   1      35.128  13.389  16.609  0.00  0.00     0.031 A 
ENDROOT
BRANCH   1   7
HETATM    7  N   UNK N   1      35.442  12.606  14.302  0.00  0.00    -0.273 N 
HETATM    8  H   UNK N   1      35.108  11.917  13.682  0.00  0.00     0.180 HD
BRANCH   7   9
HETATM    9  S   UNK N   1      36.099  14.096  13.627  0.00  0.00     0.199 S 
HETATM   10  O   UNK N   1      36.637  13.898  12.203  0.00  0.00    -0.585 OA
HETATM   11  O   UNK N   1      34.852  13.756  12.796  0.00  0.00    -0.585 OA
BRANCH   9  12
HETATM   12  O   UNK N   1      37.294  12.860  13.595  0.00  0.00    -0.279 OA
HETATM   13  H   UNK N   1      38.157  12.425  13.516  0.00  0.00     0.234 HD
ENDBRANCH   9  12
ENDBRANCH   7   9
ENDBRANCH   1   7
BRANCH   4  14
HETATM   14  C   UNK N   1      35.366  11.514  19.927  0.00  0.00     0.034 C 
HETATM   15  C   UNK N   1      36.553  10.666  20.360  0.00  0.00     0.010 C 
ENDBRANCH   4  14
TORSDOF 4
ENDMDL
MODEL 5
REMARK VINA RESULT:      -5.0     23.889     25.367
REMARK  4 active torsions:
REMARK  status: ('A' for Active; 'I' for Inactive)
REMARK    1  A    between atoms: S_2  and  N_5 
REMARK    2  A    between atoms: S_2  and  O_4 
REMARK    3  A    between atoms: N_5  and  C_6 
REMARK    4  A    between atoms: C_9  and  C_10 
ROOT
HETATM    1  C   UNK N   1      35.332  12.773  16.508  0.00  0.00     0.044 A 
HETATM    2  C   UNK N   1      35.101  13.469  17.699  0.00  0.00     0.031 A 
HETATM    3  C   UNK N   1      35.195  12.812  18.929  0.00  0.00     0.009 A 
HETATM    4  C   UNK N   1      35.509  11.450  18.981  0.00  0.00    -0.058 A 
HETATM    5  C   UNK N   1      35.747  10.752  17.786  0.00  0.00     0.009 A 
HETATM    6  C   UNK N   1      35.661  11.411  16.558  0.00  0.00     0.031 A 
ENDROOT
BRANCH   1   7
HETATM    7  N   UNK N   1      35.188  13.447  15.267  0.00  0.00    -0.273 N 
HETATM    8  H   UNK N   1      34.391  14.008  15.126  0.00  0.00     0.180 HD
BRANCH   7   9
HETATM    9  S   UNK N   1      36.370  13.324  13.965  0.00  0.00     0.199 S 
HETATM   10  O   UNK N   1      36.284  14.509  12.993  0.00  0.00    -0.585 OA
HETATM   11  O   UNK N   1      36.781  14.539  14.813  0.00  0.00    -0.585 OA
BRANCH   9  12
HETATM   12  O   UNK N   1      34.787  13.458  13.309  0.00  0.00    -0.279 OA
HETATM   13  H   UNK N   1      33.868  13.746  13.189  0.00  0.00     0.234 HD
ENDBRANCH   9  12
ENDBRANCH   7   9
ENDBRANCH   1   7
BRANCH   4  14
HETATM   14  C   UNK N   1      35.566  10.774  20.321  0.00  0.00     0.034 C 
HETATM   15  C   UNK N   1      36.975  10.415  20.773  0.00  0.00     0.010 C 
ENDBRANCH   4  14
TORSDOF 4
ENDMDL
MODEL 6
REMARK VINA RESULT:      -4.6      4.513      5.159
REMARK  4 active torsions:
REMARK  status: ('A' for Active; 'I' for Inactive)
REMARK    1  A    between atoms: S_2  and  N_5 
REMARK    2  A    between atoms: S_2  and  O_4 
REMARK    3  A    between atoms: N_5  and  C_6 
REMARK    4  A    between atoms: C_9  and  C_10 
ROOT
HETATM    1  C   UNK N   1      25.756  26.021  -6.537  0.00  0.00     0.044 A 
HETATM    2  C   UNK N   1      26.870  26.547  -7.198  0.00  0.00     0.031 A 
HETATM    3  C   UNK N   1      27.447  27.744  -6.764  0.00  0.00     0.009 A 
HETATM    4  C   UNK N   1      26.909  28.433  -5.671  0.00  0.00    -0.058 A 
HETATM    5  C   UNK N   1      25.795  27.900  -5.003  0.00  0.00     0.009 A 
HETATM    6  C   UNK N   1      25.223  26.700  -5.432  0.00  0.00     0.031 A 
ENDROOT
BRANCH   1   7
HETATM    7  N   UNK N   1      25.157  24.827  -7.020  0.00  0.00    -0.273 N 
HETATM    8  H   UNK N   1      24.176  24.743  -6.976  0.00  0.00     0.180 HD
BRANCH   7   9
HETATM    9  S   UNK N   1      26.087  23.491  -7.694  0.00  0.00     0.199 S 
HETATM   10  O   UNK N   1      25.496  22.125  -7.314  0.00  0.00    -0.585 OA
HETATM   11  O   UNK N   1      24.718  23.463  -8.393  0.00  0.00    -0.585 OA
BRANCH   9  12
HETATM   12  O   UNK N   1      25.980  23.329  -5.986  0.00  0.00    -0.279 OA
HETATM   13  H   UNK N   1      25.704  23.008  -5.114  0.00  0.00     0.234 HD
ENDBRANCH   9  12
ENDBRANCH   7   9
ENDBRANCH   1   7
BRANCH   4  14
HETATM   14  C   UNK N   1      27.538  29.732  -5.257  0.00  0.00     0.034 C 
HETATM   15  C   UNK N   1      28.645  30.207  -6.187  0.00  0.00     0.010 C 
ENDBRANCH   4  14
TORSDOF 4
ENDMDL
MODEL 7
REMARK VINA RESULT:      -4.4      4.936      5.578
REMARK  4 active torsions:
REMARK  status: ('A' for Active; 'I' for Inactive)
REMARK    1  A    between atoms: S_2  and  N_5 
REMARK    2  A    between atoms: S_2  and  O_4 
REMARK    3  A    between atoms: N_5  and  C_6 
REMARK    4  A    between atoms: C_9  and  C_10 
ROOT
HETATM    1  C   UNK N   1      26.160  25.952  -7.507  0.00  0.00     0.044 A 
HETATM    2  C   UNK N   1      25.420  26.204  -6.347  0.00  0.00     0.031 A 
HETATM    3  C   UNK N   1      25.726  27.304  -5.540  0.00  0.00     0.009 A 
HETATM    4  C   UNK N   1      26.783  28.156  -5.879  0.00  0.00    -0.058 A 
HETATM    5  C   UNK N   1      27.522  27.906  -7.047  0.00  0.00     0.009 A 
HETATM    6  C   UNK N   1      27.210  26.813  -7.857  0.00  0.00     0.031 A 
ENDROOT
BRANCH   1   7
HETATM    7  N   UNK N   1      25.863  24.805  -8.289  0.00  0.00    -0.273 N 
HETATM    8  H   UNK N   1      25.620  24.931  -9.235  0.00  0.00     0.180 HD
BRANCH   7   9
HETATM    9  S   UNK N   1      25.907  23.165  -7.644  0.00  0.00     0.199 S 
HETATM   10  O   UNK N   1      25.806  22.105  -8.751  0.00  0.00    -0.585 OA
HETATM   11  O   UNK N   1      27.198  23.346  -8.459  0.00  0.00    -0.585 OA
BRANCH   9  12
HETATM   12  O   UNK N   1      24.479  23.391  -8.574  0.00  0.00    -0.279 OA
HETATM   13  H   UNK N   1      23.834  23.795  -9.176  0.00  0.00     0.234 HD
ENDBRANCH   9  12
ENDBRANCH   7   9
ENDBRANCH   1   7
BRANCH   4  14
HETATM   14  C   UNK N   1      27.101  29.307  -4.967  0.00  0.00     0.034 C 
HETATM   15  C   UNK N   1      26.291  29.318  -3.679  0.00  0.00     0.010 C 
ENDBRANCH   4  14
TORSDOF 4
ENDMDL
MODEL 8
REMARK VINA RESULT:      -4.4     17.334     18.589
REMARK  4 active torsions:
REMARK  status: ('A' for Active; 'I' for Inactive)
REMARK    1  A    between atoms: S_2  and  N_5 
REMARK    2  A    between atoms: S_2  and  O_4 
REMARK    3  A    between atoms: N_5  and  C_6 
REMARK    4  A    between atoms: C_9  and  C_10 
ROOT
HETATM    1  C   UNK N   1      35.054  15.312  11.290  0.00  0.00     0.044 A 
HETATM    2  C   UNK N   1      35.473  16.545  10.778  0.00  0.00     0.031 A 
HETATM    3  C   UNK N   1      34.831  17.102   9.668  0.00  0.00     0.009 A 
HETATM    4  C   UNK N   1      33.773  16.426   9.051  0.00  0.00    -0.058 A 
HETATM    5  C   UNK N   1      33.349  15.192   9.569  0.00  0.00     0.009 A 
HETATM    6  C   UNK N   1      33.984  14.640  10.683  0.00  0.00     0.031 A 
ENDROOT
BRANCH   1   7
HETATM    7  N   UNK N   1      35.747  14.742  12.391  0.00  0.00    -0.273 N 
HETATM    8  H   UNK N   1      36.251  15.340  12.989  0.00  0.00     0.180 HD
BRANCH   7   9
HETATM    9  S   UNK N   1      35.748  13.014  12.733  0.00  0.00     0.199 S 
HETATM   10  O   UNK N   1      36.744  12.644  13.842  0.00  0.00    -0.585 OA
HETATM   11  O   UNK N   1      35.190  13.705  13.988  0.00  0.00    -0.585 OA
BRANCH   9  12
HETATM   12  O   UNK N   1      37.335  13.531  12.322  0.00  0.00    -0.279 OA
HETATM   13  H   UNK N   1      38.254  13.825  12.417  0.00  0.00     0.234 HD
ENDBRANCH   9  12
ENDBRANCH   7   9
ENDBRANCH   1   7
BRANCH   4  14
HETATM   14  C   UNK N   1      33.132  17.042   7.840  0.00  0.00     0.034 C 
HETATM   15  C   UNK N   1      31.858  17.817   8.141  0.00  0.00     0.010 C 
ENDBRANCH   4  14
TORSDOF 4
ENDMDL
MODEL 9
REMARK VINA RESULT:      -4.1     14.190     14.801
REMARK  4 active torsions:
REMARK  status: ('A' for Active; 'I' for Inactive)
REMARK    1  A    between atoms: S_2  and  N_5 
REMARK    2  A    between atoms: S_2  and  O_4 
REMARK    3  A    between atoms: N_5  and  C_6 
REMARK    4  A    between atoms: C_9  and  C_10 
ROOT
HETATM    1  C   UNK N   1      33.767  15.745   6.859  0.00  0.00     0.044 A 
HETATM    2  C   UNK N   1      32.407  15.500   7.073  0.00  0.00     0.031 A 
HETATM    3  C   UNK N   1      31.666  14.771   6.138  0.00  0.00     0.009 A 
HETATM    4  C   UNK N   1      32.275  14.290   4.974  0.00  0.00    -0.058 A 
HETATM    5  C   UNK N   1      33.643  14.530   4.763  0.00  0.00     0.009 A 
HETATM    6  C   UNK N   1      34.384  15.251   5.701  0.00  0.00     0.031 A 
ENDROOT
BRANCH   1   7
HETATM    7  N   UNK N   1      34.492  16.526   7.799  0.00  0.00    -0.273 N 
HETATM    8  H   UNK N   1      35.304  16.141   8.201  0.00  0.00     0.180 HD
BRANCH   7   9
HETATM    9  S   UNK N   1      34.003  18.149   8.278  0.00  0.00     0.199 S 
HETATM   10  O   UNK N   1      35.205  19.089   8.447  0.00  0.00    -0.585 OA
HETATM   11  O   UNK N   1      34.588  18.272   6.862  0.00  0.00    -0.585 OA
BRANCH   9  12
HETATM   12  O   UNK N   1      35.118  17.511   9.420  0.00  0.00    -0.279 OA
HETATM   13  H   UNK N   1      35.465  17.093  10.224  0.00  0.00     0.234 HD
ENDBRANCH   9  12
ENDBRANCH   7   9
ENDBRANCH   1   7
BRANCH   4  14
HETATM   14  C   UNK N   1      31.437  13.541   3.978  0.00  0.00     0.034 C 
HETATM   15  C   UNK N   1      32.187  13.137   2.717  0.00  0.00     0.010 C 
ENDBRANCH   4  14
TORSDOF 4
ENDMDL
