MODEL 1
REMARK VINA RESULT:      -6.7      0.000      0.000
REMARK  6 active torsions:
REMARK  status: ('A' for Active; 'I' for Inactive)
REMARK    1  A    between atoms: C_3  and  C_7 
REMARK    2  A    between atoms: C_7  and  N_9 
REMARK    3  A    between atoms: N_9  and  C_10 
REMARK    4  A    between atoms: C_12  and  C_17 
REMARK    5  A    between atoms: N_18  and  O_20 
REMARK    6  A    between atoms: O_20  and  C_21 
ROOT
HETATM    1  C   UNK N   1      25.847  27.593  -3.903  0.00  0.00     0.034 A 
HETATM    2  C   UNK N   1      26.601  26.526  -3.417  0.00  0.00     0.044 A 
HETATM    3  C   UNK N   1      26.609  25.285  -4.071  0.00  0.00     0.005 A 
HETATM    4  C   UNK N   1      25.851  25.117  -5.244  0.00  0.00     0.045 A 
HETATM    5  C   UNK N   1      25.108  26.188  -5.746  0.00  0.00     0.027 A 
HETATM    6  C   UNK N   1      25.105  27.418  -5.081  0.00  0.00     0.031 A 
HETATM    7 Cl   UNK N   1      25.811  23.582  -6.099  0.00  0.00    -0.083 Cl
ENDROOT
BRANCH   1   8
HETATM    8  N   UNK N   1      25.871  28.824  -3.179  0.00  0.00    -0.346 N 
HETATM    9  H   UNK N   1      25.114  28.970  -2.565  0.00  0.00     0.167 HD
BRANCH   8  10
HETATM   10  C   UNK N   1      26.841  29.877  -3.222  0.00  0.00     0.114 C 
HETATM   11  S   UNK N   1      26.636  31.062  -4.022  0.00  0.00    -0.059 SA
BRANCH  10  12
HETATM   12  C   UNK N   1      28.055  29.778  -2.364  0.00  0.00     0.033 A 
HETATM   13  C   UNK N   1      29.267  29.193  -2.679  0.00  0.00     0.062 A 
HETATM   14  O   UNK N   1      30.085  29.315  -1.664  0.00  0.00    -0.327 OA
HETATM   15  C   UNK N   1      29.637  28.512  -3.950  0.00  0.00     0.077 C 
HETATM   16  C   UNK N   1      29.481  29.952  -0.684  0.00  0.00     0.143 A 
HETATM   17  C   UNK N   1      28.189  30.267  -1.075  0.00  0.00     0.041 A 
ENDBRANCH  10  12
ENDBRANCH   8  10
ENDBRANCH   1   8
BRANCH   3  18
HETATM   18  C   UNK N   1      27.394  24.176  -3.499  0.00  0.00     0.127 C 
HETATM   19  N   UNK N   1      28.666  24.149  -3.662  0.00  0.00    -0.276 N 
ATOM     20  HN  UNK N   1      29.115  24.864  -4.233  1.00  0.00     0.193 HD
BRANCH  19  21
HETATM   21  O   UNK N   1      29.402  23.210  -3.103  0.00  0.00    -0.271 OA
BRANCH  21  22
HETATM   22  C   UNK N   1      30.514  22.713  -3.750  0.00  0.00     0.078 C 
HETATM   23  C   UNK N   1      31.350  21.883  -2.791  0.00  0.00     0.048 C 
HETATM   24  C   UNK N   1      31.352  23.868  -4.255  0.00  0.00     0.048 C 
HETATM   25  C   UNK N   1      30.104  21.855  -4.936  0.00  0.00     0.048 C 
ENDBRANCH  21  22
ENDBRANCH  19  21
ENDBRANCH   3  18
TORSDOF 6
ENDMDL
MODEL 2
REMARK VINA RESULT:      -6.2     12.497     15.640
REMARK  6 active torsions:
REMARK  status: ('A' for Active; 'I' for Inactive)
REMARK    1  A    between atoms: C_3  and  C_7 
REMARK    2  A    between atoms: C_7  and  N_9 
REMARK    3  A    between atoms: N_9  and  C_10 
REMARK    4  A    between atoms: C_12  and  C_17 
REMARK    5  A    between atoms: N_18  and  O_20 
REMARK    6  A    between atoms: O_20  and  C_21 
ROOT
HETATM    1  C   UNK N   1      31.497  16.143   7.502  0.00  0.00     0.034 A 
HETATM    2  C   UNK N   1      30.598  16.468   6.487  0.00  0.00     0.044 A 
HETATM    3  C   UNK N   1      29.501  17.307   6.729  0.00  0.00     0.005 A 
HETATM    4  C   UNK N   1      29.309  17.839   8.017  0.00  0.00     0.045 A 
HETATM    5  C   UNK N   1      30.217  17.533   9.033  0.00  0.00     0.027 A 
HETATM    6  C   UNK N   1      31.304  16.690   8.779  0.00  0.00     0.031 A 
HETATM    7 Cl   UNK N   1      27.946  18.886   8.384  0.00  0.00    -0.083 Cl
ENDROOT
BRANCH   1   8
HETATM    8  N   UNK N   1      32.583  15.269   7.191  0.00  0.00    -0.346 N 
HETATM    9  H   UNK N   1      32.330  14.355   6.925  0.00  0.00     0.167 HD
BRANCH   8  10
HETATM   10  C   UNK N   1      33.991  15.536   7.212  0.00  0.00     0.114 C 
HETATM   11  S   UNK N   1      34.802  15.409   6.024  0.00  0.00    -0.059 SA
BRANCH  10  12
HETATM   12  C   UNK N   1      34.616  16.026   8.473  0.00  0.00     0.033 A 
HETATM   13  C   UNK N   1      34.794  17.336   8.874  0.00  0.00     0.062 A 
HETATM   14  O   UNK N   1      35.377  17.356  10.047  0.00  0.00    -0.327 OA
HETATM   15  C   UNK N   1      34.414  18.569   8.129  0.00  0.00     0.077 C 
HETATM   16  C   UNK N   1      35.598  16.124  10.451  0.00  0.00     0.143 A 
HETATM   17  C   UNK N   1      35.135  15.240   9.488  0.00  0.00     0.041 A 
ENDBRANCH  10  12
ENDBRANCH   8  10
ENDBRANCH   1   8
BRANCH   3  18
HETATM   18  C   UNK N   1      28.559  17.594   5.633  0.00  0.00     0.127 C 
HETATM   19  N   UNK N   1      28.446  18.792   5.189  0.00  0.00    -0.276 N 
ATOM     20  HN  UNK N   1      28.967  19.545   5.638  1.00  0.00     0.193 HD
BRANCH  19  21
HETATM   21  O   UNK N   1      27.665  19.065   4.164  0.00  0.00    -0.271 OA
BRANCH  21  22
HETATM   22  C   UNK N   1      26.568  19.887   4.318  0.00  0.00     0.078 C 
HETATM   23  C   UNK N   1      25.347  19.065   4.692  0.00  0.00     0.048 C 
HETATM   24  C   UNK N   1      26.296  20.601   3.012  0.00  0.00     0.048 C 
HETATM   25  C   UNK N   1      26.826  20.927   5.396  0.00  0.00     0.048 C 
ENDBRANCH  21  22
ENDBRANCH  19  21
ENDBRANCH   3  18
TORSDOF 6
ENDMDL
MODEL 3
REMARK VINA RESULT:      -6.2     16.357     19.505
REMARK  6 active torsions:
REMARK  status: ('A' for Active; 'I' for Inactive)
REMARK    1  A    between atoms: C_3  and  C_7 
REMARK    2  A    between atoms: C_7  and  N_9 
REMARK    3  A    between atoms: N_9  and  C_10 
REMARK    4  A    between atoms: C_12  and  C_17 
REMARK    5  A    between atoms: N_18  and  O_20 
REMARK    6  A    between atoms: O_20  and  C_21 
ROOT
HETATM    1  C   UNK N   1      33.073  14.680   8.976  0.00  0.00     0.034 A 
HETATM    2  C   UNK N   1      33.560  14.844  10.272  0.00  0.00     0.044 A 
HETATM    3  C   UNK N   1      34.752  14.229  10.682  0.00  0.00     0.005 A 
HETATM    4  C   UNK N   1      35.474  13.441   9.767  0.00  0.00     0.045 A 
HETATM    5  C   UNK N   1      35.001  13.290   8.462  0.00  0.00     0.027 A 
HETATM    6  C   UNK N   1      33.808  13.904   8.068  0.00  0.00     0.031 A 
HETATM    7 Cl   UNK N   1      36.967  12.635  10.228  0.00  0.00    -0.083 Cl
ENDROOT
BRANCH   1   8
HETATM    8  N   UNK N   1      31.844  15.321   8.628  0.00  0.00    -0.346 N 
HETATM    9  H   UNK N   1      31.031  14.788   8.779  0.00  0.00     0.167 HD
BRANCH   8  10
HETATM   10  C   UNK N   1      31.631  16.632   8.091  0.00  0.00     0.114 C 
HETATM   11  S   UNK N   1      30.672  17.542   8.675  0.00  0.00    -0.059 SA
BRANCH  10  12
HETATM   12  C   UNK N   1      32.470  17.092   6.949  0.00  0.00     0.033 A 
HETATM   13  C   UNK N   1      33.680  17.756   7.003  0.00  0.00     0.062 A 
HETATM   14  O   UNK N   1      34.106  17.982   5.785  0.00  0.00    -0.327 OA
HETATM   15  C   UNK N   1      34.424  18.181   8.221  0.00  0.00     0.077 C 
HETATM   16  C   UNK N   1      33.241  17.503   4.918  0.00  0.00     0.143 A 
HETATM   17  C   UNK N   1      32.182  16.928   5.604  0.00  0.00     0.041 A 
ENDBRANCH  10  12
ENDBRANCH   8  10
ENDBRANCH   1   8
BRANCH   3  18
HETATM   18  C   UNK N   1      35.209  14.402  12.073  0.00  0.00     0.127 C 
HETATM   19  N   UNK N   1      34.887  13.534  12.960  0.00  0.00    -0.276 N 
ATOM     20  HN  UNK N   1      34.271  12.762  12.707  1.00  0.00     0.193 HD
BRANCH  19  21
HETATM   21  O   UNK N   1      35.338  13.625  14.194  0.00  0.00    -0.271 OA
BRANCH  21  22
HETATM   22  C   UNK N   1      35.239  12.554  15.057  0.00  0.00     0.078 C 
HETATM   23  C   UNK N   1      36.544  11.776  15.080  0.00  0.00     0.048 C 
HETATM   24  C   UNK N   1      34.132  11.637  14.585  0.00  0.00     0.048 C 
HETATM   25  C   UNK N   1      34.910  13.028  16.464  0.00  0.00     0.048 C 
ENDBRANCH  21  22
ENDBRANCH  19  21
ENDBRANCH   3  18
TORSDOF 6
ENDMDL
MODEL 4
REMARK VINA RESULT:      -6.1     17.038     20.139
REMARK  6 active torsions:
REMARK  status: ('A' for Active; 'I' for Inactive)
REMARK    1  A    between atoms: C_3  and  C_7 
REMARK    2  A    between atoms: C_7  and  N_9 
REMARK    3  A    between atoms: N_9  and  C_10 
REMARK    4  A    between atoms: C_12  and  C_17 
REMARK    5  A    between atoms: N_18  and  O_20 
REMARK    6  A    between atoms: O_20  and  C_21 
ROOT
HETATM    1  C   UNK N   1      34.320  15.362   9.862  0.00  0.00     0.034 A 
HETATM    2  C   UNK N   1      34.716  15.262  11.195  0.00  0.00     0.044 A 
HETATM    3  C   UNK N   1      35.869  14.550  11.558  0.00  0.00     0.005 A 
HETATM    4  C   UNK N   1      36.645  13.935  10.559  0.00  0.00     0.045 A 
HETATM    5  C   UNK N   1      36.263  14.049   9.220  0.00  0.00     0.027 A 
HETATM    6  C   UNK N   1      35.108  14.756   8.873  0.00  0.00     0.031 A 
HETATM    7 Cl   UNK N   1      38.092  13.019  10.954  0.00  0.00    -0.083 Cl
ENDROOT
BRANCH   1   8
HETATM    8  N   UNK N   1      33.126  16.088   9.563  0.00  0.00    -0.346 N 
HETATM    9  H   UNK N   1      32.357  15.897  10.148  0.00  0.00     0.167 HD
BRANCH   8  10
HETATM   10  C   UNK N   1      32.892  17.054   8.532  0.00  0.00     0.114 C 
HETATM   11  S   UNK N   1      33.902  18.017   8.155  0.00  0.00    -0.059 SA
BRANCH  10  12
HETATM   12  C   UNK N   1      31.604  17.018   7.784  0.00  0.00     0.033 A 
HETATM   13  C   UNK N   1      30.443  17.711   8.067  0.00  0.00     0.062 A 
HETATM   14  O   UNK N   1      29.533  17.417   7.173  0.00  0.00    -0.327 OA
HETATM   15  C   UNK N   1      30.204  18.649   9.199  0.00  0.00     0.077 C 
HETATM   16  C   UNK N   1      30.027  16.560   6.305  0.00  0.00     0.143 A 
HETATM   17  C   UNK N   1      31.339  16.272   6.648  0.00  0.00     0.041 A 
ENDBRANCH  10  12
ENDBRANCH   8  10
ENDBRANCH   1   8
BRANCH   3  18
HETATM   18  C   UNK N   1      36.228  14.442  12.983  0.00  0.00     0.127 C 
HETATM   19  N   UNK N   1      35.484  13.762  13.776  0.00  0.00    -0.276 N 
ATOM     20  HN  UNK N   1      34.621  13.350  13.424  1.00  0.00     0.193 HD
BRANCH  19  21
HETATM   21  O   UNK N   1      35.817  13.589  15.039  0.00  0.00    -0.271 OA
BRANCH  21  22
HETATM   22  C   UNK N   1      35.421  12.457  15.719  0.00  0.00     0.078 C 
HETATM   23  C   UNK N   1      36.543  11.433  15.729  0.00  0.00     0.048 C 
HETATM   24  C   UNK N   1      34.217  11.857  15.026  0.00  0.00     0.048 C 
HETATM   25  C   UNK N   1      35.038  12.799  17.150  0.00  0.00     0.048 C 
ENDBRANCH  21  22
ENDBRANCH  19  21
ENDBRANCH   3  18
TORSDOF 6
ENDMDL
MODEL 5
REMARK VINA RESULT:      -6.1     19.761     23.129
REMARK  6 active torsions:
REMARK  status: ('A' for Active; 'I' for Inactive)
REMARK    1  A    between atoms: C_3  and  C_7 
REMARK    2  A    between atoms: C_7  and  N_9 
REMARK    3  A    between atoms: N_9  and  C_10 
REMARK    4  A    between atoms: C_12  and  C_17 
REMARK    5  A    between atoms: N_18  and  O_20 
REMARK    6  A    between atoms: O_20  and  C_21 
ROOT
HETATM    1  C   UNK N   1      36.493  13.177  13.626  0.00  0.00     0.034 A 
HETATM    2  C   UNK N   1      36.032  14.370  13.071  0.00  0.00     0.044 A 
HETATM    3  C   UNK N   1      36.251  14.674  11.719  0.00  0.00     0.005 A 
HETATM    4  C   UNK N   1      36.939  13.755  10.907  0.00  0.00     0.045 A 
HETATM    5  C   UNK N   1      37.386  12.549  11.453  0.00  0.00     0.027 A 
HETATM    6  C   UNK N   1      37.166  12.261  12.803  0.00  0.00     0.031 A 
HETATM    7 Cl   UNK N   1      37.255  14.087   9.210  0.00  0.00    -0.083 Cl
ENDROOT
BRANCH   1   8
HETATM    8  N   UNK N   1      36.250  12.937  15.013  0.00  0.00    -0.346 N 
HETATM    9  H   UNK N   1      36.875  13.376  15.635  0.00  0.00     0.167 HD
BRANCH   8  10
HETATM   10  C   UNK N   1      35.225  12.146  15.626  0.00  0.00     0.114 C 
HETATM   11  S   UNK N   1      34.147  11.575  14.852  0.00  0.00    -0.059 SA
BRANCH  10  12
HETATM   12  C   UNK N   1      35.314  11.848  17.083  0.00  0.00     0.033 A 
HETATM   13  C   UNK N   1      35.301  12.747  18.132  0.00  0.00     0.062 A 
HETATM   14  O   UNK N   1      35.393  12.095  19.264  0.00  0.00    -0.327 OA
HETATM   15  C   UNK N   1      35.209  14.231  18.048  0.00  0.00     0.077 C 
HETATM   16  C   UNK N   1      35.467  10.804  19.025  0.00  0.00     0.143 A 
HETATM   17  C   UNK N   1      35.423  10.591  17.656  0.00  0.00     0.041 A 
ENDBRANCH  10  12
ENDBRANCH   8  10
ENDBRANCH   1   8
BRANCH   3  18
HETATM   18  C   UNK N   1      35.776  15.963  11.187  0.00  0.00     0.127 C 
HETATM   19  N   UNK N   1      34.728  15.998  10.448  0.00  0.00    -0.276 N 
ATOM     20  HN  UNK N   1      34.267  15.126  10.190  1.00  0.00     0.193 HD
BRANCH  19  21
HETATM   21  O   UNK N   1      34.239  17.142  10.016  0.00  0.00    -0.271 OA
BRANCH  21  22
HETATM   22  C   UNK N   1      33.958  17.324   8.678  0.00  0.00     0.078 C 
HETATM   23  C   UNK N   1      34.412  16.114   7.879  0.00  0.00     0.048 C 
HETATM   24  C   UNK N   1      34.696  18.546   8.177  0.00  0.00     0.048 C 
HETATM   25  C   UNK N   1      32.467  17.536   8.468  0.00  0.00     0.048 C 
ENDBRANCH  21  22
ENDBRANCH  19  21
ENDBRANCH   3  18
TORSDOF 6
ENDMDL
MODEL 6
REMARK VINA RESULT:      -6.0     17.100     20.496
REMARK  6 active torsions:
REMARK  status: ('A' for Active; 'I' for Inactive)
REMARK    1  A    between atoms: C_3  and  C_7 
REMARK    2  A    between atoms: C_7  and  N_9 
REMARK    3  A    between atoms: N_9  and  C_10 
REMARK    4  A    between atoms: C_12  and  C_17 
REMARK    5  A    between atoms: N_18  and  O_20 
REMARK    6  A    between atoms: O_20  and  C_21 
ROOT
HETATM    1  C   UNK N   1      34.608  14.491  11.141  0.00  0.00     0.034 A 
HETATM    2  C   UNK N   1      33.946  14.390   9.918  0.00  0.00     0.044 A 
HETATM    3  C   UNK N   1      33.921  15.463   9.015  0.00  0.00     0.005 A 
HETATM    4  C   UNK N   1      34.584  16.659   9.345  0.00  0.00     0.045 A 
HETATM    5  C   UNK N   1      35.264  16.759  10.561  0.00  0.00     0.027 A 
HETATM    6  C   UNK N   1      35.277  15.684  11.454  0.00  0.00     0.031 A 
HETATM    7 Cl   UNK N   1      34.575  18.042   8.260  0.00  0.00    -0.083 Cl
ENDROOT
BRANCH   1   8
HETATM    8  N   UNK N   1      34.580  13.366  12.021  0.00  0.00    -0.346 N 
HETATM    9  H   UNK N   1      33.721  12.887  12.070  0.00  0.00     0.167 HD
BRANCH   8  10
HETATM   10  C   UNK N   1      35.628  12.837  12.842  0.00  0.00     0.114 C 
HETATM   11  S   UNK N   1      36.879  12.388  12.275  0.00  0.00    -0.059 SA
BRANCH  10  12
HETATM   12  C   UNK N   1      35.450  12.817  14.321  0.00  0.00     0.033 A 
HETATM   13  C   UNK N   1      34.632  11.987  15.063  0.00  0.00     0.062 A 
HETATM   14  O   UNK N   1      34.758  12.275  16.334  0.00  0.00    -0.327 OA
HETATM   15  C   UNK N   1      33.724  10.923  14.551  0.00  0.00     0.077 C 
HETATM   16  C   UNK N   1      35.620  13.258  16.480  0.00  0.00     0.143 A 
HETATM   17  C   UNK N   1      36.089  13.641  15.233  0.00  0.00     0.041 A 
ENDBRANCH  10  12
ENDBRANCH   8  10
ENDBRANCH   1   8
BRANCH   3  18
HETATM   18  C   UNK N   1      33.179  15.321   7.750  0.00  0.00     0.127 C 
HETATM   19  N   UNK N   1      31.908  15.496   7.735  0.00  0.00    -0.276 N 
ATOM     20  HN  UNK N   1      31.417  15.677   8.610  1.00  0.00     0.193 HD
BRANCH  19  21
HETATM   21  O   UNK N   1      31.229  15.445   6.609  0.00  0.00    -0.271 OA
BRANCH  21  22
HETATM   22  C   UNK N   1      30.387  16.477   6.251  0.00  0.00     0.078 C 
HETATM   23  C   UNK N   1      29.077  15.923   5.716  0.00  0.00     0.048 C 
HETATM   24  C   UNK N   1      31.046  17.304   5.169  0.00  0.00     0.048 C 
HETATM   25  C   UNK N   1      30.104  17.375   7.444  0.00  0.00     0.048 C 
ENDBRANCH  21  22
ENDBRANCH  19  21
ENDBRANCH   3  18
TORSDOF 6
ENDMDL
MODEL 7
REMARK VINA RESULT:      -6.0      2.394      6.361
REMARK  6 active torsions:
REMARK  status: ('A' for Active; 'I' for Inactive)
REMARK    1  A    between atoms: C_3  and  C_7 
REMARK    2  A    between atoms: C_7  and  N_9 
REMARK    3  A    between atoms: N_9  and  C_10 
REMARK    4  A    between atoms: C_12  and  C_17 
REMARK    5  A    between atoms: N_18  and  O_20 
REMARK    6  A    between atoms: O_20  and  C_21 
ROOT
HETATM    1  C   UNK N   1      27.570  24.093  -5.225  0.00  0.00     0.034 A 
HETATM    2  C   UNK N   1      27.378  25.063  -4.241  0.00  0.00     0.044 A 
HETATM    3  C   UNK N   1      26.388  26.047  -4.375  0.00  0.00     0.005 A 
HETATM    4  C   UNK N   1      25.567  26.049  -5.517  0.00  0.00     0.045 A 
HETATM    5  C   UNK N   1      25.742  25.069  -6.497  0.00  0.00     0.027 A 
HETATM    6  C   UNK N   1      26.737  24.097  -6.353  0.00  0.00     0.031 A 
HETATM    7 Cl   UNK N   1      24.319  27.265  -5.748  0.00  0.00    -0.083 Cl
ENDROOT
BRANCH   1   8
HETATM    8  N   UNK N   1      28.608  23.130  -5.033  0.00  0.00    -0.346 N 
HETATM    9  H   UNK N   1      28.306  22.222  -4.798  0.00  0.00     0.167 HD
BRANCH   8  10
HETATM   10  C   UNK N   1      30.027  23.300  -5.134  0.00  0.00     0.114 C 
HETATM   11  S   UNK N   1      30.619  24.114  -6.170  0.00  0.00    -0.059 SA
BRANCH  10  12
HETATM   12  C   UNK N   1      30.906  22.680  -4.103  0.00  0.00     0.033 A 
HETATM   13  C   UNK N   1      30.660  22.550  -2.750  0.00  0.00     0.062 A 
HETATM   14  O   UNK N   1      31.671  21.944  -2.180  0.00  0.00    -0.327 OA
HETATM   15  C   UNK N   1      29.458  23.014  -2.002  0.00  0.00     0.077 C 
HETATM   16  C   UNK N   1      32.583  21.662  -3.085  0.00  0.00     0.143 A 
HETATM   17  C   UNK N   1      32.149  22.110  -4.323  0.00  0.00     0.041 A 
ENDBRANCH  10  12
ENDBRANCH   8  10
ENDBRANCH   1   8
BRANCH   3  18
HETATM   18  C   UNK N   1      26.246  27.071  -3.326  0.00  0.00     0.127 C 
HETATM   19  N   UNK N   1      27.232  27.847  -3.058  0.00  0.00    -0.276 N 
ATOM     20  HN  UNK N   1      28.123  27.709  -3.534  1.00  0.00     0.193 HD
BRANCH  19  21
HETATM   21  O   UNK N   1      27.112  28.817  -2.176  0.00  0.00    -0.271 OA
BRANCH  21  22
HETATM   22  C   UNK N   1      28.109  29.760  -2.031  0.00  0.00     0.078 C 
HETATM   23  C   UNK N   1      28.399  29.993  -0.558  0.00  0.00     0.048 C 
HETATM   24  C   UNK N   1      27.654  31.062  -2.652  0.00  0.00     0.048 C 
HETATM   25  C   UNK N   1      29.380  29.306  -2.730  0.00  0.00     0.048 C 
ENDBRANCH  21  22
ENDBRANCH  19  21
ENDBRANCH   3  18
TORSDOF 6
ENDMDL
MODEL 8
REMARK VINA RESULT:      -5.9     11.530     13.887
REMARK  6 active torsions:
REMARK  status: ('A' for Active; 'I' for Inactive)
REMARK    1  A    between atoms: C_3  and  C_7 
REMARK    2  A    between atoms: C_7  and  N_9 
REMARK    3  A    between atoms: N_9  and  C_10 
REMARK    4  A    between atoms: C_12  and  C_17 
REMARK    5  A    between atoms: N_18  and  O_20 
REMARK    6  A    between atoms: O_20  and  C_21 
ROOT
HETATM    1  C   UNK N   1      28.077  18.572   5.508  0.00  0.00     0.034 A 
HETATM    2  C   UNK N   1      29.057  17.678   5.937  0.00  0.00     0.044 A 
HETATM    3  C   UNK N   1      29.519  17.688   7.262  0.00  0.00     0.005 A 
HETATM    4  C   UNK N   1      28.976  18.609   8.176  0.00  0.00     0.045 A 
HETATM    5  C   UNK N   1      27.980  19.495   7.756  0.00  0.00     0.027 A 
HETATM    6  C   UNK N   1      27.533  19.478   6.431  0.00  0.00     0.031 A 
HETATM    7 Cl   UNK N   1      29.525  18.679   9.844  0.00  0.00    -0.083 Cl
ENDROOT
BRANCH   1   8
HETATM    8  N   UNK N   1      27.663  18.519   4.141  0.00  0.00    -0.346 N 
HETATM    9  H   UNK N   1      28.323  18.843   3.486  0.00  0.00     0.167 HD
BRANCH   8  10
HETATM   10  C   UNK N   1      26.423  18.060   3.591  0.00  0.00     0.114 C 
HETATM   11  S   UNK N   1      26.228  16.677   3.217  0.00  0.00    -0.059 SA
BRANCH  10  12
HETATM   12  C   UNK N   1      25.287  19.015   3.470  0.00  0.00     0.033 A 
HETATM   13  C   UNK N   1      24.065  18.962   4.112  0.00  0.00     0.062 A 
HETATM   14  O   UNK N   1      23.336  19.987   3.747  0.00  0.00    -0.327 OA
HETATM   15  C   UNK N   1      23.593  17.923   5.070  0.00  0.00     0.077 C 
HETATM   16  C   UNK N   1      24.010  20.724   2.891  0.00  0.00     0.143 A 
HETATM   17  C   UNK N   1      25.255  20.151   2.678  0.00  0.00     0.041 A 
ENDBRANCH  10  12
ENDBRANCH   8  10
ENDBRANCH   1   8
BRANCH   3  18
HETATM   18  C   UNK N   1      30.581  16.747   7.659  0.00  0.00     0.127 C 
HETATM   19  N   UNK N   1      31.780  17.173   7.819  0.00  0.00    -0.276 N 
ATOM     20  HN  UNK N   1      31.998  18.148   7.614  1.00  0.00     0.193 HD
BRANCH  19  21
HETATM   21  O   UNK N   1      32.735  16.372   8.242  0.00  0.00    -0.271 OA
BRANCH  21  22
HETATM   22  C   UNK N   1      34.060  16.728   8.107  0.00  0.00     0.078 C 
HETATM   23  C   UNK N   1      34.192  18.240   8.044  0.00  0.00     0.048 C 
HETATM   24  C   UNK N   1      34.607  16.136   6.827  0.00  0.00     0.048 C 
HETATM   25  C   UNK N   1      34.878  16.200   9.275  0.00  0.00     0.048 C 
ENDBRANCH  21  22
ENDBRANCH  19  21
ENDBRANCH   3  18
TORSDOF 6
ENDMDL
MODEL 9
REMARK VINA RESULT:      -5.9     24.855     27.908
REMARK  6 active torsions:
REMARK  status: ('A' for Active; 'I' for Inactive)
REMARK    1  A    between atoms: C_3  and  C_7 
REMARK    2  A    between atoms: C_7  and  N_9 
REMARK    3  A    between atoms: N_9  and  C_10 
REMARK    4  A    between atoms: C_12  and  C_17 
REMARK    5  A    between atoms: N_18  and  O_20 
REMARK    6  A    between atoms: O_20  and  C_21 
ROOT
HETATM    1  C   UNK N   1      35.323  11.962  19.040  0.00  0.00     0.034 A 
HETATM    2  C   UNK N   1      35.658  11.046  18.044  0.00  0.00     0.044 A 
HETATM    3  C   UNK N   1      35.795  11.445  16.706  0.00  0.00     0.005 A 
HETATM    4  C   UNK N   1      35.599  12.796  16.365  0.00  0.00     0.045 A 
HETATM    5  C   UNK N   1      35.282  13.722  17.362  0.00  0.00     0.027 A 
HETATM    6  C   UNK N   1      35.144  13.309  18.691  0.00  0.00     0.031 A 
HETATM    7 Cl   UNK N   1      35.743  13.353  14.704  0.00  0.00    -0.083 Cl
ENDROOT
BRANCH   1   8
HETATM    8  N   UNK N   1      35.185  11.485  20.380  0.00  0.00    -0.346 N 
HETATM    9  H   UNK N   1      35.224  12.175  21.081  0.00  0.00     0.167 HD
BRANCH   8  10
HETATM   10  C   UNK N   1      34.997  10.143  20.844  0.00  0.00     0.114 C 
HETATM   11  S   UNK N   1      36.051   9.424  21.523  0.00  0.00    -0.059 SA
BRANCH  10  12
HETATM   12  C   UNK N   1      33.661   9.502  20.687  0.00  0.00     0.033 A 
HETATM   13  C   UNK N   1      32.589   9.560  21.556  0.00  0.00     0.062 A 
HETATM   14  O   UNK N   1      31.591   8.871  21.061  0.00  0.00    -0.327 OA
HETATM   15  C   UNK N   1      32.524  10.267  22.865  0.00  0.00     0.077 C 
HETATM   16  C   UNK N   1      31.942   8.356  19.903  0.00  0.00     0.143 A 
HETATM   17  C   UNK N   1      33.248   8.724  19.618  0.00  0.00     0.041 A 
ENDBRANCH  10  12
ENDBRANCH   8  10
ENDBRANCH   1   8
BRANCH   3  18
HETATM   18  C   UNK N   1      36.115  10.434  15.683  0.00  0.00     0.127 C 
HETATM   19  N   UNK N   1      35.171   9.901  14.998  0.00  0.00    -0.276 N 
ATOM     20  HN  UNK N   1      34.202  10.142  15.207  1.00  0.00     0.193 HD
BRANCH  19  21
HETATM   21  O   UNK N   1      35.433   9.048  14.029  0.00  0.00    -0.271 OA
BRANCH  21  22
HETATM   22  C   UNK N   1      35.101   9.346  12.724  0.00  0.00     0.078 C 
HETATM   23  C   UNK N   1      33.883  10.254  12.688  0.00  0.00     0.048 C 
HETATM   24  C   UNK N   1      34.777   8.065  11.989  0.00  0.00     0.048 C 
HETATM   25  C   UNK N   1      36.261  10.032  12.020  0.00  0.00     0.048 C 
ENDBRANCH  21  22
ENDBRANCH  19  21
ENDBRANCH   3  18
TORSDOF 6
ENDMDL
