MODEL 1
REMARK VINA RESULT:      -6.5      0.000      0.000
REMARK  7 active torsions:
REMARK  status: ('A' for Active; 'I' for Inactive)
REMARK    1  A    between atoms: C_1  and  N_3 
REMARK    2  A    between atoms: C_1  and  O_17 
REMARK    3  A    between atoms: N_3  and  C_4 
REMARK    4  A    between atoms: C_6  and  C_11 
REMARK    5  A    between atoms: C_11  and  O_12 
REMARK    6  A    between atoms: O_12  and  C_14 
REMARK    7  A    between atoms: O_17  and  C_18 
ROOT
HETATM    1  C   UNK N   1      25.805  27.662  -3.995  0.00  0.00     0.035 A 
HETATM    2  C   UNK N   1      26.542  26.610  -3.444  0.00  0.00     0.049 A 
HETATM    3  C   UNK N   1      26.544  25.339  -4.020  0.00  0.00     0.063 A 
HETATM    4  C   UNK N   1      25.807  25.130  -5.211  0.00  0.00     0.050 A 
HETATM    5 Cl   UNK N   1      25.846  23.608  -6.086  0.00  0.00    -0.083 Cl
HETATM    6  C   UNK N   1      25.101  26.197  -5.785  0.00  0.00     0.027 A 
HETATM    7  C   UNK N   1      25.096  27.457  -5.180  0.00  0.00     0.031 A 
ENDROOT
BRANCH   1   8
HETATM    8  N   UNK N   1      25.804  28.941  -3.373  0.00  0.00    -0.328 N 
HETATM    9  H   UNK N   1      24.936  29.360  -3.169  0.00  0.00     0.169 HD
BRANCH   8  10
HETATM   10  C   UNK N   1      26.996  29.651  -3.027  0.00  0.00     0.215 C 
HETATM   11  S   UNK N   1      27.524  30.667  -3.919  0.00  0.00    -0.033 SA
BRANCH  10  12
HETATM   12  O   UNK N   1      27.645  29.312  -1.875  0.00  0.00    -0.322 OA
BRANCH  12  13
HETATM   13  C   UNK N   1      28.487  30.136  -1.146  0.00  0.00     0.123 C 
HETATM   14  C   UNK N   1      29.922  29.721  -1.389  0.00  0.00     0.040 C 
HETATM   15  C   UNK N   1      28.202  30.015   0.345  0.00  0.00     0.040 C 
ENDBRANCH  12  13
ENDBRANCH  10  12
ENDBRANCH   8  10
ENDBRANCH   1   8
BRANCH   3  16
HETATM   16  C   UNK N   1      27.358  24.288  -3.354  0.00  0.00     0.295 C 
HETATM   17  O   UNK N   1      26.856  23.659  -2.432  0.00  0.00    -0.259 OA
BRANCH  16  18
HETATM   18  O   UNK N   1      28.574  23.893  -3.809  0.00  0.00    -0.313 OA
BRANCH  18  19
HETATM   19  C   UNK N   1      29.676  23.745  -2.994  0.00  0.00     0.124 C 
HETATM   20  C   UNK N   1      30.150  22.308  -3.036  0.00  0.00     0.040 C 
HETATM   21  C   UNK N   1      30.796  24.631  -3.507  0.00  0.00     0.040 C 
ENDBRANCH  18  19
ENDBRANCH  16  18
ENDBRANCH   3  16
TORSDOF 7
ENDMDL
MODEL 2
REMARK VINA RESULT:      -6.5      1.631      2.355
REMARK  7 active torsions:
REMARK  status: ('A' for Active; 'I' for Inactive)
REMARK    1  A    between atoms: C_1  and  N_3 
REMARK    2  A    between atoms: C_1  and  O_17 
REMARK    3  A    between atoms: N_3  and  C_4 
REMARK    4  A    between atoms: C_6  and  C_11 
REMARK    5  A    between atoms: C_11  and  O_12 
REMARK    6  A    between atoms: O_12  and  C_14 
REMARK    7  A    between atoms: O_17  and  C_18 
ROOT
HETATM    1  C   UNK N   1      25.897  27.651  -3.943  0.00  0.00     0.035 A 
HETATM    2  C   UNK N   1      26.645  26.604  -3.396  0.00  0.00     0.049 A 
HETATM    3  C   UNK N   1      26.617  25.322  -3.946  0.00  0.00     0.063 A 
HETATM    4  C   UNK N   1      25.837  25.095  -5.106  0.00  0.00     0.050 A 
HETATM    5 Cl   UNK N   1      25.833  23.556  -5.950  0.00  0.00    -0.083 Cl
HETATM    6  C   UNK N   1      25.120  26.156  -5.677  0.00  0.00     0.027 A 
HETATM    7  C   UNK N   1      25.146  27.428  -5.098  0.00  0.00     0.031 A 
ENDROOT
BRANCH   1   8
HETATM    8  N   UNK N   1      25.928  28.943  -3.347  0.00  0.00    -0.328 N 
HETATM    9  H   UNK N   1      25.221  29.175  -2.702  0.00  0.00     0.169 HD
BRANCH   8  10
HETATM   10  C   UNK N   1      26.930  29.920  -3.635  0.00  0.00     0.215 C 
HETATM   11  S   UNK N   1      27.587  30.631  -2.553  0.00  0.00    -0.033 SA
BRANCH  10  12
HETATM   12  O   UNK N   1      27.210  30.202  -4.941  0.00  0.00    -0.322 OA
BRANCH  12  13
HETATM   13  C   UNK N   1      28.356  29.829  -5.625  0.00  0.00     0.123 C 
HETATM   14  C   UNK N   1      29.014  31.062  -6.202  0.00  0.00     0.040 C 
HETATM   15  C   UNK N   1      28.017  28.887  -6.772  0.00  0.00     0.040 C 
ENDBRANCH  12  13
ENDBRANCH  10  12
ENDBRANCH   8  10
ENDBRANCH   1   8
BRANCH   3  16
HETATM   16  C   UNK N   1      27.446  24.278  -3.287  0.00  0.00     0.295 C 
HETATM   17  O   UNK N   1      27.004  23.730  -2.285  0.00  0.00    -0.259 OA
BRANCH  16  18
HETATM   18  O   UNK N   1      28.599  23.801  -3.820  0.00  0.00    -0.313 OA
BRANCH  18  19
HETATM   19  C   UNK N   1      29.784  23.726  -3.121  0.00  0.00     0.124 C 
HETATM   20  C   UNK N   1      30.298  22.303  -3.141  0.00  0.00     0.040 C 
HETATM   21  C   UNK N   1      30.814  24.615  -3.792  0.00  0.00     0.040 C 
ENDBRANCH  18  19
ENDBRANCH  16  18
ENDBRANCH   3  16
TORSDOF 7
ENDMDL
MODEL 3
REMARK VINA RESULT:      -5.7     11.543     13.800
REMARK  7 active torsions:
REMARK  status: ('A' for Active; 'I' for Inactive)
REMARK    1  A    between atoms: C_1  and  N_3 
REMARK    2  A    between atoms: C_1  and  O_17 
REMARK    3  A    between atoms: N_3  and  C_4 
REMARK    4  A    between atoms: C_6  and  C_11 
REMARK    5  A    between atoms: C_11  and  O_12 
REMARK    6  A    between atoms: O_12  and  C_14 
REMARK    7  A    between atoms: O_17  and  C_18 
ROOT
HETATM    1  C   UNK N   1      28.500  18.609   7.855  0.00  0.00     0.035 A 
HETATM    2  C   UNK N   1      28.913  17.707   6.869  0.00  0.00     0.049 A 
HETATM    3  C   UNK N   1      30.038  16.900   7.044  0.00  0.00     0.063 A 
HETATM    4  C   UNK N   1      30.749  16.978   8.266  0.00  0.00     0.050 A 
HETATM    5 Cl   UNK N   1      32.097  15.916   8.638  0.00  0.00    -0.083 Cl
HETATM    6  C   UNK N   1      30.310  17.853   9.269  0.00  0.00     0.027 A 
HETATM    7  C   UNK N   1      29.192  18.668   9.065  0.00  0.00     0.031 A 
ENDROOT
BRANCH   1   8
HETATM    8  N   UNK N   1      27.363  19.436   7.639  0.00  0.00    -0.328 N 
HETATM    9  H   UNK N   1      26.759  19.606   8.399  0.00  0.00     0.169 HD
BRANCH   8  10
HETATM   10  C   UNK N   1      27.050  20.035   6.379  0.00  0.00     0.215 C 
HETATM   11  S   UNK N   1      27.375  21.428   6.134  0.00  0.00    -0.033 SA
BRANCH  10  12
HETATM   12  O   UNK N   1      26.398  19.284   5.445  0.00  0.00    -0.322 OA
BRANCH  12  13
HETATM   13  C   UNK N   1      26.732  19.188   4.103  0.00  0.00     0.123 C 
HETATM   14  C   UNK N   1      25.564  19.661   3.266  0.00  0.00     0.040 C 
HETATM   15  C   UNK N   1      27.037  17.745   3.726  0.00  0.00     0.040 C 
ENDBRANCH  12  13
ENDBRANCH  10  12
ENDBRANCH   8  10
ENDBRANCH   1   8
BRANCH   3  16
HETATM   16  C   UNK N   1      30.395  15.977   5.934  0.00  0.00     0.295 C 
HETATM   17  O   UNK N   1      29.548  15.187   5.538  0.00  0.00    -0.259 OA
BRANCH  16  18
HETATM   18  O   UNK N   1      31.559  16.064   5.242  0.00  0.00    -0.313 OA
BRANCH  18  19
HETATM   19  C   UNK N   1      32.122  17.261   4.854  0.00  0.00     0.124 C 
HETATM   20  C   UNK N   1      33.453  17.447   5.549  0.00  0.00     0.040 C 
HETATM   21  C   UNK N   1      32.365  17.232   3.356  0.00  0.00     0.040 C 
ENDBRANCH  18  19
ENDBRANCH  16  18
ENDBRANCH   3  16
TORSDOF 7
ENDMDL
MODEL 4
REMARK VINA RESULT:      -5.7     12.908     14.755
REMARK  7 active torsions:
REMARK  status: ('A' for Active; 'I' for Inactive)
REMARK    1  A    between atoms: C_1  and  N_3 
REMARK    2  A    between atoms: C_1  and  O_17 
REMARK    3  A    between atoms: N_3  and  C_4 
REMARK    4  A    between atoms: C_6  and  C_11 
REMARK    5  A    between atoms: C_11  and  O_12 
REMARK    6  A    between atoms: O_12  and  C_14 
REMARK    7  A    between atoms: O_17  and  C_18 
ROOT
HETATM    1  C   UNK N   1      31.555  17.646   8.235  0.00  0.00     0.035 A 
HETATM    2  C   UNK N   1      31.176  16.631   7.352  0.00  0.00     0.049 A 
HETATM    3  C   UNK N   1      32.086  16.059   6.462  0.00  0.00     0.063 A 
HETATM    4  C   UNK N   1      33.431  16.499   6.487  0.00  0.00     0.050 A 
HETATM    5 Cl   UNK N   1      34.682  15.757   5.502  0.00  0.00    -0.083 Cl
HETATM    6  C   UNK N   1      33.820  17.488   7.401  0.00  0.00     0.027 A 
HETATM    7  C   UNK N   1      32.887  18.063   8.270  0.00  0.00     0.031 A 
ENDROOT
BRANCH   1   8
HETATM    8  N   UNK N   1      30.600  18.227   9.115  0.00  0.00    -0.328 N 
HETATM    9  H   UNK N   1      30.912  18.558   9.988  0.00  0.00     0.169 HD
BRANCH   8  10
HETATM   10  C   UNK N   1      29.212  18.355   8.798  0.00  0.00     0.215 C 
HETATM   11  S   UNK N   1      28.241  17.462   9.403  0.00  0.00    -0.033 SA
BRANCH  10  12
HETATM   12  O   UNK N   1      28.837  19.293   7.880  0.00  0.00    -0.322 OA
BRANCH  12  13
HETATM   13  C   UNK N   1      27.873  19.129   6.898  0.00  0.00     0.123 C 
HETATM   14  C   UNK N   1      28.485  18.406   5.718  0.00  0.00     0.040 C 
HETATM   15  C   UNK N   1      27.358  20.478   6.417  0.00  0.00     0.040 C 
ENDBRANCH  12  13
ENDBRANCH  10  12
ENDBRANCH   8  10
ENDBRANCH   1   8
BRANCH   3  16
HETATM   16  C   UNK N   1      31.580  14.988   5.562  0.00  0.00     0.295 C 
HETATM   17  O   UNK N   1      31.248  13.920   6.058  0.00  0.00    -0.259 OA
BRANCH  16  18
HETATM   18  O   UNK N   1      31.333  15.185   4.242  0.00  0.00    -0.313 OA
BRANCH  18  19
HETATM   19  C   UNK N   1      31.045  16.419   3.701  0.00  0.00     0.124 C 
HETATM   20  C   UNK N   1      32.212  16.892   2.861  0.00  0.00     0.040 C 
HETATM   21  C   UNK N   1      29.829  16.295   2.801  0.00  0.00     0.040 C 
ENDBRANCH  18  19
ENDBRANCH  16  18
ENDBRANCH   3  16
TORSDOF 7
ENDMDL
MODEL 5
REMARK VINA RESULT:      -5.7     18.409     21.268
REMARK  7 active torsions:
REMARK  status: ('A' for Active; 'I' for Inactive)
REMARK    1  A    between atoms: C_1  and  N_3 
REMARK    2  A    between atoms: C_1  and  O_17 
REMARK    3  A    between atoms: N_3  and  C_4 
REMARK    4  A    between atoms: C_6  and  C_11 
REMARK    5  A    between atoms: C_11  and  O_12 
REMARK    6  A    between atoms: O_12  and  C_14 
REMARK    7  A    between atoms: O_17  and  C_18 
ROOT
HETATM    1  C   UNK N   1      36.664  13.854  11.549  0.00  0.00     0.035 A 
HETATM    2  C   UNK N   1      35.961  15.024  11.246  0.00  0.00     0.049 A 
HETATM    3  C   UNK N   1      35.655  15.372   9.929  0.00  0.00     0.063 A 
HETATM    4  C   UNK N   1      36.040  14.495   8.886  0.00  0.00     0.050 A 
HETATM    5 Cl   UNK N   1      35.593  14.773   7.211  0.00  0.00    -0.083 Cl
HETATM    6  C   UNK N   1      36.710  13.303   9.194  0.00  0.00     0.027 A 
HETATM    7  C   UNK N   1      37.024  12.983  10.519  0.00  0.00     0.031 A 
ENDROOT
BRANCH   1   8
HETATM    8  N   UNK N   1      36.982  13.537  12.899  0.00  0.00    -0.328 N 
HETATM    9  H   UNK N   1      37.570  14.150  13.396  0.00  0.00     0.169 HD
BRANCH   8  10
HETATM   10  C   UNK N   1      36.489  12.376  13.572  0.00  0.00     0.215 C 
HETATM   11  S   UNK N   1      37.378  11.584  14.403  0.00  0.00    -0.033 SA
BRANCH  10  12
HETATM   12  O   UNK N   1      35.191  12.007  13.371  0.00  0.00    -0.322 OA
BRANCH  12  13
HETATM   13  C   UNK N   1      34.668  10.739  13.569  0.00  0.00     0.123 C 
HETATM   14  C   UNK N   1      34.002  10.271  12.294  0.00  0.00     0.040 C 
HETATM   15  C   UNK N   1      33.622  10.755  14.675  0.00  0.00     0.040 C 
ENDBRANCH  12  13
ENDBRANCH  10  12
ENDBRANCH   8  10
ENDBRANCH   1   8
BRANCH   3  16
HETATM   16  C   UNK N   1      34.907  16.639   9.714  0.00  0.00     0.295 C 
HETATM   17  O   UNK N   1      35.449  17.694  10.014  0.00  0.00    -0.259 OA
BRANCH  16  18
HETATM   18  O   UNK N   1      33.714  16.694   9.069  0.00  0.00    -0.313 OA
BRANCH  18  19
HETATM   19  C   UNK N   1      33.276  17.804   8.378  0.00  0.00     0.124 C 
HETATM   20  C   UNK N   1      33.697  17.700   6.928  0.00  0.00     0.040 C 
HETATM   21  C   UNK N   1      31.761  17.857   8.434  0.00  0.00     0.040 C 
ENDBRANCH  18  19
ENDBRANCH  16  18
ENDBRANCH   3  16
TORSDOF 7
ENDMDL
MODEL 6
REMARK VINA RESULT:      -5.6     13.315     15.490
REMARK  7 active torsions:
REMARK  status: ('A' for Active; 'I' for Inactive)
REMARK    1  A    between atoms: C_1  and  N_3 
REMARK    2  A    between atoms: C_1  and  O_17 
REMARK    3  A    between atoms: N_3  and  C_4 
REMARK    4  A    between atoms: C_6  and  C_11 
REMARK    5  A    between atoms: C_11  and  O_12 
REMARK    6  A    between atoms: O_12  and  C_14 
REMARK    7  A    between atoms: O_17  and  C_18 
ROOT
HETATM    1  C   UNK N   1      30.834  17.469   7.763  0.00  0.00     0.035 A 
HETATM    2  C   UNK N   1      32.068  17.877   8.279  0.00  0.00     0.049 A 
HETATM    3  C   UNK N   1      33.272  17.438   7.726  0.00  0.00     0.063 A 
HETATM    4  C   UNK N   1      33.231  16.588   6.594  0.00  0.00     0.050 A 
HETATM    5 Cl   UNK N   1      34.683  16.084   5.745  0.00  0.00    -0.083 Cl
HETATM    6  C   UNK N   1      31.994  16.212   6.053  0.00  0.00     0.027 A 
HETATM    7  C   UNK N   1      30.800  16.647   6.635  0.00  0.00     0.031 A 
ENDROOT
BRANCH   1   8
HETATM    8  N   UNK N   1      29.623  17.914   8.362  0.00  0.00    -0.328 N 
HETATM    9  H   UNK N   1      29.619  18.088   9.331  0.00  0.00     0.169 HD
BRANCH   8  10
HETATM   10  C   UNK N   1      28.413  18.123   7.631  0.00  0.00     0.215 C 
HETATM   11  S   UNK N   1      27.506  17.015   7.390  0.00  0.00    -0.033 SA
BRANCH  10  12
HETATM   12  O   UNK N   1      28.163  19.366   7.125  0.00  0.00    -0.322 OA
BRANCH  12  13
HETATM   13  C   UNK N   1      27.390  19.648   6.010  0.00  0.00     0.123 C 
HETATM   14  C   UNK N   1      28.222  19.436   4.763  0.00  0.00     0.040 C 
HETATM   15  C   UNK N   1      26.922  21.097   6.030  0.00  0.00     0.040 C 
ENDBRANCH  12  13
ENDBRANCH  10  12
ENDBRANCH   8  10
ENDBRANCH   1   8
BRANCH   3  16
HETATM   16  C   UNK N   1      34.529  17.928   8.351  0.00  0.00     0.295 C 
HETATM   17  O   UNK N   1      34.749  19.132   8.350  0.00  0.00    -0.259 OA
BRANCH  16  18
HETATM   18  O   UNK N   1      35.372  17.125   9.048  0.00  0.00    -0.313 OA
BRANCH  18  19
HETATM   19  C   UNK N   1      34.944  16.081   9.839  0.00  0.00     0.124 C 
HETATM   20  C   UNK N   1      35.523  14.781   9.324  0.00  0.00     0.040 C 
HETATM   21  C   UNK N   1      35.441  16.296  11.257  0.00  0.00     0.040 C 
ENDBRANCH  18  19
ENDBRANCH  16  18
ENDBRANCH   3  16
TORSDOF 7
ENDMDL
MODEL 7
REMARK VINA RESULT:      -5.6     11.294     13.711
REMARK  7 active torsions:
REMARK  status: ('A' for Active; 'I' for Inactive)
REMARK    1  A    between atoms: C_1  and  N_3 
REMARK    2  A    between atoms: C_1  and  O_17 
REMARK    3  A    between atoms: N_3  and  C_4 
REMARK    4  A    between atoms: C_6  and  C_11 
REMARK    5  A    between atoms: C_11  and  O_12 
REMARK    6  A    between atoms: O_12  and  C_14 
REMARK    7  A    between atoms: O_17  and  C_18 
ROOT
HETATM    1  C   UNK N   1      31.515  17.128   4.282  0.00  0.00     0.035 A 
HETATM    2  C   UNK N   1      30.493  17.521   5.151  0.00  0.00     0.049 A 
HETATM    3  C   UNK N   1      29.148  17.360   4.818  0.00  0.00     0.063 A 
HETATM    4  C   UNK N   1      28.821  16.750   3.582  0.00  0.00     0.050 A 
HETATM    5 Cl   UNK N   1      27.166  16.383   3.124  0.00  0.00    -0.083 Cl
HETATM    6  C   UNK N   1      29.846  16.319   2.729  0.00  0.00     0.027 A 
HETATM    7  C   UNK N   1      31.188  16.508   3.074  0.00  0.00     0.031 A 
ENDROOT
BRANCH   1   8
HETATM    8  N   UNK N   1      32.878  17.326   4.639  0.00  0.00    -0.328 N 
HETATM    9  H   UNK N   1      33.349  18.104   4.264  0.00  0.00     0.169 HD
BRANCH   8  10
HETATM   10  C   UNK N   1      33.598  16.455   5.514  0.00  0.00     0.215 C 
HETATM   11  S   UNK N   1      34.287  15.293   4.982  0.00  0.00    -0.033 SA
BRANCH  10  12
HETATM   12  O   UNK N   1      33.573  16.712   6.854  0.00  0.00    -0.322 OA
BRANCH  12  13
HETATM   13  C   UNK N   1      33.345  17.947   7.440  0.00  0.00     0.123 C 
HETATM   14  C   UNK N   1      34.581  18.371   8.202  0.00  0.00     0.040 C 
HETATM   15  C   UNK N   1      32.182  17.872   8.420  0.00  0.00     0.040 C 
ENDBRANCH  12  13
ENDBRANCH  10  12
ENDBRANCH   8  10
ENDBRANCH   1   8
BRANCH   3  16
HETATM   16  C   UNK N   1      28.139  17.815   5.811  0.00  0.00     0.295 C 
HETATM   17  O   UNK N   1      28.174  17.337   6.938  0.00  0.00    -0.259 OA
BRANCH  16  18
HETATM   18  O   UNK N   1      27.275  18.835   5.576  0.00  0.00    -0.313 OA
BRANCH  18  19
HETATM   19  C   UNK N   1      27.646  20.021   4.980  0.00  0.00     0.124 C 
HETATM   20  C   UNK N   1      26.900  20.189   3.674  0.00  0.00     0.040 C 
HETATM   21  C   UNK N   1      27.274  21.173   5.895  0.00  0.00     0.040 C 
ENDBRANCH  18  19
ENDBRANCH  16  18
ENDBRANCH   3  16
TORSDOF 7
ENDMDL
MODEL 8
REMARK VINA RESULT:      -5.5     11.968     14.191
REMARK  7 active torsions:
REMARK  status: ('A' for Active; 'I' for Inactive)
REMARK    1  A    between atoms: C_1  and  N_3 
REMARK    2  A    between atoms: C_1  and  O_17 
REMARK    3  A    between atoms: N_3  and  C_4 
REMARK    4  A    between atoms: C_6  and  C_11 
REMARK    5  A    between atoms: C_11  and  O_12 
REMARK    6  A    between atoms: O_12  and  C_14 
REMARK    7  A    between atoms: O_17  and  C_18 
ROOT
HETATM    1  C   UNK N   1      29.798  16.875   5.848  0.00  0.00     0.035 A 
HETATM    2  C   UNK N   1      31.116  16.938   6.310  0.00  0.00     0.049 A 
HETATM    3  C   UNK N   1      32.201  16.801   5.443  0.00  0.00     0.063 A 
HETATM    4  C   UNK N   1      31.950  16.630   4.060  0.00  0.00     0.050 A 
HETATM    5 Cl   UNK N   1      33.240  16.578   2.870  0.00  0.00    -0.083 Cl
HETATM    6  C   UNK N   1      30.629  16.608   3.592  0.00  0.00     0.027 A 
HETATM    7  C   UNK N   1      29.556  16.727   4.481  0.00  0.00     0.031 A 
ENDROOT
BRANCH   1   8
HETATM    8  N   UNK N   1      28.711  16.995   6.758  0.00  0.00    -0.328 N 
HETATM    9  H   UNK N   1      28.267  16.171   7.064  0.00  0.00     0.169 HD
BRANCH   8  10
HETATM   10  C   UNK N   1      28.232  18.247   7.254  0.00  0.00     0.215 C 
HETATM   11  S   UNK N   1      28.543  18.661   8.610  0.00  0.00    -0.033 SA
BRANCH  10  12
HETATM   12  O   UNK N   1      27.439  19.008   6.445  0.00  0.00    -0.322 OA
BRANCH  12  13
HETATM   13  C   UNK N   1      27.854  20.094   5.691  0.00  0.00     0.123 C 
HETATM   14  C   UNK N   1      27.105  21.328   6.145  0.00  0.00     0.040 C 
HETATM   15  C   UNK N   1      27.554  19.872   4.215  0.00  0.00     0.040 C 
ENDBRANCH  12  13
ENDBRANCH  10  12
ENDBRANCH   8  10
ENDBRANCH   1   8
BRANCH   3  16
HETATM   16  C   UNK N   1      33.563  16.880   6.035  0.00  0.00     0.295 C 
HETATM   17  O   UNK N   1      34.106  17.974   6.102  0.00  0.00    -0.259 OA
BRANCH  16  18
HETATM   18  O   UNK N   1      34.172  15.826   6.636  0.00  0.00    -0.313 OA
BRANCH  18  19
HETATM   19  C   UNK N   1      34.654  15.864   7.926  0.00  0.00     0.124 C 
HETATM   20  C   UNK N   1      33.499  15.836   8.903  0.00  0.00     0.040 C 
HETATM   21  C   UNK N   1      35.516  14.639   8.170  0.00  0.00     0.040 C 
ENDBRANCH  18  19
ENDBRANCH  16  18
ENDBRANCH   3  16
TORSDOF 7
ENDMDL
MODEL 9
REMARK VINA RESULT:      -5.3      3.308      5.380
REMARK  7 active torsions:
REMARK  status: ('A' for Active; 'I' for Inactive)
REMARK    1  A    between atoms: C_1  and  N_3 
REMARK    2  A    between atoms: C_1  and  O_17 
REMARK    3  A    between atoms: N_3  and  C_4 
REMARK    4  A    between atoms: C_6  and  C_11 
REMARK    5  A    between atoms: C_11  and  O_12 
REMARK    6  A    between atoms: O_12  and  C_14 
REMARK    7  A    between atoms: O_17  and  C_18 
ROOT
HETATM    1  C   UNK N   1      27.745  24.333  -3.882  0.00  0.00     0.035 A 
HETATM    2  C   UNK N   1      27.221  25.566  -3.484  0.00  0.00     0.049 A 
HETATM    3  C   UNK N   1      26.451  26.346  -4.348  0.00  0.00     0.063 A 
HETATM    4  C   UNK N   1      26.170  25.850  -5.645  0.00  0.00     0.050 A 
HETATM    5 Cl   UNK N   1      25.106  26.688  -6.762  0.00  0.00    -0.083 Cl
HETATM    6  C   UNK N   1      26.662  24.594  -6.028  0.00  0.00     0.027 A 
HETATM    7  C   UNK N   1      27.448  23.839  -5.153  0.00  0.00     0.031 A 
ENDROOT
BRANCH   1   8
HETATM    8  N   UNK N   1      28.546  23.571  -2.986  0.00  0.00    -0.328 N 
HETATM    9  H   UNK N   1      28.097  22.931  -2.388  0.00  0.00     0.169 HD
BRANCH   8  10
HETATM   10  C   UNK N   1      29.969  23.685  -2.910  0.00  0.00     0.215 C 
HETATM   11  S   UNK N   1      30.792  22.491  -2.838  0.00  0.00    -0.033 SA
BRANCH  10  12
HETATM   12  O   UNK N   1      30.521  24.931  -2.853  0.00  0.00    -0.322 OA
BRANCH  12  13
HETATM   13  C   UNK N   1      31.210  25.562  -3.877  0.00  0.00     0.123 C 
HETATM   14  C   UNK N   1      30.699  26.980  -4.018  0.00  0.00     0.040 C 
HETATM   15  C   UNK N   1      30.988  24.842  -5.199  0.00  0.00     0.040 C 
ENDBRANCH  12  13
ENDBRANCH  10  12
ENDBRANCH   8  10
ENDBRANCH   1   8
BRANCH   3  16
HETATM   16  C   UNK N   1      25.943  27.644  -3.829  0.00  0.00     0.295 C 
HETATM   17  O   UNK N   1      25.489  27.679  -2.693  0.00  0.00    -0.259 OA
BRANCH  16  18
HETATM   18  O   UNK N   1      26.091  28.817  -4.495  0.00  0.00    -0.313 OA
BRANCH  18  19
HETATM   19  C   UNK N   1      27.290  29.490  -4.587  0.00  0.00     0.124 C 
HETATM   20  C   UNK N   1      27.842  29.357  -5.990  0.00  0.00     0.040 C 
HETATM   21  C   UNK N   1      27.055  30.963  -4.304  0.00  0.00     0.040 C 
ENDBRANCH  18  19
ENDBRANCH  16  18
ENDBRANCH   3  16
TORSDOF 7
ENDMDL
