MODEL 1
REMARK VINA RESULT:      -6.1      0.000      0.000
REMARK  5 active torsions:
REMARK  status: ('A' for Active; 'I' for Inactive)
REMARK    1  A    between atoms: C_2  and  C_9 
REMARK    2  A    between atoms: C_6  and  N_23 
REMARK    3  A    between atoms: C_9  and  O_10 
REMARK    4  A    between atoms: O_10  and  C_11 
REMARK    5  A    between atoms: C_16  and  C_22 
REMARK       I    between atoms: C_22  and  N_23 
ROOT
HETATM    1 Cl   UNK N   1      37.885  10.950  14.267  0.00  0.00    -0.083 Cl
HETATM    2  C   UNK N   1      36.676  13.294  13.392  0.00  0.00     0.063 A 
HETATM    3  C   UNK N   1      37.342  12.095  13.051  0.00  0.00     0.050 A 
HETATM    4  C   UNK N   1      37.542  11.782  11.690  0.00  0.00     0.027 A 
HETATM    5  C   UNK N   1      37.111  12.660  10.678  0.00  0.00     0.031 A 
HETATM    6  C   UNK N   1      36.469  13.854  11.025  0.00  0.00     0.036 A 
HETATM    7  C   UNK N   1      36.253  14.124  12.371  0.00  0.00     0.049 A 
ENDROOT
BRANCH   6   8
HETATM    8  N   UNK N   1      36.018  14.783  10.033  0.00  0.00    -0.322 N 
HETATM    9  C   UNK N   1      34.813  14.665   9.390  0.00  0.00     0.265 C 
HETATM   10  O   UNK N   1      34.016  13.802   9.739  0.00  0.00    -0.267 OA
HETATM   11  H   UNK N   1      36.599  15.543   9.802  0.00  0.00     0.169 HD
BRANCH   9  12
HETATM   12  C   UNK N   1      34.453  15.562   8.251  0.00  0.00     0.097 C 
HETATM   13  C   UNK N   1      35.022  15.431   7.005  0.00  0.00     0.064 C 
HETATM   14  O   UNK N   1      34.719  16.268   5.976  0.00  0.00    -0.353 OA
HETATM   15  C   UNK N   1      36.050  14.379   6.709  0.00  0.00     0.078 C 
HETATM   16  C   UNK N   1      33.797  17.291   6.019  0.00  0.00     0.185 C 
HETATM   17  C   UNK N   1      33.885  18.009   7.344  0.00  0.00     0.106 C 
HETATM   18  S   UNK N   1      33.231  16.862   8.578  0.00  0.00    -0.120 SA
ENDBRANCH   9  12
ENDBRANCH   6   8
BRANCH   2  19
HETATM   19  C   UNK N   1      36.395  13.778  14.767  0.00  0.00     0.295 C 
HETATM   20  O   UNK N   1      37.124  14.639  15.245  0.00  0.00    -0.259 OA
BRANCH  19  21
HETATM   21  O   UNK N   1      35.417  13.228  15.531  0.00  0.00    -0.313 OA
BRANCH  21  22
HETATM   22  C   UNK N   1      35.672  12.630  16.756  0.00  0.00     0.124 C 
HETATM   23  C   UNK N   1      34.983  13.414  17.850  0.00  0.00     0.040 C 
HETATM   24  C   UNK N   1      35.158  11.195  16.805  0.00  0.00     0.040 C 
ENDBRANCH  21  22
ENDBRANCH  19  21
ENDBRANCH   2  19
TORSDOF 5
ENDMDL
MODEL 2
REMARK VINA RESULT:      -6.1     14.030     16.993
REMARK  5 active torsions:
REMARK  status: ('A' for Active; 'I' for Inactive)
REMARK    1  A    between atoms: C_2  and  C_9 
REMARK    2  A    between atoms: C_6  and  N_23 
REMARK    3  A    between atoms: C_9  and  O_10 
REMARK    4  A    between atoms: O_10  and  C_11 
REMARK    5  A    between atoms: C_16  and  C_22 
REMARK       I    between atoms: C_22  and  N_23 
ROOT
HETATM    1 Cl   UNK N   1      20.569  21.016   1.103  0.00  0.00    -0.083 Cl
HETATM    2  C   UNK N   1      21.954  19.565   3.025  0.00  0.00     0.063 A 
HETATM    3  C   UNK N   1      20.752  19.750   2.306  0.00  0.00     0.050 A 
HETATM    4  C   UNK N   1      19.675  18.866   2.526  0.00  0.00     0.027 A 
HETATM    5  C   UNK N   1      19.778  17.826   3.469  0.00  0.00     0.031 A 
HETATM    6  C   UNK N   1      20.966  17.661   4.190  0.00  0.00     0.036 A 
HETATM    7  C   UNK N   1      22.024  18.523   3.931  0.00  0.00     0.049 A 
ENDROOT
BRANCH   6   8
HETATM    8  N   UNK N   1      21.118  16.622   5.164  0.00  0.00    -0.322 N 
HETATM    9  C   UNK N   1      21.287  16.869   6.502  0.00  0.00     0.265 C 
HETATM   10  O   UNK N   1      21.193  18.014   6.929  0.00  0.00    -0.267 OA
HETATM   11  H   UNK N   1      21.101  15.687   4.859  0.00  0.00     0.169 HD
BRANCH   9  12
HETATM   12  C   UNK N   1      21.602  15.766   7.458  0.00  0.00     0.097 C 
HETATM   13  C   UNK N   1      22.729  14.987   7.335  0.00  0.00     0.064 C 
HETATM   14  O   UNK N   1      23.001  13.961   8.186  0.00  0.00    -0.353 OA
HETATM   15  C   UNK N   1      23.717  15.191   6.223  0.00  0.00     0.078 C 
HETATM   16  C   UNK N   1      22.243  13.604   9.280  0.00  0.00     0.185 C 
HETATM   17  C   UNK N   1      20.774  13.707   8.945  0.00  0.00     0.106 C 
HETATM   18  S   UNK N   1      20.418  15.473   8.801  0.00  0.00    -0.120 SA
ENDBRANCH   9  12
ENDBRANCH   6   8
BRANCH   2  19
HETATM   19  C   UNK N   1      23.174  20.405   2.922  0.00  0.00     0.295 C 
HETATM   20  O   UNK N   1      23.048  21.624   2.941  0.00  0.00    -0.259 OA
BRANCH  19  21
HETATM   21  O   UNK N   1      24.400  19.861   2.717  0.00  0.00    -0.313 OA
BRANCH  21  22
HETATM   22  C   UNK N   1      25.333  19.715   3.733  0.00  0.00     0.124 C 
HETATM   23  C   UNK N   1      25.715  18.258   3.857  0.00  0.00     0.040 C 
HETATM   24  C   UNK N   1      26.601  20.517   3.458  0.00  0.00     0.040 C 
ENDBRANCH  21  22
ENDBRANCH  19  21
ENDBRANCH   2  19
TORSDOF 5
ENDMDL
MODEL 3
REMARK VINA RESULT:      -6.0      1.108      1.407
REMARK  5 active torsions:
REMARK  status: ('A' for Active; 'I' for Inactive)
REMARK    1  A    between atoms: C_2  and  C_9 
REMARK    2  A    between atoms: C_6  and  N_23 
REMARK    3  A    between atoms: C_9  and  O_10 
REMARK    4  A    between atoms: O_10  and  C_11 
REMARK    5  A    between atoms: C_16  and  C_22 
REMARK       I    between atoms: C_22  and  N_23 
ROOT
HETATM    1 Cl   UNK N   1      37.138  10.294  14.597  0.00  0.00    -0.083 Cl
HETATM    2  C   UNK N   1      35.424  12.223  13.568  0.00  0.00     0.063 A 
HETATM    3  C   UNK N   1      36.646  11.526  13.445  0.00  0.00     0.050 A 
HETATM    4  C   UNK N   1      37.483  11.792  12.342  0.00  0.00     0.027 A 
HETATM    5  C   UNK N   1      37.126  12.759  11.383  0.00  0.00     0.031 A 
HETATM    6  C   UNK N   1      35.922  13.460  11.523  0.00  0.00     0.036 A 
HETATM    7  C   UNK N   1      35.098  13.155  12.600  0.00  0.00     0.049 A 
ENDROOT
BRANCH   6   8
HETATM    8  N   UNK N   1      35.516  14.457  10.578  0.00  0.00    -0.322 N 
HETATM    9  C   UNK N   1      34.712  14.185   9.502  0.00  0.00     0.265 C 
HETATM   10  O   UNK N   1      34.209  13.075   9.379  0.00  0.00    -0.267 OA
HETATM   11  H   UNK N   1      35.829  15.381  10.709  0.00  0.00     0.169 HD
BRANCH   9  12
HETATM   12  C   UNK N   1      34.445  15.218   8.456  0.00  0.00     0.097 C 
HETATM   13  C   UNK N   1      35.152  15.267   7.277  0.00  0.00     0.064 C 
HETATM   14  O   UNK N   1      34.933  16.227   6.338  0.00  0.00    -0.353 OA
HETATM   15  C   UNK N   1      36.246  14.288   6.965  0.00  0.00     0.078 C 
HETATM   16  C   UNK N   1      33.974  17.215   6.408  0.00  0.00     0.185 C 
HETATM   17  C   UNK N   1      33.889  17.751   7.817  0.00  0.00     0.106 C 
HETATM   18  S   UNK N   1      33.147  16.434   8.808  0.00  0.00    -0.120 SA
ENDBRANCH   9  12
ENDBRANCH   6   8
BRANCH   2  19
HETATM   19  C   UNK N   1      34.436  12.073  14.667  0.00  0.00     0.295 C 
HETATM   20  O   UNK N   1      33.561  11.222  14.554  0.00  0.00    -0.259 OA
BRANCH  19  21
HETATM   21  O   UNK N   1      34.425  12.908  15.736  0.00  0.00    -0.313 OA
BRANCH  21  22
HETATM   22  C   UNK N   1      35.391  12.862  16.731  0.00  0.00     0.124 C 
HETATM   23  C   UNK N   1      35.153  13.986  17.713  0.00  0.00     0.040 C 
HETATM   24  C   UNK N   1      35.351  11.545  17.498  0.00  0.00     0.040 C 
ENDBRANCH  21  22
ENDBRANCH  19  21
ENDBRANCH   2  19
TORSDOF 5
ENDMDL
MODEL 4
REMARK VINA RESULT:      -6.0      7.475     12.146
REMARK  5 active torsions:
REMARK  status: ('A' for Active; 'I' for Inactive)
REMARK    1  A    between atoms: C_2  and  C_9 
REMARK    2  A    between atoms: C_6  and  N_23 
REMARK    3  A    between atoms: C_9  and  O_10 
REMARK    4  A    between atoms: O_10  and  C_11 
REMARK    5  A    between atoms: C_16  and  C_22 
REMARK       I    between atoms: C_22  and  N_23 
ROOT
HETATM    1 Cl   UNK N   1      25.453  15.265   1.859  0.00  0.00    -0.083 Cl
HETATM    2  C   UNK N   1      26.831  16.878   3.654  0.00  0.00     0.063 A 
HETATM    3  C   UNK N   1      26.888  15.847   2.690  0.00  0.00     0.050 A 
HETATM    4  C   UNK N   1      28.138  15.290   2.349  0.00  0.00     0.027 A 
HETATM    5  C   UNK N   1      29.318  15.733   2.976  0.00  0.00     0.031 A 
HETATM    6  C   UNK N   1      29.252  16.742   3.943  0.00  0.00     0.036 A 
HETATM    7  C   UNK N   1      28.013  17.298   4.237  0.00  0.00     0.049 A 
ENDROOT
BRANCH   6   8
HETATM    8  N   UNK N   1      30.423  17.223   4.613  0.00  0.00    -0.322 N 
HETATM    9  C   UNK N   1      30.993  16.576   5.679  0.00  0.00     0.265 C 
HETATM   10  O   UNK N   1      30.575  15.477   6.023  0.00  0.00    -0.267 OA
HETATM   11  H   UNK N   1      30.837  18.056   4.294  0.00  0.00     0.169 HD
BRANCH   9  12
HETATM   12  C   UNK N   1      32.115  17.194   6.447  0.00  0.00     0.097 C 
HETATM   13  C   UNK N   1      33.334  17.470   5.872  0.00  0.00     0.064 C 
HETATM   14  O   UNK N   1      34.368  18.002   6.579  0.00  0.00    -0.353 OA
HETATM   15  C   UNK N   1      33.621  17.161   4.431  0.00  0.00     0.078 C 
HETATM   16  C   UNK N   1      34.325  18.374   7.905  0.00  0.00     0.185 C 
HETATM   17  C   UNK N   1      33.540  17.360   8.700  0.00  0.00     0.106 C 
HETATM   18  S   UNK N   1      31.815  17.558   8.198  0.00  0.00    -0.120 SA
ENDBRANCH   9  12
ENDBRANCH   6   8
BRANCH   2  19
HETATM   19  C   UNK N   1      25.604  17.562   4.133  0.00  0.00     0.295 C 
HETATM   20  O   UNK N   1      25.159  17.261   5.235  0.00  0.00    -0.259 OA
BRANCH  19  21
HETATM   21  O   UNK N   1      24.920  18.434   3.350  0.00  0.00    -0.313 OA
BRANCH  21  22
HETATM   22  C   UNK N   1      24.851  19.792   3.627  0.00  0.00     0.124 C 
HETATM   23  C   UNK N   1      26.026  20.495   2.987  0.00  0.00     0.040 C 
HETATM   24  C   UNK N   1      23.570  20.416   3.084  0.00  0.00     0.040 C 
ENDBRANCH  21  22
ENDBRANCH  19  21
ENDBRANCH   2  19
TORSDOF 5
ENDMDL
MODEL 5
REMARK VINA RESULT:      -5.9      4.912      9.579
REMARK  5 active torsions:
REMARK  status: ('A' for Active; 'I' for Inactive)
REMARK    1  A    between atoms: C_2  and  C_9 
REMARK    2  A    between atoms: C_6  and  N_23 
REMARK    3  A    between atoms: C_9  and  O_10 
REMARK    4  A    between atoms: O_10  and  C_11 
REMARK    5  A    between atoms: C_16  and  C_22 
REMARK       I    between atoms: C_22  and  N_23 
ROOT
HETATM    1 Cl   UNK N   1      27.479  19.042   6.482  0.00  0.00    -0.083 Cl
HETATM    2  C   UNK N   1      29.585  17.231   6.553  0.00  0.00     0.063 A 
HETATM    3  C   UNK N   1      28.896  18.286   7.192  0.00  0.00     0.050 A 
HETATM    4  C   UNK N   1      29.330  18.723   8.461  0.00  0.00     0.027 A 
HETATM    5  C   UNK N   1      30.452  18.138   9.079  0.00  0.00     0.031 A 
HETATM    6  C   UNK N   1      31.140  17.106   8.430  0.00  0.00     0.036 A 
HETATM    7  C   UNK N   1      30.673  16.671   7.197  0.00  0.00     0.049 A 
ENDROOT
BRANCH   6   8
HETATM    8  N   UNK N   1      32.290  16.483   9.014  0.00  0.00    -0.322 N 
HETATM    9  C   UNK N   1      33.575  16.866   8.728  0.00  0.00     0.265 C 
HETATM   10  O   UNK N   1      33.778  17.856   8.034  0.00  0.00    -0.267 OA
HETATM   11  H   UNK N   1      32.152  15.746   9.651  0.00  0.00     0.169 HD
BRANCH   9  12
HETATM   12  C   UNK N   1      34.745  16.087   9.233  0.00  0.00     0.097 C 
HETATM   13  C   UNK N   1      35.301  15.051   8.518  0.00  0.00     0.064 C 
HETATM   14  O   UNK N   1      36.346  14.320   8.992  0.00  0.00    -0.353 OA
HETATM   15  C   UNK N   1      34.763  14.630   7.182  0.00  0.00     0.078 C 
HETATM   16  C   UNK N   1      37.002  14.537  10.184  0.00  0.00     0.185 C 
HETATM   17  C   UNK N   1      36.009  14.896  11.262  0.00  0.00     0.106 C 
HETATM   18  S   UNK N   1      35.407  16.551  10.856  0.00  0.00    -0.120 SA
ENDBRANCH   9  12
ENDBRANCH   6   8
BRANCH   2  19
HETATM   19  C   UNK N   1      29.268  16.660   5.219  0.00  0.00     0.295 C 
HETATM   20  O   UNK N   1      28.323  15.885   5.124  0.00  0.00    -0.259 OA
BRANCH  19  21
HETATM   21  O   UNK N   1      30.049  16.902   4.136  0.00  0.00    -0.313 OA
BRANCH  21  22
HETATM   22  C   UNK N   1      31.253  16.249   3.921  0.00  0.00     0.124 C 
HETATM   23  C   UNK N   1      30.999  14.966   3.163  0.00  0.00     0.040 C 
HETATM   24  C   UNK N   1      32.222  17.098   3.106  0.00  0.00     0.040 C 
ENDBRANCH  21  22
ENDBRANCH  19  21
ENDBRANCH   2  19
TORSDOF 5
ENDMDL
MODEL 6
REMARK VINA RESULT:      -5.8     12.510     15.675
REMARK  5 active torsions:
REMARK  status: ('A' for Active; 'I' for Inactive)
REMARK    1  A    between atoms: C_2  and  C_9 
REMARK    2  A    between atoms: C_6  and  N_23 
REMARK    3  A    between atoms: C_9  and  O_10 
REMARK    4  A    between atoms: O_10  and  C_11 
REMARK    5  A    between atoms: C_16  and  C_22 
REMARK       I    between atoms: C_22  and  N_23 
ROOT
HETATM    1 Cl   UNK N   1      21.480  20.659   2.140  0.00  0.00    -0.083 Cl
HETATM    2  C   UNK N   1      23.275  19.357   3.815  0.00  0.00     0.063 A 
HETATM    3  C   UNK N   1      21.953  19.454   3.328  0.00  0.00     0.050 A 
HETATM    4  C   UNK N   1      20.985  18.531   3.776  0.00  0.00     0.027 A 
HETATM    5  C   UNK N   1      21.317  17.538   4.716  0.00  0.00     0.031 A 
HETATM    6  C   UNK N   1      22.626  17.460   5.207  0.00  0.00     0.036 A 
HETATM    7  C   UNK N   1      23.569  18.359   4.725  0.00  0.00     0.049 A 
ENDROOT
BRANCH   6   8
HETATM    8  N   UNK N   1      23.013  16.472   6.169  0.00  0.00    -0.322 N 
HETATM    9  C   UNK N   1      23.269  15.166   5.839  0.00  0.00     0.265 C 
HETATM   10  O   UNK N   1      23.289  14.826   4.662  0.00  0.00    -0.267 OA
HETATM   11  H   UNK N   1      23.098  16.743   7.111  0.00  0.00     0.169 HD
BRANCH   9  12
HETATM   12  C   UNK N   1      23.513  14.136   6.892  0.00  0.00     0.097 C 
HETATM   13  C   UNK N   1      22.487  13.433   7.482  0.00  0.00     0.064 C 
HETATM   14  O   UNK N   1      22.705  12.518   8.464  0.00  0.00    -0.353 OA
HETATM   15  C   UNK N   1      21.051  13.661   7.109  0.00  0.00     0.078 C 
HETATM   16  C   UNK N   1      23.938  12.142   8.952  0.00  0.00     0.185 C 
HETATM   17  C   UNK N   1      24.833  13.350   9.077  0.00  0.00     0.106 C 
HETATM   18  S   UNK N   1      25.233  13.851   7.387  0.00  0.00    -0.120 SA
ENDBRANCH   9  12
ENDBRANCH   6   8
BRANCH   2  19
HETATM   19  C   UNK N   1      24.407  20.249   3.457  0.00  0.00     0.295 C 
HETATM   20  O   UNK N   1      24.498  20.645   2.301  0.00  0.00    -0.259 OA
BRANCH  19  21
HETATM   21  O   UNK N   1      25.383  20.557   4.350  0.00  0.00    -0.313 OA
BRANCH  21  22
HETATM   22  C   UNK N   1      26.728  20.341   4.090  0.00  0.00     0.124 C 
HETATM   23  C   UNK N   1      27.544  20.764   5.291  0.00  0.00     0.040 C 
HETATM   24  C   UNK N   1      27.023  18.873   3.807  0.00  0.00     0.040 C 
ENDBRANCH  21  22
ENDBRANCH  19  21
ENDBRANCH   2  19
TORSDOF 5
ENDMDL
MODEL 7
REMARK VINA RESULT:      -5.7      1.610      1.981
REMARK  5 active torsions:
REMARK  status: ('A' for Active; 'I' for Inactive)
REMARK    1  A    between atoms: C_2  and  C_9 
REMARK    2  A    between atoms: C_6  and  N_23 
REMARK    3  A    between atoms: C_9  and  O_10 
REMARK    4  A    between atoms: O_10  and  C_11 
REMARK    5  A    between atoms: C_16  and  C_22 
REMARK       I    between atoms: C_22  and  N_23 
ROOT
HETATM    1 Cl   UNK N   1      37.802  11.171  13.922  0.00  0.00    -0.083 Cl
HETATM    2  C   UNK N   1      36.152  13.265  13.139  0.00  0.00     0.063 A 
HETATM    3  C   UNK N   1      36.727  12.016  12.818  0.00  0.00     0.050 A 
HETATM    4  C   UNK N   1      36.399  11.400  11.593  0.00  0.00     0.027 A 
HETATM    5  C   UNK N   1      35.530  12.029  10.681  0.00  0.00     0.031 A 
HETATM    6  C   UNK N   1      34.979  13.276  10.997  0.00  0.00     0.036 A 
HETATM    7  C   UNK N   1      35.291  13.846  12.226  0.00  0.00     0.049 A 
ENDROOT
BRANCH   6   8
HETATM    8  N   UNK N   1      34.096  13.960  10.101  0.00  0.00    -0.322 N 
HETATM    9  C   UNK N   1      34.514  14.528   8.926  0.00  0.00     0.265 C 
HETATM   10  O   UNK N   1      35.665  14.362   8.543  0.00  0.00    -0.267 OA
HETATM   11  H   UNK N   1      33.143  14.024  10.341  0.00  0.00     0.169 HD
BRANCH   9  12
HETATM   12  C   UNK N   1      33.593  15.367   8.103  0.00  0.00     0.097 C 
HETATM   13  C   UNK N   1      33.602  16.742   8.162  0.00  0.00     0.064 C 
HETATM   14  O   UNK N   1      32.742  17.507   7.437  0.00  0.00    -0.353 OA
HETATM   15  C   UNK N   1      34.537  17.491   9.066  0.00  0.00     0.078 C 
HETATM   16  C   UNK N   1      31.811  17.034   6.537  0.00  0.00     0.185 C 
HETATM   17  C   UNK N   1      31.162  15.782   7.076  0.00  0.00     0.106 C 
HETATM   18  S   UNK N   1      32.431  14.497   7.017  0.00  0.00    -0.120 SA
ENDBRANCH   9  12
ENDBRANCH   6   8
BRANCH   2  19
HETATM   19  C   UNK N   1      36.398  14.051  14.375  0.00  0.00     0.295 C 
HETATM   20  O   UNK N   1      36.718  15.229  14.265  0.00  0.00    -0.259 OA
BRANCH  19  21
HETATM   21  O   UNK N   1      36.366  13.476  15.604  0.00  0.00    -0.313 OA
BRANCH  21  22
HETATM   22  C   UNK N   1      35.181  13.159  16.251  0.00  0.00     0.124 C 
HETATM   23  C   UNK N   1      34.999  11.658  16.255  0.00  0.00     0.040 C 
HETATM   24  C   UNK N   1      35.177  13.643  17.697  0.00  0.00     0.040 C 
ENDBRANCH  21  22
ENDBRANCH  19  21
ENDBRANCH   2  19
TORSDOF 5
ENDMDL
MODEL 8
REMARK VINA RESULT:      -5.6      3.649      5.695
REMARK  5 active torsions:
REMARK  status: ('A' for Active; 'I' for Inactive)
REMARK    1  A    between atoms: C_2  and  C_9 
REMARK    2  A    between atoms: C_6  and  N_23 
REMARK    3  A    between atoms: C_9  and  O_10 
REMARK    4  A    between atoms: O_10  and  C_11 
REMARK    5  A    between atoms: C_16  and  C_22 
REMARK       I    between atoms: C_22  and  N_23 
ROOT
HETATM    1 Cl   UNK N   1      34.884  11.409  20.279  0.00  0.00    -0.083 Cl
HETATM    2  C   UNK N   1      35.804  10.776  17.735  0.00  0.00     0.063 A 
HETATM    3  C   UNK N   1      35.312  11.767  18.614  0.00  0.00     0.050 A 
HETATM    4  C   UNK N   1      35.198  13.096  18.158  0.00  0.00     0.027 A 
HETATM    5  C   UNK N   1      35.543  13.437  16.836  0.00  0.00     0.031 A 
HETATM    6  C   UNK N   1      36.013  12.445  15.966  0.00  0.00     0.036 A 
HETATM    7  C   UNK N   1      36.148  11.150  16.449  0.00  0.00     0.049 A 
ENDROOT
BRANCH   6   8
HETATM    8  N   UNK N   1      36.371  12.739  14.611  0.00  0.00    -0.322 N 
HETATM    9  C   UNK N   1      35.502  12.600  13.560  0.00  0.00     0.265 C 
HETATM   10  O   UNK N   1      34.326  12.325  13.771  0.00  0.00    -0.267 OA
HETATM   11  H   UNK N   1      37.284  13.056  14.426  0.00  0.00     0.169 HD
BRANCH   9  12
HETATM   12  C   UNK N   1      35.963  12.763  12.149  0.00  0.00     0.097 C 
HETATM   13  C   UNK N   1      36.127  14.000  11.569  0.00  0.00     0.064 C 
HETATM   14  O   UNK N   1      36.515  14.149  10.273  0.00  0.00    -0.353 OA
HETATM   15  C   UNK N   1      35.846  15.271  12.315  0.00  0.00     0.078 C 
HETATM   16  C   UNK N   1      36.837  13.124   9.409  0.00  0.00     0.185 C 
HETATM   17  C   UNK N   1      35.883  11.971   9.600  0.00  0.00     0.106 C 
HETATM   18  S   UNK N   1      36.287  11.249  11.206  0.00  0.00    -0.120 SA
ENDBRANCH   9  12
ENDBRANCH   6   8
BRANCH   2  19
HETATM   19  C   UNK N   1      35.976   9.335  18.049  0.00  0.00     0.295 C 
HETATM   20  O   UNK N   1      37.105   8.917  18.283  0.00  0.00    -0.259 OA
BRANCH  19  21
HETATM   21  O   UNK N   1      34.938   8.463  17.992  0.00  0.00    -0.313 OA
BRANCH  21  22
HETATM   22  C   UNK N   1      34.425   7.836  19.118  0.00  0.00     0.124 C 
HETATM   23  C   UNK N   1      33.051   8.390  19.418  0.00  0.00     0.040 C 
HETATM   24  C   UNK N   1      34.297   6.330  18.919  0.00  0.00     0.040 C 
ENDBRANCH  21  22
ENDBRANCH  19  21
ENDBRANCH   2  19
TORSDOF 5
ENDMDL
MODEL 9
REMARK VINA RESULT:      -5.5      3.368      8.214
REMARK  5 active torsions:
REMARK  status: ('A' for Active; 'I' for Inactive)
REMARK    1  A    between atoms: C_2  and  C_9 
REMARK    2  A    between atoms: C_6  and  N_23 
REMARK    3  A    between atoms: C_9  and  O_10 
REMARK    4  A    between atoms: O_10  and  C_11 
REMARK    5  A    between atoms: C_16  and  C_22 
REMARK       I    between atoms: C_22  and  N_23 
ROOT
HETATM    1 Cl   UNK N   1      34.202  18.345   7.962  0.00  0.00    -0.083 Cl
HETATM    2  C   UNK N   1      34.924  15.688   8.334  0.00  0.00     0.063 A 
HETATM    3  C   UNK N   1      34.822  16.985   8.884  0.00  0.00     0.050 A 
HETATM    4  C   UNK N   1      35.188  17.193  10.230  0.00  0.00     0.027 A 
HETATM    5  C   UNK N   1      35.676  16.131  11.016  0.00  0.00     0.031 A 
HETATM    6  C   UNK N   1      35.792  14.853  10.458  0.00  0.00     0.036 A 
HETATM    7  C   UNK N   1      35.393  14.667   9.140  0.00  0.00     0.049 A 
ENDROOT
BRANCH   6   8
HETATM    8  N   UNK N   1      36.288  13.742  11.213  0.00  0.00    -0.322 N 
HETATM    9  C   UNK N   1      35.636  13.227  12.302  0.00  0.00     0.265 C 
HETATM   10  O   UNK N   1      34.520  13.639  12.599  0.00  0.00    -0.267 OA
HETATM   11  H   UNK N   1      37.138  13.330  10.937  0.00  0.00     0.169 HD
BRANCH   9  12
HETATM   12  C   UNK N   1      36.266  12.175  13.155  0.00  0.00     0.097 C 
HETATM   13  C   UNK N   1      36.778  12.450  14.402  0.00  0.00     0.064 C 
HETATM   14  O   UNK N   1      37.381  11.500  15.166  0.00  0.00    -0.353 OA
HETATM   15  C   UNK N   1      36.742  13.831  14.987  0.00  0.00     0.078 C 
HETATM   16  C   UNK N   1      37.514  10.169  14.835  0.00  0.00     0.185 C 
HETATM   17  C   UNK N   1      37.848  10.033  13.369  0.00  0.00     0.106 C 
HETATM   18  S   UNK N   1      36.350  10.498  12.471  0.00  0.00    -0.120 SA
ENDBRANCH   9  12
ENDBRANCH   6   8
BRANCH   2  19
HETATM   19  C   UNK N   1      34.592  15.300   6.939  0.00  0.00     0.295 C 
HETATM   20  O   UNK N   1      35.323  15.687   6.035  0.00  0.00    -0.259 OA
BRANCH  19  21
HETATM   21  O   UNK N   1      33.460  14.613   6.640  0.00  0.00    -0.313 OA
BRANCH  21  22
HETATM   22  C   UNK N   1      32.318  15.231   6.154  0.00  0.00     0.124 C 
HETATM   23  C   UNK N   1      31.403  14.190   5.550  0.00  0.00     0.040 C 
HETATM   24  C   UNK N   1      31.552  15.955   7.257  0.00  0.00     0.040 C 
ENDBRANCH  21  22
ENDBRANCH  19  21
ENDBRANCH   2  19
TORSDOF 5
ENDMDL
