REMARK  5 active torsions:
REMARK  status: ('A' for Active; 'I' for Inactive)
REMARK    1  A    between atoms: C_2  and  C_9 
REMARK    2  A    between atoms: C_6  and  N_23 
REMARK    3  A    between atoms: C_9  and  O_10 
REMARK    4  A    between atoms: O_10  and  C_11 
REMARK    5  A    between atoms: C_16  and  C_22 
REMARK       I    between atoms: C_22  and  N_23 
ROOT
HETATM    1 Cl   UNK N   1       5.352   0.407  -0.268  0.00  0.00    -0.083 Cl
HETATM    2  C   UNK N   1       2.591   0.465   0.038  0.00  0.00     0.063 A 
HETATM    3  C   UNK N   1       3.741  -0.294  -0.272  0.00  0.00     0.050 A 
HETATM    4  C   UNK N   1       3.604  -1.669  -0.554  0.00  0.00     0.027 A 
HETATM    5  C   UNK N   1       2.336  -2.281  -0.555  0.00  0.00     0.031 A 
HETATM    6  C   UNK N   1       1.199  -1.518  -0.265  0.00  0.00     0.036 A 
HETATM    7  C   UNK N   1       1.364  -0.173   0.043  0.00  0.00     0.049 A 
ENDROOT
BRANCH   6   8
HETATM    8  N   UNK N   1      -0.113  -2.092  -0.259  0.00  0.00    -0.322 N 
HETATM    9  C   UNK N   1      -1.257  -1.343  -0.163  0.00  0.00     0.265 C 
HETATM   10  O   UNK N   1      -1.192  -0.120  -0.198  0.00  0.00    -0.267 OA
HETATM   11  H   UNK N   1      -0.197  -3.070  -0.327  0.00  0.00     0.169 HD
BRANCH   9  12
HETATM   12  C   UNK N   1      -2.593  -1.990   0.001  0.00  0.00     0.097 C 
HETATM   13  C   UNK N   1      -3.732  -1.265   0.266  0.00  0.00     0.064 C 
HETATM   14  O   UNK N   1      -4.944  -1.856   0.448  0.00  0.00    -0.353 OA
HETATM   15  C   UNK N   1      -3.706   0.228   0.415  0.00  0.00     0.078 C 
HETATM   16  C   UNK N   1      -5.202  -3.206   0.345  0.00  0.00     0.185 C 
HETATM   17  C   UNK N   1      -4.073  -3.995   0.962  0.00  0.00     0.106 C 
HETATM   18  S   UNK N   1      -2.660  -3.796  -0.147  0.00  0.00    -0.120 SA
ENDBRANCH   9  12
ENDBRANCH   6   8
BRANCH   2  19
HETATM   19  C   UNK N   1       2.557   1.917   0.347  0.00  0.00     0.295 C 
HETATM   20  O   UNK N   1       1.533   2.389   0.828  0.00  0.00    -0.259 OA
BRANCH  19  21
HETATM   21  O   UNK N   1       3.588   2.739   0.026  0.00  0.00    -0.313 OA
BRANCH  21  22
HETATM   22  C   UNK N   1       3.546   4.109   0.239  0.00  0.00     0.124 C 
HETATM   23  C   UNK N   1       4.820   4.736  -0.280  0.00  0.00     0.040 C 
HETATM   24  C   UNK N   1       2.369   4.759  -0.480  0.00  0.00     0.040 C 
ENDBRANCH  21  22
ENDBRANCH  19  21
ENDBRANCH   2  19
TORSDOF 5
