MODEL 1
REMARK VINA RESULT:      -4.2      0.000      0.000
REMARK  11 active torsions:
REMARK  status: ('A' for Active; 'I' for Inactive)
REMARK    1  A    between atoms: C_2  and  C_3 
REMARK    2  A    between atoms: C_3  and  C_4 
REMARK    3  A    between atoms: C_4  and  C_5 
REMARK    4  A    between atoms: C_5  and  C_6 
REMARK    5  A    between atoms: C_6  and  C_7 
REMARK    6  A    between atoms: C_7  and  C_8 
REMARK    7  A    between atoms: C_8  and  C_9 
REMARK    8  A    between atoms: C_9  and  C_10 
REMARK    9  A    between atoms: C_10  and  O_11 
REMARK   10  A    between atoms: O_11  and  C_12 
REMARK   11  A    between atoms: C_12  and  S_14 
ROOT
HETATM    1  C   UNK N   1      31.284  17.012   5.663  0.00  0.00     0.002 C 
ENDROOT
BRANCH   1   2
HETATM    2  C   UNK N   1      30.289  17.496   4.639  0.00  0.00     0.000 C 
BRANCH   2   3
HETATM    3  C   UNK N   1      28.945  17.654   5.314  0.00  0.00     0.000 C 
BRANCH   3   4
HETATM    4  C   UNK N   1      28.838  16.633   6.417  0.00  0.00     0.000 C 
BRANCH   4   5
HETATM    5  C   UNK N   1      27.871  17.104   7.479  0.00  0.00     0.000 C 
BRANCH   5   6
HETATM    6  C   UNK N   1      28.449  18.355   8.102  0.00  0.00    -0.000 C 
BRANCH   6   7
HETATM    7  C   UNK N   1      29.336  18.000   9.273  0.00  0.00    -0.005 C 
HETATM    8  C   UNK N   1      30.747  18.457   8.967  0.00  0.00     0.005 C 
ENDBRANCH   6   7
ENDBRANCH   5   6
ENDBRANCH   4   5
ENDBRANCH   3   4
ENDBRANCH   2   3
ENDBRANCH   1   2
BRANCH   1   9
HETATM    9  C   UNK N   1      32.673  17.510   5.338  0.00  0.00     0.027 C 
BRANCH   9  10
HETATM   10  C   UNK N   1      33.593  16.946   6.393  0.00  0.00     0.179 C 
BRANCH  10  11
HETATM   11  O   UNK N   1      34.507  17.884   6.801  0.00  0.00    -0.313 OA
BRANCH  11  12
HETATM   12  C   UNK N   1      34.704  18.152   8.113  0.00  0.00     0.319 C 
HETATM   13  O   UNK N   1      35.079  19.262   8.450  0.00  0.00    -0.252 OA
BRANCH  12  14
HETATM   14  S   UNK N   1      34.424  16.901   9.380  0.00  0.00    -0.074 SA
HETATM   15  H   UNK N   1      33.230  16.845  10.028  0.00  0.00     0.112 HD
ENDBRANCH  12  14
ENDBRANCH  11  12
ENDBRANCH  10  11
ENDBRANCH   9  10
ENDBRANCH   1   9
TORSDOF 11
ENDMDL
MODEL 2
REMARK VINA RESULT:      -4.2      6.623      8.624
REMARK  11 active torsions:
REMARK  status: ('A' for Active; 'I' for Inactive)
REMARK    1  A    between atoms: C_2  and  C_3 
REMARK    2  A    between atoms: C_3  and  C_4 
REMARK    3  A    between atoms: C_4  and  C_5 
REMARK    4  A    between atoms: C_5  and  C_6 
REMARK    5  A    between atoms: C_6  and  C_7 
REMARK    6  A    between atoms: C_7  and  C_8 
REMARK    7  A    between atoms: C_8  and  C_9 
REMARK    8  A    between atoms: C_9  and  C_10 
REMARK    9  A    between atoms: C_10  and  O_11 
REMARK   10  A    between atoms: O_11  and  C_12 
REMARK   11  A    between atoms: C_12  and  S_14 
ROOT
HETATM    1  C   UNK N   1      35.353  14.622  11.947  0.00  0.00     0.002 C 
ENDROOT
BRANCH   1   2
HETATM    2  C   UNK N   1      36.412  13.866  12.708  0.00  0.00     0.000 C 
BRANCH   2   3
HETATM    3  C   UNK N   1      36.345  14.277  14.161  0.00  0.00     0.000 C 
BRANCH   3   4
HETATM    4  C   UNK N   1      36.811  13.121  15.010  0.00  0.00     0.000 C 
BRANCH   4   5
HETATM    5  C   UNK N   1      35.838  12.872  16.140  0.00  0.00     0.000 C 
BRANCH   5   6
HETATM    6  C   UNK N   1      34.513  12.479  15.525  0.00  0.00    -0.000 C 
BRANCH   6   7
HETATM    7  C   UNK N   1      34.419  10.977  15.389  0.00  0.00    -0.005 C 
HETATM    8  C   UNK N   1      33.755  10.651  14.068  0.00  0.00     0.005 C 
ENDBRANCH   6   7
ENDBRANCH   5   6
ENDBRANCH   4   5
ENDBRANCH   3   4
ENDBRANCH   2   3
ENDBRANCH   1   2
BRANCH   1   9
HETATM    9  C   UNK N   1      35.974  15.702  11.093  0.00  0.00     0.027 C 
BRANCH   9  10
HETATM   10  C   UNK N   1      34.921  16.130  10.101  0.00  0.00     0.179 C 
BRANCH  10  11
HETATM   11  O   UNK N   1      34.957  17.487   9.899  0.00  0.00    -0.313 OA
BRANCH  11  12
HETATM   12  C   UNK N   1      34.831  18.018   8.660  0.00  0.00     0.319 C 
HETATM   13  O   UNK N   1      35.206  19.159   8.454  0.00  0.00    -0.252 OA
BRANCH  12  14
HETATM   14  S   UNK N   1      34.118  17.072   7.301  0.00  0.00    -0.074 SA
HETATM   15  H   UNK N   1      34.837  16.870   6.163  0.00  0.00     0.112 HD
ENDBRANCH  12  14
ENDBRANCH  11  12
ENDBRANCH  10  11
ENDBRANCH   9  10
ENDBRANCH   1   9
TORSDOF 11
ENDMDL
MODEL 3
REMARK VINA RESULT:      -4.2      1.524      2.033
REMARK  11 active torsions:
REMARK  status: ('A' for Active; 'I' for Inactive)
REMARK    1  A    between atoms: C_2  and  C_3 
REMARK    2  A    between atoms: C_3  and  C_4 
REMARK    3  A    between atoms: C_4  and  C_5 
REMARK    4  A    between atoms: C_5  and  C_6 
REMARK    5  A    between atoms: C_6  and  C_7 
REMARK    6  A    between atoms: C_7  and  C_8 
REMARK    7  A    between atoms: C_8  and  C_9 
REMARK    8  A    between atoms: C_9  and  C_10 
REMARK    9  A    between atoms: C_10  and  O_11 
REMARK   10  A    between atoms: O_11  and  C_12 
REMARK   11  A    between atoms: C_12  and  S_14 
ROOT
HETATM    1  C   UNK N   1      31.504  17.213   5.390  0.00  0.00     0.002 C 
ENDROOT
BRANCH   1   2
HETATM    2  C   UNK N   1      30.482  17.063   4.292  0.00  0.00     0.000 C 
BRANCH   2   3
HETATM    3  C   UNK N   1      29.153  17.574   4.802  0.00  0.00     0.000 C 
BRANCH   3   4
HETATM    4  C   UNK N   1      28.999  17.157   6.243  0.00  0.00     0.000 C 
BRANCH   4   5
HETATM    5  C   UNK N   1      28.495  18.314   7.075  0.00  0.00     0.000 C 
BRANCH   5   6
HETATM    6  C   UNK N   1      27.880  19.322   6.131  0.00  0.00    -0.000 C 
BRANCH   6   7
HETATM    7  C   UNK N   1      27.156  20.399   6.905  0.00  0.00    -0.005 C 
HETATM    8  C   UNK N   1      27.121  21.658   6.066  0.00  0.00     0.005 C 
ENDBRANCH   6   7
ENDBRANCH   5   6
ENDBRANCH   4   5
ENDBRANCH   3   4
ENDBRANCH   2   3
ENDBRANCH   1   2
BRANCH   1   9
HETATM    9  C   UNK N   1      32.881  17.445   4.811  0.00  0.00     0.027 C 
BRANCH   9  10
HETATM   10  C   UNK N   1      33.871  17.047   5.877  0.00  0.00     0.179 C 
BRANCH  10  11
HETATM   11  O   UNK N   1      34.366  18.150   6.527  0.00  0.00    -0.313 OA
BRANCH  11  12
HETATM   12  C   UNK N   1      34.459  18.190   7.877  0.00  0.00     0.319 C 
HETATM   13  O   UNK N   1      35.022  19.129   8.413  0.00  0.00    -0.252 OA
BRANCH  12  14
HETATM   14  S   UNK N   1      33.768  16.881   8.906  0.00  0.00    -0.074 SA
HETATM   15  H   UNK N   1      32.755  17.158   9.770  0.00  0.00     0.112 HD
ENDBRANCH  12  14
ENDBRANCH  11  12
ENDBRANCH  10  11
ENDBRANCH   9  10
ENDBRANCH   1   9
TORSDOF 11
ENDMDL
MODEL 4
REMARK VINA RESULT:      -4.1      7.526      9.326
REMARK  11 active torsions:
REMARK  status: ('A' for Active; 'I' for Inactive)
REMARK    1  A    between atoms: C_2  and  C_3 
REMARK    2  A    between atoms: C_3  and  C_4 
REMARK    3  A    between atoms: C_4  and  C_5 
REMARK    4  A    between atoms: C_5  and  C_6 
REMARK    5  A    between atoms: C_6  and  C_7 
REMARK    6  A    between atoms: C_7  and  C_8 
REMARK    7  A    between atoms: C_8  and  C_9 
REMARK    8  A    between atoms: C_9  and  C_10 
REMARK    9  A    between atoms: C_10  and  O_11 
REMARK   10  A    between atoms: O_11  and  C_12 
REMARK   11  A    between atoms: C_12  and  S_14 
ROOT
HETATM    1  C   UNK N   1      36.162  14.172  13.746  0.00  0.00     0.002 C 
ENDROOT
BRANCH   1   2
HETATM    2  C   UNK N   1      36.679  13.139  14.714  0.00  0.00     0.000 C 
BRANCH   2   3
HETATM    3  C   UNK N   1      35.941  13.298  16.024  0.00  0.00     0.000 C 
BRANCH   3   4
HETATM    4  C   UNK N   1      34.573  12.680  15.883  0.00  0.00     0.000 C 
BRANCH   4   5
HETATM    5  C   UNK N   1      34.691  11.217  15.521  0.00  0.00     0.000 C 
BRANCH   5   6
HETATM    6  C   UNK N   1      33.517  10.869  14.634  0.00  0.00    -0.000 C 
BRANCH   6   7
HETATM    7  C   UNK N   1      33.999  10.349  13.299  0.00  0.00    -0.005 C 
HETATM    8  C   UNK N   1      35.384   9.764  13.479  0.00  0.00     0.005 C 
ENDBRANCH   6   7
ENDBRANCH   5   6
ENDBRANCH   4   5
ENDBRANCH   3   4
ENDBRANCH   2   3
ENDBRANCH   1   2
BRANCH   1   9
HETATM    9  C   UNK N   1      35.801  13.534  12.424  0.00  0.00     0.027 C 
BRANCH   9  10
HETATM   10  C   UNK N   1      34.924  14.520  11.693  0.00  0.00     0.179 C 
BRANCH  10  11
HETATM   11  O   UNK N   1      35.631  15.644  11.346  0.00  0.00    -0.313 OA
BRANCH  11  12
HETATM   12  C   UNK N   1      35.215  16.457  10.346  0.00  0.00     0.319 C 
HETATM   13  O   UNK N   1      35.598  17.614  10.314  0.00  0.00    -0.252 OA
BRANCH  12  14
HETATM   14  S   UNK N   1      34.103  15.867   9.056  0.00  0.00    -0.074 SA
HETATM   15  H   UNK N   1      34.594  15.149   8.011  0.00  0.00     0.112 HD
ENDBRANCH  12  14
ENDBRANCH  11  12
ENDBRANCH  10  11
ENDBRANCH   9  10
ENDBRANCH   1   9
TORSDOF 11
ENDMDL
MODEL 5
REMARK VINA RESULT:      -4.1      1.521      3.040
REMARK  11 active torsions:
REMARK  status: ('A' for Active; 'I' for Inactive)
REMARK    1  A    between atoms: C_2  and  C_3 
REMARK    2  A    between atoms: C_3  and  C_4 
REMARK    3  A    between atoms: C_4  and  C_5 
REMARK    4  A    between atoms: C_5  and  C_6 
REMARK    5  A    between atoms: C_6  and  C_7 
REMARK    6  A    between atoms: C_7  and  C_8 
REMARK    7  A    between atoms: C_8  and  C_9 
REMARK    8  A    between atoms: C_9  and  C_10 
REMARK    9  A    between atoms: C_10  and  O_11 
REMARK   10  A    between atoms: O_11  and  C_12 
REMARK   11  A    between atoms: C_12  and  S_14 
ROOT
HETATM    1  C   UNK N   1      30.960  17.599   8.088  0.00  0.00     0.002 C 
ENDROOT
BRANCH   1   2
HETATM    2  C   UNK N   1      29.485  17.304   8.178  0.00  0.00     0.000 C 
BRANCH   2   3
HETATM    3  C   UNK N   1      28.767  18.570   8.588  0.00  0.00     0.000 C 
BRANCH   3   4
HETATM    4  C   UNK N   1      28.160  19.198   7.359  0.00  0.00     0.000 C 
BRANCH   4   5
HETATM    5  C   UNK N   1      27.865  18.141   6.319  0.00  0.00     0.000 C 
BRANCH   5   6
HETATM    6  C   UNK N   1      28.414  18.633   4.999  0.00  0.00    -0.000 C 
BRANCH   6   7
HETATM    7  C   UNK N   1      27.960  20.050   4.733  0.00  0.00    -0.005 C 
HETATM    8  C   UNK N   1      26.842  20.016   3.713  0.00  0.00     0.005 C 
ENDBRANCH   6   7
ENDBRANCH   5   6
ENDBRANCH   4   5
ENDBRANCH   3   4
ENDBRANCH   2   3
ENDBRANCH   1   2
BRANCH   1   9
HETATM    9  C   UNK N   1      31.514  17.158   6.753  0.00  0.00     0.027 C 
BRANCH   9  10
HETATM   10  C   UNK N   1      33.017  17.161   6.886  0.00  0.00     0.179 C 
BRANCH  10  11
HETATM   11  O   UNK N   1      33.451  18.284   7.544  0.00  0.00    -0.313 OA
BRANCH  11  12
HETATM   12  C   UNK N   1      34.500  18.239   8.399  0.00  0.00     0.319 C 
HETATM   13  O   UNK N   1      35.275  19.178   8.450  0.00  0.00    -0.252 OA
BRANCH  12  14
HETATM   14  S   UNK N   1      34.778  16.816   9.470  0.00  0.00    -0.074 SA
HETATM   15  H   UNK N   1      34.249  15.606   9.143  0.00  0.00     0.112 HD
ENDBRANCH  12  14
ENDBRANCH  11  12
ENDBRANCH  10  11
ENDBRANCH   9  10
ENDBRANCH   1   9
TORSDOF 11
ENDMDL
MODEL 6
REMARK VINA RESULT:      -4.0      7.657      9.094
REMARK  11 active torsions:
REMARK  status: ('A' for Active; 'I' for Inactive)
REMARK    1  A    between atoms: C_2  and  C_3 
REMARK    2  A    between atoms: C_3  and  C_4 
REMARK    3  A    between atoms: C_4  and  C_5 
REMARK    4  A    between atoms: C_5  and  C_6 
REMARK    5  A    between atoms: C_6  and  C_7 
REMARK    6  A    between atoms: C_7  and  C_8 
REMARK    7  A    between atoms: C_8  and  C_9 
REMARK    8  A    between atoms: C_9  and  C_10 
REMARK    9  A    between atoms: C_10  and  O_11 
REMARK   10  A    between atoms: O_11  and  C_12 
REMARK   11  A    between atoms: C_12  and  S_14 
ROOT
HETATM    1  C   UNK N   1      25.695  19.738   4.246  0.00  0.00     0.002 C 
ENDROOT
BRANCH   1   2
HETATM    2  C   UNK N   1      27.169  20.054   4.218  0.00  0.00     0.000 C 
BRANCH   2   3
HETATM    3  C   UNK N   1      27.517  20.823   5.472  0.00  0.00     0.000 C 
BRANCH   3   4
HETATM    4  C   UNK N   1      27.450  19.881   6.648  0.00  0.00     0.000 C 
BRANCH   4   5
HETATM    5  C   UNK N   1      28.394  18.718   6.445  0.00  0.00     0.000 C 
BRANCH   5   6
HETATM    6  C   UNK N   1      28.204  17.768   7.606  0.00  0.00    -0.000 C 
BRANCH   6   7
HETATM    7  C   UNK N   1      28.375  18.496   8.918  0.00  0.00    -0.005 C 
HETATM    8  C   UNK N   1      29.853  18.588   9.232  0.00  0.00     0.005 C 
ENDBRANCH   6   7
ENDBRANCH   5   6
ENDBRANCH   4   5
ENDBRANCH   3   4
ENDBRANCH   2   3
ENDBRANCH   1   2
BRANCH   1   9
HETATM    9  C   UNK N   1      25.011  20.264   3.005  0.00  0.00     0.027 C 
BRANCH   9  10
HETATM   10  C   UNK N   1      23.527  20.091   3.223  0.00  0.00     0.179 C 
BRANCH  10  11
HETATM   11  O   UNK N   1      22.808  20.849   2.333  0.00  0.00    -0.313 OA
BRANCH  11  12
HETATM   12  C   UNK N   1      21.467  20.711   2.213  0.00  0.00     0.319 C 
HETATM   13  O   UNK N   1      20.881  21.289   1.314  0.00  0.00    -0.252 OA
BRANCH  12  14
HETATM   14  S   UNK N   1      20.521  19.690   3.359  0.00  0.00    -0.074 SA
HETATM   15  H   UNK N   1      20.935  19.553   4.648  0.00  0.00     0.112 HD
ENDBRANCH  12  14
ENDBRANCH  11  12
ENDBRANCH  10  11
ENDBRANCH   9  10
ENDBRANCH   1   9
TORSDOF 11
ENDMDL
MODEL 7
REMARK VINA RESULT:      -4.0     13.276     14.697
REMARK  11 active torsions:
REMARK  status: ('A' for Active; 'I' for Inactive)
REMARK    1  A    between atoms: C_2  and  C_3 
REMARK    2  A    between atoms: C_3  and  C_4 
REMARK    3  A    between atoms: C_4  and  C_5 
REMARK    4  A    between atoms: C_5  and  C_6 
REMARK    5  A    between atoms: C_6  and  C_7 
REMARK    6  A    between atoms: C_7  and  C_8 
REMARK    7  A    between atoms: C_8  and  C_9 
REMARK    8  A    between atoms: C_9  and  C_10 
REMARK    9  A    between atoms: C_10  and  O_11 
REMARK   10  A    between atoms: O_11  and  C_12 
REMARK   11  A    between atoms: C_12  and  S_14 
ROOT
HETATM    1  C   UNK N   1      27.273  23.934  -5.045  0.00  0.00     0.002 C 
ENDROOT
BRANCH   1   2
HETATM    2  C   UNK N   1      26.475  24.709  -6.062  0.00  0.00     0.000 C 
BRANCH   2   3
HETATM    3  C   UNK N   1      25.353  25.426  -5.346  0.00  0.00     0.000 C 
BRANCH   3   4
HETATM    4  C   UNK N   1      25.199  26.800  -5.948  0.00  0.00     0.000 C 
BRANCH   4   5
HETATM    5  C   UNK N   1      25.720  27.853  -4.996  0.00  0.00     0.000 C 
BRANCH   5   6
HETATM    6  C   UNK N   1      27.032  28.360  -5.549  0.00  0.00    -0.000 C 
BRANCH   6   7
HETATM    7  C   UNK N   1      27.334  29.740  -5.011  0.00  0.00    -0.005 C 
HETATM    8  C   UNK N   1      26.459  29.990  -3.801  0.00  0.00     0.005 C 
ENDBRANCH   6   7
ENDBRANCH   5   6
ENDBRANCH   4   5
ENDBRANCH   3   4
ENDBRANCH   2   3
ENDBRANCH   1   2
BRANCH   1   9
HETATM    9  C   UNK N   1      26.764  24.202  -3.648  0.00  0.00     0.027 C 
BRANCH   9  10
HETATM   10  C   UNK N   1      27.929  23.985  -2.713  0.00  0.00     0.179 C 
BRANCH  10  11
HETATM   11  O   UNK N   1      28.963  23.351  -3.355  0.00  0.00    -0.313 OA
BRANCH  11  12
HETATM   12  C   UNK N   1      29.962  22.754  -2.663  0.00  0.00     0.319 C 
HETATM   13  O   UNK N   1      30.144  23.050  -1.495  0.00  0.00    -0.252 OA
BRANCH  12  14
HETATM   14  S   UNK N   1      31.033  21.525  -3.432  0.00  0.00    -0.074 SA
HETATM   15  H   UNK N   1      32.221  21.202  -2.853  0.00  0.00     0.112 HD
ENDBRANCH  12  14
ENDBRANCH  11  12
ENDBRANCH  10  11
ENDBRANCH   9  10
ENDBRANCH   1   9
TORSDOF 11
ENDMDL
MODEL 8
REMARK VINA RESULT:      -3.9      8.393     10.109
REMARK  11 active torsions:
REMARK  status: ('A' for Active; 'I' for Inactive)
REMARK    1  A    between atoms: C_2  and  C_3 
REMARK    2  A    between atoms: C_3  and  C_4 
REMARK    3  A    between atoms: C_4  and  C_5 
REMARK    4  A    between atoms: C_5  and  C_6 
REMARK    5  A    between atoms: C_6  and  C_7 
REMARK    6  A    between atoms: C_7  and  C_8 
REMARK    7  A    between atoms: C_8  and  C_9 
REMARK    8  A    between atoms: C_9  and  C_10 
REMARK    9  A    between atoms: C_10  and  O_11 
REMARK   10  A    between atoms: O_11  and  C_12 
REMARK   11  A    between atoms: C_12  and  S_14 
ROOT
HETATM    1  C   UNK N   1      36.369  14.498  13.746  0.00  0.00     0.002 C 
ENDROOT
BRANCH   1   2
HETATM    2  C   UNK N   1      36.617  13.598  14.930  0.00  0.00     0.000 C 
BRANCH   2   3
HETATM    3  C   UNK N   1      35.569  12.508  14.932  0.00  0.00     0.000 C 
BRANCH   3   4
HETATM    4  C   UNK N   1      34.505  12.867  15.938  0.00  0.00     0.000 C 
BRANCH   4   5
HETATM    5  C   UNK N   1      35.072  12.833  17.339  0.00  0.00     0.000 C 
BRANCH   5   6
HETATM    6  C   UNK N   1      35.591  11.436  17.588  0.00  0.00    -0.000 C 
BRANCH   6   7
HETATM    7  C   UNK N   1      35.243  10.984  18.988  0.00  0.00    -0.005 C 
HETATM    8  C   UNK N   1      35.394  12.161  19.928  0.00  0.00     0.005 C 
ENDBRANCH   6   7
ENDBRANCH   5   6
ENDBRANCH   4   5
ENDBRANCH   3   4
ENDBRANCH   2   3
ENDBRANCH   1   2
BRANCH   1   9
HETATM    9  C   UNK N   1      35.907  13.695  12.552  0.00  0.00     0.027 C 
BRANCH   9  10
HETATM   10  C   UNK N   1      35.021  14.605  11.736  0.00  0.00     0.179 C 
BRANCH  10  11
HETATM   11  O   UNK N   1      35.672  15.771  11.419  0.00  0.00    -0.313 OA
BRANCH  11  12
HETATM   12  C   UNK N   1      35.330  16.494  10.326  0.00  0.00     0.319 C 
HETATM   13  O   UNK N   1      35.571  17.688  10.297  0.00  0.00    -0.252 OA
BRANCH  12  14
HETATM   14  S   UNK N   1      34.523  15.728   8.908  0.00  0.00    -0.074 SA
HETATM   15  H   UNK N   1      35.040  14.595   8.362  0.00  0.00     0.112 HD
ENDBRANCH  12  14
ENDBRANCH  11  12
ENDBRANCH  10  11
ENDBRANCH   9  10
ENDBRANCH   1   9
TORSDOF 11
ENDMDL
MODEL 9
REMARK VINA RESULT:      -3.9      2.657      4.507
REMARK  11 active torsions:
REMARK  status: ('A' for Active; 'I' for Inactive)
REMARK    1  A    between atoms: C_2  and  C_3 
REMARK    2  A    between atoms: C_3  and  C_4 
REMARK    3  A    between atoms: C_4  and  C_5 
REMARK    4  A    between atoms: C_5  and  C_6 
REMARK    5  A    between atoms: C_6  and  C_7 
REMARK    6  A    between atoms: C_7  and  C_8 
REMARK    7  A    between atoms: C_8  and  C_9 
REMARK    8  A    between atoms: C_9  and  C_10 
REMARK    9  A    between atoms: C_10  and  O_11 
REMARK   10  A    between atoms: O_11  and  C_12 
REMARK   11  A    between atoms: C_12  and  S_14 
ROOT
HETATM    1  C   UNK N   1      32.425  17.139   6.816  0.00  0.00     0.002 C 
ENDROOT
BRANCH   1   2
HETATM    2  C   UNK N   1      31.721  17.303   5.493  0.00  0.00     0.000 C 
BRANCH   2   3
HETATM    3  C   UNK N   1      32.754  17.630   4.438  0.00  0.00     0.000 C 
BRANCH   3   4
HETATM    4  C   UNK N   1      32.293  17.059   3.121  0.00  0.00     0.000 C 
BRANCH   4   5
HETATM    5  C   UNK N   1      32.315  15.548   3.167  0.00  0.00     0.000 C 
BRANCH   5   6
HETATM    6  C   UNK N   1      33.759  15.109   3.084  0.00  0.00    -0.000 C 
BRANCH   6   7
HETATM    7  C   UNK N   1      34.047  14.041   4.114  0.00  0.00    -0.005 C 
HETATM    8  C   UNK N   1      32.791  13.799   4.924  0.00  0.00     0.005 C 
ENDBRANCH   6   7
ENDBRANCH   5   6
ENDBRANCH   4   5
ENDBRANCH   3   4
ENDBRANCH   2   3
ENDBRANCH   1   2
BRANCH   1   9
HETATM    9  C   UNK N   1      33.889  17.495   6.692  0.00  0.00     0.027 C 
BRANCH   9  10
HETATM   10  C   UNK N   1      34.249  18.285   7.926  0.00  0.00     0.179 C 
BRANCH  10  11
HETATM   11  O   UNK N   1      33.899  17.603   9.065  0.00  0.00    -0.313 OA
BRANCH  11  12
HETATM   12  C   UNK N   1      34.794  16.836   9.730  0.00  0.00     0.319 C 
HETATM   13  O   UNK N   1      35.640  17.367  10.429  0.00  0.00    -0.252 OA
BRANCH  12  14
HETATM   14  S   UNK N   1      34.765  15.038   9.607  0.00  0.00    -0.074 SA
HETATM   15  H   UNK N   1      33.752  14.333  10.181  0.00  0.00     0.112 HD
ENDBRANCH  12  14
ENDBRANCH  11  12
ENDBRANCH  10  11
ENDBRANCH   9  10
ENDBRANCH   1   9
TORSDOF 11
ENDMDL
