MODEL 1
REMARK VINA RESULT:      -5.0      0.000      0.000
REMARK  2 active torsions:
REMARK  status: ('A' for Active; 'I' for Inactive)
REMARK    1  A    between atoms: C_1  and  C_7 
REMARK    2  A    between atoms: C_7  and  N_6 
ROOT
HETATM    1  C   UNK N   1      29.913  17.932   8.321  0.00  0.00    -0.039 A 
HETATM    2  C   UNK N   1      31.286  17.727   8.473  0.00  0.00     0.040 A 
HETATM    3  C   UNK N   1      31.478  17.030   6.161  0.00  0.00     0.056 A 
HETATM    4  C   UNK N   1      30.093  17.238   6.011  0.00  0.00     0.032 A 
HETATM    5  C   UNK N   1      29.316  17.686   7.084  0.00  0.00     0.011 A 
HETATM    6  N   UNK N   1      32.263  16.573   5.066  0.00  0.00    -0.382 N 
HETATM    7  C   UNK N   1      31.647  16.319   3.787  0.00  0.00     0.150 C 
HETATM    8  C   UNK N   1      33.690  16.345   5.171  0.00  0.00     0.142 A 
HETATM    9  C   UNK N   1      34.340  16.618   6.535  0.00  0.00     0.142 A 
HETATM   10  N   UNK N   1      33.471  17.079   7.593  0.00  0.00    -0.382 N 
HETATM   11  C   UNK N   1      34.070  17.339   8.879  0.00  0.00     0.150 C 
HETATM   12  C   UNK N   1      32.075  17.278   7.406  0.00  0.00     0.057 A 
ENDROOT
BRANCH   1  13
HETATM   13  C   UNK N   1      29.076  18.412   9.468  0.00  0.00     0.150 C 
BRANCH  13  14
HETATM   14  N   UNK N   1      27.665  18.485   9.115  0.00  0.00    -0.426 N 
HETATM   15  H   UNK N   1      27.381  18.918   8.236  0.00  0.00     0.150 HD
HETATM   16  H   UNK N   1      26.961  18.103   9.745  0.00  0.00     0.150 HD
ENDBRANCH  13  14
ENDBRANCH   1  13
TORSDOF 2
ENDMDL
MODEL 2
REMARK VINA RESULT:      -5.0      1.538      4.050
REMARK  2 active torsions:
REMARK  status: ('A' for Active; 'I' for Inactive)
REMARK    1  A    between atoms: C_1  and  C_7 
REMARK    2  A    between atoms: C_7  and  N_6 
ROOT
HETATM    1  C   UNK N   1      33.198  17.728   7.665  0.00  0.00    -0.039 A 
HETATM    2  C   UNK N   1      31.949  17.738   8.292  0.00  0.00     0.040 A 
HETATM    3  C   UNK N   1      30.853  17.175   6.207  0.00  0.00     0.056 A 
HETATM    4  C   UNK N   1      32.114  17.166   5.577  0.00  0.00     0.032 A 
HETATM    5  C   UNK N   1      33.277  17.441   6.302  0.00  0.00     0.011 A 
HETATM    6  N   UNK N   1      29.672  16.895   5.464  0.00  0.00    -0.382 N 
HETATM    7  C   UNK N   1      29.754  16.598   4.055  0.00  0.00     0.150 C 
HETATM    8  C   UNK N   1      28.355  16.893   6.067  0.00  0.00     0.142 A 
HETATM    9  C   UNK N   1      28.274  17.209   7.567  0.00  0.00     0.142 A 
HETATM   10  N   UNK N   1      29.520  17.482   8.245  0.00  0.00    -0.382 N 
HETATM   11  C   UNK N   1      29.458  17.781   9.655  0.00  0.00     0.150 C 
HETATM   12  C   UNK N   1      30.776  17.464   7.577  0.00  0.00     0.057 A 
ENDROOT
BRANCH   1  13
HETATM   13  C   UNK N   1      34.448  18.022   8.438  0.00  0.00     0.150 C 
BRANCH  13  14
HETATM   14  N   UNK N   1      34.484  17.297   9.702  0.00  0.00    -0.426 N 
HETATM   15  H   UNK N   1      33.648  17.244  10.284  0.00  0.00     0.150 HD
HETATM   16  H   UNK N   1      35.345  16.843  10.005  0.00  0.00     0.150 HD
ENDBRANCH  13  14
ENDBRANCH   1  13
TORSDOF 2
ENDMDL
MODEL 3
REMARK VINA RESULT:      -4.9      8.691     11.070
REMARK  2 active torsions:
REMARK  status: ('A' for Active; 'I' for Inactive)
REMARK    1  A    between atoms: C_1  and  C_7 
REMARK    2  A    between atoms: C_7  and  N_6 
ROOT
HETATM    1  C   UNK N   1      22.144  12.772   9.528  0.00  0.00    -0.039 A 
HETATM    2  C   UNK N   1      22.651  13.540   8.477  0.00  0.00     0.040 A 
HETATM    3  C   UNK N   1      20.794  15.084   8.655  0.00  0.00     0.056 A 
HETATM    4  C   UNK N   1      20.284  14.308   9.715  0.00  0.00     0.032 A 
HETATM    5  C   UNK N   1      20.955  13.160  10.148  0.00  0.00     0.011 A 
HETATM    6  N   UNK N   1      20.106  16.251   8.219  0.00  0.00    -0.382 N 
HETATM    7  C   UNK N   1      18.878  16.653   8.859  0.00  0.00     0.150 C 
HETATM    8  C   UNK N   1      20.590  17.080   7.134  0.00  0.00     0.142 A 
HETATM    9  C   UNK N   1      21.898  16.648   6.456  0.00  0.00     0.142 A 
HETATM   10  N   UNK N   1      22.531  15.452   6.961  0.00  0.00    -0.382 N 
HETATM   11  C   UNK N   1      23.761  15.035   6.332  0.00  0.00     0.150 C 
HETATM   12  C   UNK N   1      21.988  14.691   8.034  0.00  0.00     0.057 A 
ENDROOT
BRANCH   1  13
HETATM   13  C   UNK N   1      22.860  11.541   9.996  0.00  0.00     0.150 C 
BRANCH  13  14
HETATM   14  N   UNK N   1      22.805  11.402  11.444  0.00  0.00    -0.426 N 
HETATM   15  H   UNK N   1      21.918  11.193  11.904  0.00  0.00     0.150 HD
HETATM   16  H   UNK N   1      23.653  11.513  12.000  0.00  0.00     0.150 HD
ENDBRANCH  13  14
ENDBRANCH   1  13
TORSDOF 2
ENDMDL
MODEL 4
REMARK VINA RESULT:      -4.9      0.953      2.861
REMARK  2 active torsions:
REMARK  status: ('A' for Active; 'I' for Inactive)
REMARK    1  A    between atoms: C_1  and  C_7 
REMARK    2  A    between atoms: C_7  and  N_6 
ROOT
HETATM    1  C   UNK N   1      29.393  17.616   8.227  0.00  0.00    -0.039 A 
HETATM    2  C   UNK N   1      29.709  17.178   6.938  0.00  0.00     0.040 A 
HETATM    3  C   UNK N   1      32.069  17.535   7.352  0.00  0.00     0.056 A 
HETATM    4  C   UNK N   1      31.748  17.976   8.652  0.00  0.00     0.032 A 
HETATM    5  C   UNK N   1      30.418  18.016   9.084  0.00  0.00     0.011 A 
HETATM    6  N   UNK N   1      33.423  17.496   6.917  0.00  0.00    -0.382 N 
HETATM    7  C   UNK N   1      34.483  17.909   7.803  0.00  0.00     0.150 C 
HETATM    8  C   UNK N   1      33.803  17.051   5.592  0.00  0.00     0.142 A 
HETATM    9  C   UNK N   1      32.670  16.612   4.653  0.00  0.00     0.142 A 
HETATM   10  N   UNK N   1      31.325  16.682   5.174  0.00  0.00    -0.382 N 
HETATM   11  C   UNK N   1      30.251  16.273   4.301  0.00  0.00     0.150 C 
HETATM   12  C   UNK N   1      31.036  17.133   6.492  0.00  0.00     0.057 A 
ENDROOT
BRANCH   1  13
HETATM   13  C   UNK N   1      27.970  17.661   8.696  0.00  0.00     0.150 C 
BRANCH  13  14
HETATM   14  N   UNK N   1      27.446  19.020   8.702  0.00  0.00    -0.426 N 
HETATM   15  H   UNK N   1      26.596  19.237   9.223  0.00  0.00     0.150 HD
HETATM   16  H   UNK N   1      27.928  19.755   8.185  0.00  0.00     0.150 HD
ENDBRANCH  13  14
ENDBRANCH   1  13
TORSDOF 2
ENDMDL
MODEL 5
REMARK VINA RESULT:      -4.8     10.144     11.981
REMARK  2 active torsions:
REMARK  status: ('A' for Active; 'I' for Inactive)
REMARK    1  A    between atoms: C_1  and  C_7 
REMARK    2  A    between atoms: C_7  and  N_6 
ROOT
HETATM    1  C   UNK N   1      35.424  11.889  18.298  0.00  0.00    -0.039 A 
HETATM    2  C   UNK N   1      36.051  10.899  17.539  0.00  0.00     0.040 A 
HETATM    3  C   UNK N   1      36.090  12.351  15.602  0.00  0.00     0.056 A 
HETATM    4  C   UNK N   1      35.457  13.349  16.370  0.00  0.00     0.032 A 
HETATM    5  C   UNK N   1      35.127  13.118  17.709  0.00  0.00     0.011 A 
HETATM    6  N   UNK N   1      36.424  12.592  14.239  0.00  0.00    -0.382 N 
HETATM    7  C   UNK N   1      36.117  13.862  13.629  0.00  0.00     0.150 C 
HETATM    8  C   UNK N   1      37.074  11.598  13.410  0.00  0.00     0.142 A 
HETATM    9  C   UNK N   1      37.398  10.247  14.064  0.00  0.00     0.142 A 
HETATM   10  N   UNK N   1      37.025  10.087  15.451  0.00  0.00    -0.382 N 
HETATM   11  C   UNK N   1      37.325   8.822  16.077  0.00  0.00     0.150 C 
HETATM   12  C   UNK N   1      36.387  11.117  16.197  0.00  0.00     0.057 A 
ENDROOT
BRANCH   1  13
HETATM   13  C   UNK N   1      35.068  11.647  19.734  0.00  0.00     0.150 C 
BRANCH  13  14
HETATM   14  N   UNK N   1      34.928  12.894  20.474  0.00  0.00    -0.426 N 
HETATM   15  H   UNK N   1      34.509  13.709  20.025  0.00  0.00     0.150 HD
HETATM   16  H   UNK N   1      35.248  12.952  21.440  0.00  0.00     0.150 HD
ENDBRANCH  13  14
ENDBRANCH   1  13
TORSDOF 2
ENDMDL
MODEL 6
REMARK VINA RESULT:      -4.8      1.756      4.104
REMARK  2 active torsions:
REMARK  status: ('A' for Active; 'I' for Inactive)
REMARK    1  A    between atoms: C_1  and  C_7 
REMARK    2  A    between atoms: C_7  and  N_6 
ROOT
HETATM    1  C   UNK N   1      33.154  17.831   7.571  0.00  0.00    -0.039 A 
HETATM    2  C   UNK N   1      33.047  17.500   6.218  0.00  0.00     0.040 A 
HETATM    3  C   UNK N   1      30.667  17.121   6.457  0.00  0.00     0.056 A 
HETATM    4  C   UNK N   1      30.778  17.455   7.822  0.00  0.00     0.032 A 
HETATM    5  C   UNK N   1      32.013  17.807   8.374  0.00  0.00     0.011 A 
HETATM    6  N   UNK N   1      29.407  16.764   5.901  0.00  0.00    -0.382 N 
HETATM    7  C   UNK N   1      28.227  16.740   6.730  0.00  0.00     0.150 C 
HETATM    8  C   UNK N   1      29.244  16.413   4.505  0.00  0.00     0.142 A 
HETATM    9  C   UNK N   1      30.502  16.441   3.627  0.00  0.00     0.142 A 
HETATM   10  N   UNK N   1      31.740  16.814   4.272  0.00  0.00    -0.382 N 
HETATM   11  C   UNK N   1      32.931  16.844   3.457  0.00  0.00     0.150 C 
HETATM   12  C   UNK N   1      31.816  17.146   5.653  0.00  0.00     0.057 A 
ENDROOT
BRANCH   1  13
HETATM   13  C   UNK N   1      34.476  18.209   8.168  0.00  0.00     0.150 C 
BRANCH  13  14
HETATM   14  N   UNK N   1      34.735  17.490   9.408  0.00  0.00    -0.426 N 
HETATM   15  H   UNK N   1      34.459  17.898  10.301  0.00  0.00     0.150 HD
HETATM   16  H   UNK N   1      35.192  16.578   9.383  0.00  0.00     0.150 HD
ENDBRANCH  13  14
ENDBRANCH   1  13
TORSDOF 2
ENDMDL
MODEL 7
REMARK VINA RESULT:      -4.8      8.569     10.927
REMARK  2 active torsions:
REMARK  status: ('A' for Active; 'I' for Inactive)
REMARK    1  A    between atoms: C_1  and  C_7 
REMARK    2  A    between atoms: C_7  and  N_6 
ROOT
HETATM    1  C   UNK N   1      21.317  13.160   9.963  0.00  0.00    -0.039 A 
HETATM    2  C   UNK N   1      20.612  14.299   9.566  0.00  0.00     0.040 A 
HETATM    3  C   UNK N   1      22.222  14.733   7.810  0.00  0.00     0.056 A 
HETATM    4  C   UNK N   1      22.932  13.584   8.212  0.00  0.00     0.032 A 
HETATM    5  C   UNK N   1      22.481  12.804   9.281  0.00  0.00     0.011 A 
HETATM    6  N   UNK N   1      22.685  15.523   6.721  0.00  0.00    -0.382 N 
HETATM    7  C   UNK N   1      23.889  15.155   6.016  0.00  0.00     0.150 C 
HETATM    8  C   UNK N   1      21.991  16.712   6.271  0.00  0.00     0.142 A 
HETATM    9  C   UNK N   1      20.711  17.099   7.024  0.00  0.00     0.142 A 
HETATM   10  N   UNK N   1      20.312  16.243   8.117  0.00  0.00    -0.382 N 
HETATM   11  C   UNK N   1      19.110  16.596   8.833  0.00  0.00     0.150 C 
HETATM   12  C   UNK N   1      21.053  15.089   8.497  0.00  0.00     0.057 A 
ENDROOT
BRANCH   1  13
HETATM   13  C   UNK N   1      20.838  12.320  11.109  0.00  0.00     0.150 C 
BRANCH  13  14
HETATM   14  N   UNK N   1      21.940  11.646  11.782  0.00  0.00    -0.426 N 
HETATM   15  H   UNK N   1      22.674  11.196  11.234  0.00  0.00     0.150 HD
HETATM   16  H   UNK N   1      21.979  11.625  12.801  0.00  0.00     0.150 HD
ENDBRANCH  13  14
ENDBRANCH   1  13
TORSDOF 2
ENDMDL
MODEL 8
REMARK VINA RESULT:      -4.6      6.522      8.737
REMARK  2 active torsions:
REMARK  status: ('A' for Active; 'I' for Inactive)
REMARK    1  A    between atoms: C_1  and  C_7 
REMARK    2  A    between atoms: C_7  and  N_6 
ROOT
HETATM    1  C   UNK N   1      35.517  15.181  11.631  0.00  0.00    -0.039 A 
HETATM    2  C   UNK N   1      36.029  14.978  12.915  0.00  0.00     0.040 A 
HETATM    3  C   UNK N   1      35.129  12.731  12.964  0.00  0.00     0.056 A 
HETATM    4  C   UNK N   1      34.613  12.937  11.669  0.00  0.00     0.032 A 
HETATM    5  C   UNK N   1      34.806  14.154  11.008  0.00  0.00     0.011 A 
HETATM    6  N   UNK N   1      34.930  11.490  13.632  0.00  0.00    -0.382 N 
HETATM    7  C   UNK N   1      34.195  10.428  12.988  0.00  0.00     0.150 C 
HETATM    8  C   UNK N   1      35.441  11.231  14.962  0.00  0.00     0.142 A 
HETATM    9  C   UNK N   1      36.222  12.364  15.642  0.00  0.00     0.142 A 
HETATM   10  N   UNK N   1      36.378  13.590  14.894  0.00  0.00    -0.382 N 
HETATM   11  C   UNK N   1      37.110  14.663  15.522  0.00  0.00     0.150 C 
HETATM   12  C   UNK N   1      35.843  13.764  13.588  0.00  0.00     0.057 A 
ENDROOT
BRANCH   1  13
HETATM   13  C   UNK N   1      35.721  16.483  10.918  0.00  0.00     0.150 C 
BRANCH  13  14
HETATM   14  N   UNK N   1      34.526  16.897  10.195  0.00  0.00    -0.426 N 
HETATM   15  H   UNK N   1      34.018  17.733  10.485  0.00  0.00     0.150 HD
HETATM   16  H   UNK N   1      34.196  16.351   9.400  0.00  0.00     0.150 HD
ENDBRANCH  13  14
ENDBRANCH   1  13
TORSDOF 2
ENDMDL
MODEL 9
REMARK VINA RESULT:      -4.6     11.126     12.497
REMARK  2 active torsions:
REMARK  status: ('A' for Active; 'I' for Inactive)
REMARK    1  A    between atoms: C_1  and  C_7 
REMARK    2  A    between atoms: C_7  and  N_6 
ROOT
HETATM    1  C   UNK N   1      20.759  19.609   2.477  0.00  0.00    -0.039 A 
HETATM    2  C   UNK N   1      20.365  18.469   1.772  0.00  0.00     0.040 A 
HETATM    3  C   UNK N   1      20.659  17.097   3.746  0.00  0.00     0.056 A 
HETATM    4  C   UNK N   1      21.056  18.249   4.456  0.00  0.00     0.032 A 
HETATM    5  C   UNK N   1      21.105  19.495   3.824  0.00  0.00     0.011 A 
HETATM    6  N   UNK N   1      20.611  15.831   4.395  0.00  0.00    -0.382 N 
HETATM    7  C   UNK N   1      20.968  15.713   5.787  0.00  0.00     0.150 C 
HETATM    8  C   UNK N   1      20.209  14.620   3.708  0.00  0.00     0.142 A 
HETATM    9  C   UNK N   1      19.830  14.751   2.227  0.00  0.00     0.142 A 
HETATM   10  N   UNK N   1      19.906  16.072   1.647  0.00  0.00    -0.382 N 
HETATM   11  C   UNK N   1      19.552  16.209   0.255  0.00  0.00     0.150 C 
HETATM   12  C   UNK N   1      20.312  17.214   2.393  0.00  0.00     0.057 A 
ENDROOT
BRANCH   1  13
HETATM   13  C   UNK N   1      20.813  20.947   1.805  0.00  0.00     0.150 C 
BRANCH  13  14
HETATM   14  N   UNK N   1      20.487  20.854   0.388  0.00  0.00    -0.426 N 
HETATM   15  H   UNK N   1      19.655  20.345   0.089  0.00  0.00     0.150 HD
HETATM   16  H   UNK N   1      21.090  21.297  -0.305  0.00  0.00     0.150 HD
ENDBRANCH  13  14
ENDBRANCH   1  13
TORSDOF 2
ENDMDL
