MODEL 1
REMARK VINA RESULT:      -7.2      0.000      0.000
REMARK  4 active torsions:
REMARK  status: ('A' for Active; 'I' for Inactive)
REMARK    1  A    between atoms: C_1  and  C_15 
REMARK    2  A    between atoms: C_7  and  O_8 
REMARK    3  A    between atoms: C_9  and  C_15 
REMARK    4  A    between atoms: C_15  and  C_16 
ROOT
HETATM    1  C   UNK N   1      35.609  12.245  13.214  0.00  0.00     0.060 A 
HETATM    2  C   UNK N   1      36.883  11.617  13.211  0.00  0.00     0.297 A 
HETATM    3  O   UNK N   1      37.150  10.730  13.998  0.00  0.00    -0.259 OA
HETATM    4  O   UNK N   1      37.803  11.960  12.313  0.00  0.00    -0.279 OA
HETATM    5  C   UNK N   1      37.623  12.885  11.377  0.00  0.00     0.066 A 
HETATM    6  C   UNK N   1      36.387  13.575  11.320  0.00  0.00     0.006 A 
HETATM    7  C   UNK N   1      35.383  13.234  12.234  0.00  0.00     0.087 A 
HETATM    8  C   UNK N   1      38.787  13.104  10.428  0.00  0.00     0.066 C 
HETATM    9  C   UNK N   1      38.602  13.991   9.203  0.00  0.00     0.006 C 
HETATM   10  C   UNK N   1      37.713  13.314   8.169  0.00  0.00     0.000 C 
HETATM   11  C   UNK N   1      36.478  14.166   7.910  0.00  0.00     0.000 C 
HETATM   12  C   UNK N   1      35.491  14.080   9.063  0.00  0.00     0.005 C 
HETATM   13  C   UNK N   1      36.100  14.663  10.328  0.00  0.00     0.044 C 
ENDROOT
BRANCH   1  14
HETATM   14  C   UNK N   1      34.461  11.837  14.171  0.00  0.00     0.060 C 
BRANCH  14  15
HETATM   15  C   UNK N   1      34.781  12.034  15.645  0.00  0.00    -0.049 A 
HETATM   16  C   UNK N   1      34.884  13.313  16.217  0.00  0.00     0.008 A 
HETATM   17  C   UNK N   1      35.162  13.452  17.581  0.00  0.00     0.001 A 
HETATM   18  C   UNK N   1      35.325  12.320  18.386  0.00  0.00     0.000 A 
HETATM   19  C   UNK N   1      35.219  11.046  17.826  0.00  0.00     0.001 A 
HETATM   20  C   UNK N   1      34.953  10.904  16.464  0.00  0.00     0.008 A 
ENDBRANCH  14  15
BRANCH  14  21
HETATM   21  C   UNK N   1      33.829  10.449  13.947  0.00  0.00     0.010 C 
HETATM   22  C   UNK N   1      33.713  10.047  12.481  0.00  0.00     0.006 C 
ENDBRANCH  14  21
ENDBRANCH   1  14
BRANCH   7  23
HETATM   23  O   UNK N   1      34.196  13.867  12.158  0.00  0.00    -0.359 OA
HETATM   24  H   UNK N   1      33.440  13.415  11.841  0.00  0.00     0.217 HD
ENDBRANCH   7  23
TORSDOF 4
ENDMDL
MODEL 2
REMARK VINA RESULT:      -7.2     13.775     17.043
REMARK  4 active torsions:
REMARK  status: ('A' for Active; 'I' for Inactive)
REMARK    1  A    between atoms: C_1  and  C_15 
REMARK    2  A    between atoms: C_7  and  O_8 
REMARK    3  A    between atoms: C_9  and  C_15 
REMARK    4  A    between atoms: C_15  and  C_16 
ROOT
HETATM    1  C   UNK N   1      24.950  19.633   3.795  0.00  0.00     0.060 A 
HETATM    2  C   UNK N   1      24.603  20.492   2.719  0.00  0.00     0.297 A 
HETATM    3  O   UNK N   1      25.455  21.077   2.080  0.00  0.00    -0.259 OA
HETATM    4  O   UNK N   1      23.331  20.642   2.358  0.00  0.00    -0.279 OA
HETATM    5  C   UNK N   1      22.311  20.030   2.949  0.00  0.00     0.066 A 
HETATM    6  C   UNK N   1      22.566  19.169   4.044  0.00  0.00     0.006 A 
HETATM    7  C   UNK N   1      23.891  18.967   4.448  0.00  0.00     0.087 A 
HETATM    8  C   UNK N   1      20.939  20.312   2.363  0.00  0.00     0.066 C 
HETATM    9  C   UNK N   1      19.738  19.503   2.838  0.00  0.00     0.006 C 
HETATM   10  C   UNK N   1      19.810  18.071   2.326  0.00  0.00     0.000 C 
HETATM   11  C   UNK N   1      19.842  17.102   3.500  0.00  0.00     0.000 C 
HETATM   12  C   UNK N   1      21.200  17.105   4.186  0.00  0.00     0.005 C 
HETATM   13  C   UNK N   1      21.481  18.464   4.803  0.00  0.00     0.044 C 
ENDROOT
BRANCH   1  14
HETATM   14  C   UNK N   1      26.413  19.342   4.214  0.00  0.00     0.060 C 
BRANCH  14  15
HETATM   15  C   UNK N   1      26.927  17.981   3.771  0.00  0.00    -0.049 A 
HETATM   16  C   UNK N   1      26.128  17.091   3.034  0.00  0.00     0.008 A 
HETATM   17  C   UNK N   1      26.644  15.854   2.630  0.00  0.00     0.001 A 
HETATM   18  C   UNK N   1      27.960  15.503   2.944  0.00  0.00     0.000 A 
HETATM   19  C   UNK N   1      28.762  16.384   3.671  0.00  0.00     0.001 A 
HETATM   20  C   UNK N   1      28.246  17.613   4.086  0.00  0.00     0.008 A 
ENDBRANCH  14  15
BRANCH  14  21
HETATM   21  C   UNK N   1      26.776  19.591   5.691  0.00  0.00     0.010 C 
HETATM   22  C   UNK N   1      26.871  21.065   6.069  0.00  0.00     0.006 C 
ENDBRANCH  14  21
ENDBRANCH   1  14
BRANCH   7  23
HETATM   23  O   UNK N   1      24.136  18.123   5.468  0.00  0.00    -0.359 OA
HETATM   24  H   UNK N   1      23.764  17.263   5.469  0.00  0.00     0.217 HD
ENDBRANCH   7  23
TORSDOF 4
ENDMDL
MODEL 3
REMARK VINA RESULT:      -7.0      4.824      8.190
REMARK  4 active torsions:
REMARK  status: ('A' for Active; 'I' for Inactive)
REMARK    1  A    between atoms: C_1  and  C_15 
REMARK    2  A    between atoms: C_7  and  O_8 
REMARK    3  A    between atoms: C_9  and  C_15 
REMARK    4  A    between atoms: C_15  and  C_16 
ROOT
HETATM    1  C   UNK N   1      32.567  15.843   8.090  0.00  0.00     0.060 A 
HETATM    2  C   UNK N   1      32.237  14.543   7.622  0.00  0.00     0.297 A 
HETATM    3  O   UNK N   1      31.485  14.384   6.681  0.00  0.00    -0.259 OA
HETATM    4  O   UNK N   1      32.782  13.465   8.182  0.00  0.00    -0.279 OA
HETATM    5  C   UNK N   1      33.646  13.504   9.189  0.00  0.00     0.066 A 
HETATM    6  C   UNK N   1      34.017  14.760   9.730  0.00  0.00     0.006 A 
HETATM    7  C   UNK N   1      33.483  15.922   9.162  0.00  0.00     0.087 A 
HETATM    8  C   UNK N   1      34.175  12.162   9.662  0.00  0.00     0.066 C 
HETATM    9  C   UNK N   1      35.319  12.117  10.668  0.00  0.00     0.006 C 
HETATM   10  C   UNK N   1      36.627  12.557  10.026  0.00  0.00     0.000 C 
HETATM   11  C   UNK N   1      37.176  13.778  10.752  0.00  0.00     0.000 C 
HETATM   12  C   UNK N   1      36.387  15.031  10.406  0.00  0.00     0.005 C 
HETATM   13  C   UNK N   1      34.953  14.908  10.893  0.00  0.00     0.044 C 
ENDROOT
BRANCH   1  14
HETATM   14  C   UNK N   1      32.041  17.143   7.432  0.00  0.00     0.060 C 
BRANCH  14  15
HETATM   15  C   UNK N   1      30.648  17.550   7.887  0.00  0.00    -0.049 A 
HETATM   16  C   UNK N   1      29.506  17.264   7.121  0.00  0.00     0.008 A 
HETATM   17  C   UNK N   1      28.239  17.639   7.582  0.00  0.00     0.001 A 
HETATM   18  C   UNK N   1      28.101  18.288   8.814  0.00  0.00     0.000 A 
HETATM   19  C   UNK N   1      29.231  18.570   9.583  0.00  0.00     0.001 A 
HETATM   20  C   UNK N   1      30.497  18.207   9.120  0.00  0.00     0.008 A 
ENDBRANCH  14  15
BRANCH  14  21
HETATM   21  C   UNK N   1      32.147  17.238   5.898  0.00  0.00     0.010 C 
HETATM   22  C   UNK N   1      33.579  17.279   5.373  0.00  0.00     0.006 C 
ENDBRANCH  14  21
ENDBRANCH   1  14
BRANCH   7  23
HETATM   23  O   UNK N   1      33.860  17.117   9.654  0.00  0.00    -0.359 OA
HETATM   24  H   UNK N   1      33.341  17.880   9.491  0.00  0.00     0.217 HD
ENDBRANCH   7  23
TORSDOF 4
ENDMDL
MODEL 4
REMARK VINA RESULT:      -6.9      8.386     12.007
REMARK  4 active torsions:
REMARK  status: ('A' for Active; 'I' for Inactive)
REMARK    1  A    between atoms: C_1  and  C_15 
REMARK    2  A    between atoms: C_7  and  O_8 
REMARK    3  A    between atoms: C_9  and  C_15 
REMARK    4  A    between atoms: C_15  and  C_16 
ROOT
HETATM    1  C   UNK N   1      29.529  17.205   5.072  0.00  0.00     0.060 A 
HETATM    2  C   UNK N   1      29.090  16.887   6.385  0.00  0.00     0.297 A 
HETATM    3  O   UNK N   1      27.915  16.695   6.626  0.00  0.00    -0.259 OA
HETATM    4  O   UNK N   1      29.968  16.752   7.376  0.00  0.00    -0.279 OA
HETATM    5  C   UNK N   1      31.280  16.898   7.235  0.00  0.00     0.066 A 
HETATM    6  C   UNK N   1      31.803  17.233   5.962  0.00  0.00     0.006 A 
HETATM    7  C   UNK N   1      30.919  17.368   4.886  0.00  0.00     0.087 A 
HETATM    8  C   UNK N   1      32.111  16.668   8.485  0.00  0.00     0.066 C 
HETATM    9  C   UNK N   1      33.630  16.610   8.378  0.00  0.00     0.006 C 
HETATM   10  C   UNK N   1      34.079  15.333   7.683  0.00  0.00     0.000 C 
HETATM   11  C   UNK N   1      34.861  15.676   6.422  0.00  0.00     0.000 C 
HETATM   12  C   UNK N   1      33.940  16.158   5.311  0.00  0.00     0.005 C 
HETATM   13  C   UNK N   1      33.264  17.459   5.709  0.00  0.00     0.044 C 
ENDROOT
BRANCH   1  14
HETATM   14  C   UNK N   1      28.576  17.292   3.853  0.00  0.00     0.060 C 
BRANCH  14  15
HETATM   15  C   UNK N   1      27.495  18.353   3.985  0.00  0.00    -0.049 A 
HETATM   16  C   UNK N   1      27.788  19.664   4.396  0.00  0.00     0.008 A 
HETATM   17  C   UNK N   1      26.767  20.616   4.488  0.00  0.00     0.001 A 
HETATM   18  C   UNK N   1      25.452  20.274   4.157  0.00  0.00     0.000 A 
HETATM   19  C   UNK N   1      25.154  18.975   3.742  0.00  0.00     0.001 A 
HETATM   20  C   UNK N   1      26.168  18.020   3.661  0.00  0.00     0.008 A 
ENDBRANCH  14  15
BRANCH  14  21
HETATM   21  C   UNK N   1      27.964  15.970   3.354  0.00  0.00     0.010 C 
HETATM   22  C   UNK N   1      28.829  15.225   2.342  0.00  0.00     0.006 C 
ENDBRANCH  14  21
ENDBRANCH   1  14
BRANCH   7  23
HETATM   23  O   UNK N   1      31.418  17.655   3.668  0.00  0.00    -0.359 OA
HETATM   24  H   UNK N   1      31.870  16.998   3.176  0.00  0.00     0.217 HD
ENDBRANCH   7  23
TORSDOF 4
ENDMDL
MODEL 5
REMARK VINA RESULT:      -6.7      1.830      6.829
REMARK  4 active torsions:
REMARK  status: ('A' for Active; 'I' for Inactive)
REMARK    1  A    between atoms: C_1  and  C_15 
REMARK    2  A    between atoms: C_7  and  O_8 
REMARK    3  A    between atoms: C_9  and  C_15 
REMARK    4  A    between atoms: C_15  and  C_16 
ROOT
HETATM    1  C   UNK N   1      35.829  13.479  11.233  0.00  0.00     0.060 A 
HETATM    2  C   UNK N   1      35.169  12.310  10.770  0.00  0.00     0.297 A 
HETATM    3  O   UNK N   1      35.143  12.028   9.589  0.00  0.00    -0.259 OA
HETATM    4  O   UNK N   1      34.599  11.470  11.631  0.00  0.00    -0.279 OA
HETATM    5  C   UNK N   1      34.592  11.643  12.948  0.00  0.00     0.066 A 
HETATM    6  C   UNK N   1      35.212  12.794  13.494  0.00  0.00     0.006 A 
HETATM    7  C   UNK N   1      35.840  13.696  12.628  0.00  0.00     0.087 A 
HETATM    8  C   UNK N   1      33.914  10.552  13.757  0.00  0.00     0.066 C 
HETATM    9  C   UNK N   1      34.035  10.557  15.276  0.00  0.00     0.006 C 
HETATM   10  C   UNK N   1      35.446  10.190  15.712  0.00  0.00     0.000 C 
HETATM   11  C   UNK N   1      36.053  11.331  16.517  0.00  0.00     0.000 C 
HETATM   12  C   UNK N   1      36.450  12.494  15.621  0.00  0.00     0.005 C 
HETATM   13  C   UNK N   1      35.223  13.100  14.963  0.00  0.00     0.044 C 
ENDROOT
BRANCH   1  14
HETATM   14  C   UNK N   1      36.589  14.454  10.300  0.00  0.00     0.060 C 
BRANCH  14  15
HETATM   15  C   UNK N   1      35.685  15.313   9.429  0.00  0.00    -0.049 A 
HETATM   16  C   UNK N   1      35.025  16.445   9.936  0.00  0.00     0.008 A 
HETATM   17  C   UNK N   1      34.215  17.220   9.098  0.00  0.00     0.001 A 
HETATM   18  C   UNK N   1      34.070  16.881   7.749  0.00  0.00     0.000 A 
HETATM   19  C   UNK N   1      34.727  15.761   7.237  0.00  0.00     0.001 A 
HETATM   20  C   UNK N   1      35.525  14.980   8.073  0.00  0.00     0.008 A 
ENDBRANCH  14  15
BRANCH  14  21
HETATM   21  C   UNK N   1      37.730  13.858   9.452  0.00  0.00     0.010 C 
HETATM   22  C   UNK N   1      38.819  13.169  10.269  0.00  0.00     0.006 C 
ENDBRANCH  14  21
ENDBRANCH   1  14
BRANCH   7  23
HETATM   23  O   UNK N   1      36.458  14.773  13.150  0.00  0.00    -0.359 OA
HETATM   24  H   UNK N   1      36.248  15.633  12.843  0.00  0.00     0.217 HD
ENDBRANCH   7  23
TORSDOF 4
ENDMDL
MODEL 6
REMARK VINA RESULT:      -6.7      2.898      4.944
REMARK  4 active torsions:
REMARK  status: ('A' for Active; 'I' for Inactive)
REMARK    1  A    between atoms: C_1  and  C_15 
REMARK    2  A    between atoms: C_7  and  O_8 
REMARK    3  A    between atoms: C_9  and  C_15 
REMARK    4  A    between atoms: C_15  and  C_16 
ROOT
HETATM    1  C   UNK N   1      35.250  14.569  10.450  0.00  0.00     0.060 A 
HETATM    2  C   UNK N   1      35.736  15.902  10.381  0.00  0.00     0.297 A 
HETATM    3  O   UNK N   1      36.801  16.210  10.879  0.00  0.00    -0.259 OA
HETATM    4  O   UNK N   1      35.050  16.838   9.730  0.00  0.00    -0.279 OA
HETATM    5  C   UNK N   1      33.895  16.622   9.112  0.00  0.00     0.066 A 
HETATM    6  C   UNK N   1      33.328  15.324   9.146  0.00  0.00     0.006 A 
HETATM    7  C   UNK N   1      34.023  14.303   9.805  0.00  0.00     0.087 A 
HETATM    8  C   UNK N   1      33.290  17.818   8.399  0.00  0.00     0.066 C 
HETATM    9  C   UNK N   1      32.079  17.621   7.496  0.00  0.00     0.006 C 
HETATM   10  C   UNK N   1      32.465  16.886   6.220  0.00  0.00     0.000 C 
HETATM   11  C   UNK N   1      31.681  15.585   6.112  0.00  0.00     0.000 C 
HETATM   12  C   UNK N   1      32.210  14.536   7.078  0.00  0.00     0.005 C 
HETATM   13  C   UNK N   1      32.010  14.987   8.515  0.00  0.00     0.044 C 
ENDROOT
BRANCH   1  14
HETATM   14  C   UNK N   1      36.035  13.410  11.114  0.00  0.00     0.060 C 
BRANCH  14  15
HETATM   15  C   UNK N   1      35.760  13.245  12.600  0.00  0.00    -0.049 A 
HETATM   16  C   UNK N   1      34.840  12.300  13.084  0.00  0.00     0.008 A 
HETATM   17  C   UNK N   1      34.628  12.167  14.461  0.00  0.00     0.001 A 
HETATM   18  C   UNK N   1      35.342  12.962  15.364  0.00  0.00     0.000 A 
HETATM   19  C   UNK N   1      36.262  13.898  14.891  0.00  0.00     0.001 A 
HETATM   20  C   UNK N   1      36.466  14.042  13.518  0.00  0.00     0.008 A 
ENDBRANCH  14  15
BRANCH  14  21
HETATM   21  C   UNK N   1      37.551  13.353  10.845  0.00  0.00     0.010 C 
HETATM   22  C   UNK N   1      38.083  11.951  10.564  0.00  0.00     0.006 C 
ENDBRANCH  14  21
ENDBRANCH   1  14
BRANCH   7  23
HETATM   23  O   UNK N   1      33.501  13.062   9.809  0.00  0.00    -0.359 OA
HETATM   24  H   UNK N   1      32.643  12.911  10.154  0.00  0.00     0.217 HD
ENDBRANCH   7  23
TORSDOF 4
ENDMDL
MODEL 7
REMARK VINA RESULT:      -6.7     19.648     23.811
REMARK  4 active torsions:
REMARK  status: ('A' for Active; 'I' for Inactive)
REMARK    1  A    between atoms: C_1  and  C_15 
REMARK    2  A    between atoms: C_7  and  O_8 
REMARK    3  A    between atoms: C_9  and  C_15 
REMARK    4  A    between atoms: C_15  and  C_16 
ROOT
HETATM    1  C   UNK N   1      27.838  25.904  -4.833  0.00  0.00     0.060 A 
HETATM    2  C   UNK N   1      27.131  25.151  -3.858  0.00  0.00     0.297 A 
HETATM    3  O   UNK N   1      25.938  25.306  -3.688  0.00  0.00    -0.259 OA
HETATM    4  O   UNK N   1      27.755  24.225  -3.135  0.00  0.00    -0.279 OA
HETATM    5  C   UNK N   1      29.045  23.933  -3.252  0.00  0.00     0.066 A 
HETATM    6  C   UNK N   1      29.832  24.649  -4.188  0.00  0.00     0.006 A 
HETATM    7  C   UNK N   1      29.213  25.620  -4.983  0.00  0.00     0.087 A 
HETATM    8  C   UNK N   1      29.557  22.819  -2.356  0.00  0.00     0.066 C 
HETATM    9  C   UNK N   1      30.966  22.275  -2.563  0.00  0.00     0.006 C 
HETATM   10  C   UNK N   1      31.054  21.464  -3.847  0.00  0.00     0.000 C 
HETATM   11  C   UNK N   1      32.082  22.085  -4.784  0.00  0.00     0.000 C 
HETATM   12  C   UNK N   1      31.551  23.359  -5.424  0.00  0.00     0.005 C 
HETATM   13  C   UNK N   1      31.303  24.422  -4.367  0.00  0.00     0.044 C 
ENDROOT
BRANCH   1  14
HETATM   14  C   UNK N   1      27.161  26.935  -5.770  0.00  0.00     0.060 C 
BRANCH  14  15
HETATM   15  C   UNK N   1      27.142  28.354  -5.223  0.00  0.00    -0.049 A 
HETATM   16  C   UNK N   1      26.287  28.733  -4.175  0.00  0.00     0.008 A 
HETATM   17  C   UNK N   1      26.312  30.045  -3.687  0.00  0.00     0.001 A 
HETATM   18  C   UNK N   1      27.199  30.981  -4.229  0.00  0.00     0.000 A 
HETATM   19  C   UNK N   1      28.057  30.609  -5.266  0.00  0.00     0.001 A 
HETATM   20  C   UNK N   1      28.025  29.305  -5.762  0.00  0.00     0.008 A 
ENDBRANCH  14  15
BRANCH  14  21
HETATM   21  C   UNK N   1      25.772  26.563  -6.324  0.00  0.00     0.010 C 
HETATM   22  C   UNK N   1      25.807  25.896  -7.696  0.00  0.00     0.006 C 
ENDBRANCH  14  21
ENDBRANCH   1  14
BRANCH   7  23
HETATM   23  O   UNK N   1      29.953  26.278  -5.896  0.00  0.00    -0.359 OA
HETATM   24  H   UNK N   1      29.536  26.771  -6.576  0.00  0.00     0.217 HD
ENDBRANCH   7  23
TORSDOF 4
ENDMDL
MODEL 8
REMARK VINA RESULT:      -6.7     21.233     23.954
REMARK  4 active torsions:
REMARK  status: ('A' for Active; 'I' for Inactive)
REMARK    1  A    between atoms: C_1  and  C_15 
REMARK    2  A    between atoms: C_7  and  O_8 
REMARK    3  A    between atoms: C_9  and  C_15 
REMARK    4  A    between atoms: C_15  and  C_16 
ROOT
HETATM    1  C   UNK N   1      27.241  24.598  -4.918  0.00  0.00     0.060 A 
HETATM    2  C   UNK N   1      26.726  24.840  -3.616  0.00  0.00     0.297 A 
HETATM    3  O   UNK N   1      26.628  23.944  -2.802  0.00  0.00    -0.259 OA
HETATM    4  O   UNK N   1      26.378  26.070  -3.245  0.00  0.00    -0.279 OA
HETATM    5  C   UNK N   1      26.474  27.139  -4.026  0.00  0.00     0.066 A 
HETATM    6  C   UNK N   1      26.960  26.985  -5.348  0.00  0.00     0.006 A 
HETATM    7  C   UNK N   1      27.355  25.713  -5.776  0.00  0.00     0.087 A 
HETATM    8  C   UNK N   1      26.054  28.457  -3.401  0.00  0.00     0.066 C 
HETATM    9  C   UNK N   1      26.320  29.761  -4.144  0.00  0.00     0.006 C 
HETATM   10  C   UNK N   1      27.807  30.087  -4.158  0.00  0.00     0.000 C 
HETATM   11  C   UNK N   1      28.308  30.165  -5.594  0.00  0.00     0.000 C 
HETATM   12  C   UNK N   1      28.432  28.783  -6.215  0.00  0.00     0.005 C 
HETATM   13  C   UNK N   1      27.067  28.123  -6.320  0.00  0.00     0.044 C 
ENDROOT
BRANCH   1  14
HETATM   14  C   UNK N   1      27.747  23.212  -5.389  0.00  0.00     0.060 C 
BRANCH  14  15
HETATM   15  C   UNK N   1      29.244  23.006  -5.217  0.00  0.00    -0.049 A 
HETATM   16  C   UNK N   1      30.036  23.902  -4.481  0.00  0.00     0.008 A 
HETATM   17  C   UNK N   1      31.407  23.668  -4.330  0.00  0.00     0.001 A 
HETATM   18  C   UNK N   1      31.994  22.533  -4.898  0.00  0.00     0.000 A 
HETATM   19  C   UNK N   1      31.213  21.634  -5.625  0.00  0.00     0.001 A 
HETATM   20  C   UNK N   1      29.847  21.872  -5.787  0.00  0.00     0.008 A 
ENDBRANCH  14  15
BRANCH  14  21
HETATM   21  C   UNK N   1      27.307  22.751  -6.792  0.00  0.00     0.010 C 
HETATM   22  C   UNK N   1      25.805  22.519  -6.930  0.00  0.00     0.006 C 
ENDBRANCH  14  21
ENDBRANCH   1  14
BRANCH   7  23
HETATM   23  O   UNK N   1      27.848  25.572  -7.021  0.00  0.00    -0.359 OA
HETATM   24  H   UNK N   1      27.745  24.762  -7.481  0.00  0.00     0.217 HD
ENDBRANCH   7  23
TORSDOF 4
ENDMDL
MODEL 9
REMARK VINA RESULT:      -6.6      2.003      3.457
REMARK  4 active torsions:
REMARK  status: ('A' for Active; 'I' for Inactive)
REMARK    1  A    between atoms: C_1  and  C_15 
REMARK    2  A    between atoms: C_7  and  O_8 
REMARK    3  A    between atoms: C_9  and  C_15 
REMARK    4  A    between atoms: C_15  and  C_16 
ROOT
HETATM    1  C   UNK N   1      35.650  12.674  13.383  0.00  0.00     0.060 A 
HETATM    2  C   UNK N   1      34.874  11.788  12.589  0.00  0.00     0.297 A 
HETATM    3  O   UNK N   1      34.416  10.764  13.055  0.00  0.00    -0.259 OA
HETATM    4  O   UNK N   1      34.596  12.084  11.322  0.00  0.00    -0.279 OA
HETATM    5  C   UNK N   1      35.004  13.189  10.708  0.00  0.00     0.066 A 
HETATM    6  C   UNK N   1      35.799  14.120  11.421  0.00  0.00     0.006 A 
HETATM    7  C   UNK N   1      36.102  13.858  12.762  0.00  0.00     0.087 A 
HETATM    8  C   UNK N   1      34.551  13.353   9.268  0.00  0.00     0.066 C 
HETATM    9  C   UNK N   1      34.793  14.675   8.550  0.00  0.00     0.006 C 
HETATM   10  C   UNK N   1      33.889  15.768   9.100  0.00  0.00     0.000 C 
HETATM   11  C   UNK N   1      34.732  16.905   9.662  0.00  0.00     0.000 C 
HETATM   12  C   UNK N   1      35.364  16.523  10.992  0.00  0.00     0.005 C 
HETATM   13  C   UNK N   1      36.342  15.375  10.805  0.00  0.00     0.044 C 
ENDROOT
BRANCH   1  14
HETATM   14  C   UNK N   1      35.940  12.438  14.887  0.00  0.00     0.060 C 
BRANCH  14  15
HETATM   15  C   UNK N   1      36.758  11.189  15.173  0.00  0.00    -0.049 A 
HETATM   16  C   UNK N   1      36.344  10.232  16.114  0.00  0.00     0.008 A 
HETATM   17  C   UNK N   1      37.115   9.085  16.337  0.00  0.00     0.001 A 
HETATM   18  C   UNK N   1      38.294   8.879  15.614  0.00  0.00     0.000 A 
HETATM   19  C   UNK N   1      38.709   9.823  14.673  0.00  0.00     0.001 A 
HETATM   20  C   UNK N   1      37.948  10.972  14.458  0.00  0.00     0.008 A 
ENDBRANCH  14  15
BRANCH  14  21
HETATM   21  C   UNK N   1      34.737  12.517  15.847  0.00  0.00     0.010 C 
HETATM   22  C   UNK N   1      34.974  13.394  17.072  0.00  0.00     0.006 C 
ENDBRANCH  14  21
ENDBRANCH   1  14
BRANCH   7  23
HETATM   23  O   UNK N   1      36.830  14.759  13.449  0.00  0.00    -0.359 OA
HETATM   24  H   UNK N   1      37.728  14.908  13.228  0.00  0.00     0.217 HD
ENDBRANCH   7  23
TORSDOF 4
ENDMDL
