MODEL 1
REMARK VINA RESULT:      -7.0      0.000      0.000
REMARK  5 active torsions:
REMARK  status: ('A' for Active; 'I' for Inactive)
REMARK    1  A    between atoms: C_2  and  O_3 
REMARK    2  A    between atoms: C_2  and  C_4 
REMARK    3  A    between atoms: C_4  and  N_5 
REMARK       I    between atoms: N_5  and  C_6 
REMARK    4  A    between atoms: C_6  and  C_8 
REMARK    5  A    between atoms: C_14  and  O_15 
ROOT
HETATM    1  C   UNK N   1      33.398  17.414   8.316  0.00  0.00     0.136 A 
HETATM    2  N   UNK N   1      32.232  17.351   9.024  0.00  0.00    -0.339 N 
ATOM      3  HN  UNK N   1      32.280  17.361  10.042  1.00  0.00     0.167 HD
HETATM    4  C   UNK N   1      31.010  17.277   8.434  0.00  0.00     0.115 A 
HETATM    5 Cl   UNK N   1      29.576  17.201   9.452  0.00  0.00    -0.064 Cl
HETATM    6  C   UNK N   1      30.913  17.262   7.036  0.00  0.00     0.015 A 
HETATM    7  C   UNK N   1      33.340  17.402   6.905  0.00  0.00     0.109 A 
HETATM    8  C   UNK N   1      32.095  17.326   6.268  0.00  0.00     0.013 A 
HETATM    9  C   UNK N   1      32.014  17.312   4.869  0.00  0.00     0.015 A 
HETATM   10  C   UNK N   1      30.772  17.236   4.237  0.00  0.00     0.001 A 
HETATM   11  C   UNK N   1      29.602  17.173   4.996  0.00  0.00     0.001 A 
HETATM   12  C   UNK N   1      29.670  17.186   6.393  0.00  0.00     0.015 A 
ENDROOT
BRANCH   1  13
HETATM   13  C   UNK N   1      34.715  17.495   9.039  0.00  0.00     0.271 C 
HETATM   14  N   UNK N   1      35.298  16.421   9.634  0.00  0.00    -0.346 N 
HETATM   15  H   UNK N   1      36.161  16.559  10.087  0.00  0.00     0.163 HD
HETATM   16  O   UNK N   1      35.297  18.567   9.102  0.00  0.00    -0.266 OA
BRANCH  14  17
HETATM   17  C   UNK N   1      34.737  15.092   9.646  0.00  0.00     0.232 C 
BRANCH  17  18
HETATM   18  C   UNK N   1      33.989  14.824  10.911  0.00  0.00     0.158 C 
HETATM   19  O   UNK N   1      34.560  14.394  11.900  0.00  0.00    -0.649 OA
BRANCH  18  20
HETATM   20  O   UNK N   1      32.665  15.061  10.954  0.00  0.00    -0.775 OA
HETATM   21  H   UNK N   1      32.320  15.680  11.567  0.00  0.00     0.167 HD
ENDBRANCH  18  20
ENDBRANCH  17  18
ENDBRANCH  14  17
ENDBRANCH   1  13
BRANCH   7  22
HETATM   22  O   UNK N   1      34.464  17.462   6.165  0.00  0.00    -0.357 OA
HETATM   23  H   UNK N   1      34.753  18.282   5.817  0.00  0.00     0.217 HD
ENDBRANCH   7  22
TORSDOF 5
ENDMDL
MODEL 2
REMARK VINA RESULT:      -6.6      2.058      2.581
REMARK  5 active torsions:
REMARK  status: ('A' for Active; 'I' for Inactive)
REMARK    1  A    between atoms: C_2  and  O_3 
REMARK    2  A    between atoms: C_2  and  C_4 
REMARK    3  A    between atoms: C_4  and  N_5 
REMARK       I    between atoms: N_5  and  C_6 
REMARK    4  A    between atoms: C_6  and  C_8 
REMARK    5  A    between atoms: C_14  and  O_15 
ROOT
HETATM    1  C   UNK N   1      33.316  17.698   7.405  0.00  0.00     0.136 A 
HETATM    2  N   UNK N   1      33.548  17.561   6.067  0.00  0.00    -0.339 N 
ATOM      3  HN  UNK N   1      34.503  17.664   5.726  1.00  0.00     0.167 HD
HETATM    4  C   UNK N   1      32.565  17.294   5.168  0.00  0.00     0.115 A 
HETATM    5 Cl   UNK N   1      32.987  17.139   3.466  0.00  0.00    -0.064 Cl
HETATM    6  C   UNK N   1      31.243  17.147   5.607  0.00  0.00     0.015 A 
HETATM    7  C   UNK N   1      31.995  17.556   7.886  0.00  0.00     0.109 A 
HETATM    8  C   UNK N   1      30.961  17.280   6.983  0.00  0.00     0.013 A 
HETATM    9  C   UNK N   1      29.642  17.136   7.438  0.00  0.00     0.015 A 
HETATM   10  C   UNK N   1      28.613  16.861   6.536  0.00  0.00     0.001 A 
HETATM   11  C   UNK N   1      28.892  16.729   5.174  0.00  0.00     0.001 A 
HETATM   12  C   UNK N   1      30.203  16.871   4.709  0.00  0.00     0.015 A 
ENDROOT
BRANCH   1  13
HETATM   13  C   UNK N   1      34.456  17.994   8.342  0.00  0.00     0.271 C 
HETATM   14  N   UNK N   1      34.986  17.062   9.178  0.00  0.00    -0.346 N 
HETATM   15  H   UNK N   1      35.731  17.338   9.759  0.00  0.00     0.163 HD
HETATM   16  O   UNK N   1      34.935  19.117   8.362  0.00  0.00    -0.266 OA
BRANCH  14  17
HETATM   17  C   UNK N   1      34.531  15.697   9.269  0.00  0.00     0.232 C 
BRANCH  17  18
HETATM   18  C   UNK N   1      34.237  15.309  10.682  0.00  0.00     0.158 C 
HETATM   19  O   UNK N   1      35.123  15.272  11.521  0.00  0.00    -0.649 OA
BRANCH  18  20
HETATM   20  O   UNK N   1      32.975  14.997  11.030  0.00  0.00    -0.775 OA
HETATM   21  H   UNK N   1      32.280  15.096  10.409  0.00  0.00     0.167 HD
ENDBRANCH  18  20
ENDBRANCH  17  18
ENDBRANCH  14  17
ENDBRANCH   1  13
BRANCH   7  22
HETATM   22  O   UNK N   1      31.718  17.683   9.198  0.00  0.00    -0.357 OA
HETATM   23  H   UNK N   1      31.989  18.449   9.663  0.00  0.00     0.217 HD
ENDBRANCH   7  22
TORSDOF 5
ENDMDL
MODEL 3
REMARK VINA RESULT:      -6.5      9.712     12.332
REMARK  5 active torsions:
REMARK  status: ('A' for Active; 'I' for Inactive)
REMARK    1  A    between atoms: C_2  and  O_3 
REMARK    2  A    between atoms: C_2  and  C_4 
REMARK    3  A    between atoms: C_4  and  N_5 
REMARK       I    between atoms: N_5  and  C_6 
REMARK    4  A    between atoms: C_6  and  C_8 
REMARK    5  A    between atoms: C_14  and  O_15 
ROOT
HETATM    1  C   UNK N   1      22.041  19.199   3.749  0.00  0.00     0.136 A 
HETATM    2  N   UNK N   1      22.263  18.032   4.422  0.00  0.00    -0.339 N 
ATOM      3  HN  UNK N   1      21.459  17.471   4.701  1.00  0.00     0.167 HD
HETATM    4  C   UNK N   1      23.506  17.583   4.736  0.00  0.00     0.115 A 
HETATM    5 Cl   UNK N   1      23.666  16.061   5.607  0.00  0.00    -0.064 Cl
HETATM    6  C   UNK N   1      24.630  18.333   4.366  0.00  0.00     0.015 A 
HETATM    7  C   UNK N   1      23.149  19.982   3.359  0.00  0.00     0.109 A 
HETATM    8  C   UNK N   1      24.443  19.546   3.669  0.00  0.00     0.013 A 
HETATM    9  C   UNK N   1      25.558  20.307   3.291  0.00  0.00     0.015 A 
HETATM   10  C   UNK N   1      26.847  19.869   3.602  0.00  0.00     0.001 A 
HETATM   11  C   UNK N   1      27.032  18.668   4.291  0.00  0.00     0.001 A 
HETATM   12  C   UNK N   1      25.928  17.901   4.673  0.00  0.00     0.015 A 
ENDROOT
BRANCH   1  13
HETATM   13  C   UNK N   1      20.634  19.632   3.436  0.00  0.00     0.271 C 
HETATM   14  N   UNK N   1      19.771  18.872   2.711  0.00  0.00    -0.346 N 
HETATM   15  H   UNK N   1      18.868  19.229   2.551  0.00  0.00     0.163 HD
HETATM   16  O   UNK N   1      20.237  20.713   3.844  0.00  0.00    -0.266 OA
BRANCH  14  17
HETATM   17  C   UNK N   1      20.090  17.577   2.162  0.00  0.00     0.232 C 
BRANCH  17  18
HETATM   18  C   UNK N   1      20.317  17.646   0.687  0.00  0.00     0.158 C 
HETATM   19  O   UNK N   1      20.392  16.630   0.014  0.00  0.00    -0.649 OA
BRANCH  18  20
HETATM   20  O   UNK N   1      20.439  18.849   0.096  0.00  0.00    -0.775 OA
HETATM   21  H   UNK N   1      19.677  19.371  -0.066  0.00  0.00     0.167 HD
ENDBRANCH  18  20
ENDBRANCH  17  18
ENDBRANCH  14  17
ENDBRANCH   1  13
BRANCH   7  22
HETATM   22  O   UNK N   1      22.979  21.141   2.694  0.00  0.00    -0.357 OA
HETATM   23  H   UNK N   1      23.528  21.876   2.883  0.00  0.00     0.217 HD
ENDBRANCH   7  22
TORSDOF 5
ENDMDL
MODEL 4
REMARK VINA RESULT:      -6.5     10.871     12.803
REMARK  5 active torsions:
REMARK  status: ('A' for Active; 'I' for Inactive)
REMARK    1  A    between atoms: C_2  and  O_3 
REMARK    2  A    between atoms: C_2  and  C_4 
REMARK    3  A    between atoms: C_4  and  N_5 
REMARK       I    between atoms: N_5  and  C_6 
REMARK    4  A    between atoms: C_6  and  C_8 
REMARK    5  A    between atoms: C_14  and  O_15 
ROOT
HETATM    1  C   UNK N   1      21.406  14.064   7.743  0.00  0.00     0.136 A 
HETATM    2  N   UNK N   1      22.696  14.022   7.299  0.00  0.00    -0.339 N 
ATOM      3  HN  UNK N   1      22.902  14.380   6.368  1.00  0.00     0.167 HD
HETATM    4  C   UNK N   1      23.719  13.525   8.042  0.00  0.00     0.115 A 
HETATM    5 Cl   UNK N   1      25.343  13.523   7.363  0.00  0.00    -0.064 Cl
HETATM    6  C   UNK N   1      23.466  13.025   9.327  0.00  0.00     0.015 A 
HETATM    7  C   UNK N   1      21.112  13.570   9.032  0.00  0.00     0.109 A 
HETATM    8  C   UNK N   1      22.145  13.050   9.822  0.00  0.00     0.013 A 
HETATM    9  C   UNK N   1      21.876  12.554  11.105  0.00  0.00     0.015 A 
HETATM   10  C   UNK N   1      22.909  12.037  11.890  0.00  0.00     0.001 A 
HETATM   11  C   UNK N   1      24.216  12.012  11.400  0.00  0.00     0.001 A 
HETATM   12  C   UNK N   1      24.496  12.504  10.122  0.00  0.00     0.015 A 
ENDROOT
BRANCH   1  13
HETATM   13  C   UNK N   1      20.324  14.630   6.862  0.00  0.00     0.271 C 
HETATM   14  N   UNK N   1      19.791  15.866   7.050  0.00  0.00    -0.346 N 
HETATM   15  H   UNK N   1      19.087  16.161   6.429  0.00  0.00     0.163 HD
HETATM   16  O   UNK N   1      19.897  13.959   5.935  0.00  0.00    -0.266 OA
BRANCH  14  17
HETATM   17  C   UNK N   1      20.188  16.775   8.098  0.00  0.00     0.232 C 
BRANCH  17  18
HETATM   18  C   UNK N   1      19.050  17.092   9.011  0.00  0.00     0.158 C 
HETATM   19  O   UNK N   1      18.291  16.217   9.397  0.00  0.00    -0.649 OA
BRANCH  18  20
HETATM   20  O   UNK N   1      18.862  18.363   9.411  0.00  0.00    -0.775 OA
HETATM   21  H   UNK N   1      17.996  18.677   9.583  0.00  0.00     0.167 HD
ENDBRANCH  18  20
ENDBRANCH  17  18
ENDBRANCH  14  17
ENDBRANCH   1  13
BRANCH   7  22
HETATM   22  O   UNK N   1      19.853  13.590   9.512  0.00  0.00    -0.357 OA
HETATM   23  H   UNK N   1      19.353  12.799   9.551  0.00  0.00     0.217 HD
ENDBRANCH   7  22
TORSDOF 5
ENDMDL
MODEL 5
REMARK VINA RESULT:      -6.3      4.226      6.337
REMARK  5 active torsions:
REMARK  status: ('A' for Active; 'I' for Inactive)
REMARK    1  A    between atoms: C_2  and  O_3 
REMARK    2  A    between atoms: C_2  and  C_4 
REMARK    3  A    between atoms: C_4  and  N_5 
REMARK       I    between atoms: N_5  and  C_6 
REMARK    4  A    between atoms: C_6  and  C_8 
REMARK    5  A    between atoms: C_14  and  O_15 
ROOT
HETATM    1  C   UNK N   1      29.424  17.497   7.933  0.00  0.00     0.136 A 
HETATM    2  N   UNK N   1      29.338  16.750   6.793  0.00  0.00    -0.339 N 
ATOM      3  HN  UNK N   1      28.415  16.464   6.468  1.00  0.00     0.167 HD
HETATM    4  C   UNK N   1      30.425  16.369   6.073  0.00  0.00     0.115 A 
HETATM    5 Cl   UNK N   1      30.188  15.405   4.619  0.00  0.00    -0.064 Cl
HETATM    6  C   UNK N   1      31.706  16.747   6.496  0.00  0.00     0.015 A 
HETATM    7  C   UNK N   1      30.699  17.897   8.390  0.00  0.00     0.109 A 
HETATM    8  C   UNK N   1      31.839  17.520   7.669  0.00  0.00     0.013 A 
HETATM    9  C   UNK N   1      33.114  17.906   8.105  0.00  0.00     0.015 A 
HETATM   10  C   UNK N   1      34.248  17.528   7.383  0.00  0.00     0.001 A 
HETATM   11  C   UNK N   1      34.117  16.763   6.222  0.00  0.00     0.001 A 
HETATM   12  C   UNK N   1      32.851  16.373   5.778  0.00  0.00     0.015 A 
ENDROOT
BRANCH   1  13
HETATM   13  C   UNK N   1      28.175  17.881   8.679  0.00  0.00     0.271 C 
HETATM   14  N   UNK N   1      27.416  18.957   8.343  0.00  0.00    -0.346 N 
HETATM   15  H   UNK N   1      26.613  19.139   8.882  0.00  0.00     0.163 HD
HETATM   16  O   UNK N   1      27.817  17.205   9.631  0.00  0.00    -0.266 OA
BRANCH  14  17
HETATM   17  C   UNK N   1      27.706  19.849   7.247  0.00  0.00     0.232 C 
BRANCH  17  18
HETATM   18  C   UNK N   1      26.692  20.940   7.143  0.00  0.00     0.158 C 
HETATM   19  O   UNK N   1      26.657  21.676   6.169  0.00  0.00    -0.649 OA
BRANCH  18  20
HETATM   20  O   UNK N   1      25.804  21.110   8.140  0.00  0.00    -0.775 OA
HETATM   21  H   UNK N   1      25.305  21.902   8.193  0.00  0.00     0.167 HD
ENDBRANCH  18  20
ENDBRANCH  17  18
ENDBRANCH  14  17
ENDBRANCH   1  13
BRANCH   7  22
HETATM   22  O   UNK N   1      30.834  18.635   9.510  0.00  0.00    -0.357 OA
HETATM   23  H   UNK N   1      31.246  19.475   9.471  0.00  0.00     0.217 HD
ENDBRANCH   7  22
TORSDOF 5
ENDMDL
MODEL 6
REMARK VINA RESULT:      -6.1      2.566      3.931
REMARK  5 active torsions:
REMARK  status: ('A' for Active; 'I' for Inactive)
REMARK    1  A    between atoms: C_2  and  O_3 
REMARK    2  A    between atoms: C_2  and  C_4 
REMARK    3  A    between atoms: C_4  and  N_5 
REMARK       I    between atoms: N_5  and  C_6 
REMARK    4  A    between atoms: C_6  and  C_8 
REMARK    5  A    between atoms: C_14  and  O_15 
ROOT
HETATM    1  C   UNK N   1      31.358  16.089   6.903  0.00  0.00     0.136 A 
HETATM    2  N   UNK N   1      30.965  16.005   5.599  0.00  0.00    -0.339 N 
ATOM      3  HN  UNK N   1      31.458  15.358   4.984  1.00  0.00     0.167 HD
HETATM    4  C   UNK N   1      29.948  16.742   5.081  0.00  0.00     0.115 A 
HETATM    5 Cl   UNK N   1      29.532  16.546   3.382  0.00  0.00    -0.064 Cl
HETATM    6  C   UNK N   1      29.253  17.639   5.903  0.00  0.00     0.015 A 
HETATM    7  C   UNK N   1      30.681  16.983   7.762  0.00  0.00     0.109 A 
HETATM    8  C   UNK N   1      29.628  17.756   7.258  0.00  0.00     0.013 A 
HETATM    9  C   UNK N   1      28.941  18.649   8.093  0.00  0.00     0.015 A 
HETATM   10  C   UNK N   1      27.892  19.419   7.587  0.00  0.00     0.001 A 
HETATM   11  C   UNK N   1      27.520  19.303   6.246  0.00  0.00     0.001 A 
HETATM   12  C   UNK N   1      28.198  18.416   5.405  0.00  0.00     0.015 A 
ENDROOT
BRANCH   1  13
HETATM   13  C   UNK N   1      32.495  15.240   7.405  0.00  0.00     0.271 C 
HETATM   14  N   UNK N   1      33.767  15.704   7.522  0.00  0.00    -0.346 N 
HETATM   15  H   UNK N   1      34.453  15.084   7.858  0.00  0.00     0.163 HD
HETATM   16  O   UNK N   1      32.278  14.082   7.726  0.00  0.00    -0.266 OA
BRANCH  14  17
HETATM   17  C   UNK N   1      34.180  17.044   7.184  0.00  0.00     0.232 C 
BRANCH  17  18
HETATM   18  C   UNK N   1      34.422  17.868   8.406  0.00  0.00     0.158 C 
HETATM   19  O   UNK N   1      34.973  18.955   8.332  0.00  0.00    -0.649 OA
BRANCH  18  20
HETATM   20  O   UNK N   1      34.025  17.401   9.604  0.00  0.00    -0.775 OA
HETATM   21  H   UNK N   1      34.650  17.287  10.293  0.00  0.00     0.167 HD
ENDBRANCH  18  20
ENDBRANCH  17  18
ENDBRANCH  14  17
ENDBRANCH   1  13
BRANCH   7  22
HETATM   22  O   UNK N   1      31.033  17.100   9.057  0.00  0.00    -0.357 OA
HETATM   23  H   UNK N   1      31.252  17.940   9.409  0.00  0.00     0.217 HD
ENDBRANCH   7  22
TORSDOF 5
ENDMDL
MODEL 7
REMARK VINA RESULT:      -6.1      4.342      7.999
REMARK  5 active torsions:
REMARK  status: ('A' for Active; 'I' for Inactive)
REMARK    1  A    between atoms: C_2  and  O_3 
REMARK    2  A    between atoms: C_2  and  C_4 
REMARK    3  A    between atoms: C_4  and  N_5 
REMARK       I    between atoms: N_5  and  C_6 
REMARK    4  A    between atoms: C_6  and  C_8 
REMARK    5  A    between atoms: C_14  and  O_15 
ROOT
HETATM    1  C   UNK N   1      36.341  13.802  11.921  0.00  0.00     0.136 A 
HETATM    2  N   UNK N   1      36.810  14.385  13.063  0.00  0.00    -0.339 N 
ATOM      3  HN  UNK N   1      37.447  15.176  12.978  1.00  0.00     0.167 HD
HETATM    4  C   UNK N   1      36.466  13.961  14.307  0.00  0.00     0.115 A 
HETATM    5 Cl   UNK N   1      37.134  14.794  15.706  0.00  0.00    -0.064 Cl
HETATM    6  C   UNK N   1      35.591  12.876  14.453  0.00  0.00     0.015 A 
HETATM    7  C   UNK N   1      35.458  12.706  12.029  0.00  0.00     0.109 A 
HETATM    8  C   UNK N   1      35.084  12.245  13.298  0.00  0.00     0.013 A 
HETATM    9  C   UNK N   1      34.209  11.158  13.429  0.00  0.00     0.015 A 
HETATM   10  C   UNK N   1      33.839  10.702  14.695  0.00  0.00     0.001 A 
HETATM   11  C   UNK N   1      34.340  11.326  15.839  0.00  0.00     0.001 A 
HETATM   12  C   UNK N   1      35.214  12.411  15.721  0.00  0.00     0.015 A 
ENDROOT
BRANCH   1  13
HETATM   13  C   UNK N   1      36.767  14.327  10.576  0.00  0.00     0.271 C 
HETATM   14  N   UNK N   1      36.001  15.174   9.838  0.00  0.00    -0.346 N 
HETATM   15  H   UNK N   1      36.353  15.471   8.969  0.00  0.00     0.163 HD
HETATM   16  O   UNK N   1      37.846  13.986  10.116  0.00  0.00    -0.266 OA
BRANCH  14  17
HETATM   17  C   UNK N   1      34.708  15.666  10.244  0.00  0.00     0.232 C 
BRANCH  17  18
HETATM   18  C   UNK N   1      34.388  16.972   9.593  0.00  0.00     0.158 C 
HETATM   19  O   UNK N   1      35.231  17.849   9.494  0.00  0.00    -0.649 OA
BRANCH  18  20
HETATM   20  O   UNK N   1      33.149  17.179   9.110  0.00  0.00    -0.775 OA
HETATM   21  H   UNK N   1      33.011  17.239   8.184  0.00  0.00     0.167 HD
ENDBRANCH  18  20
ENDBRANCH  17  18
ENDBRANCH  14  17
ENDBRANCH   1  13
BRANCH   7  22
HETATM   22  O   UNK N   1      34.970  12.098  10.930  0.00  0.00    -0.357 OA
HETATM   23  H   UNK N   1      34.769  12.601  10.166  0.00  0.00     0.217 HD
ENDBRANCH   7  22
TORSDOF 5
ENDMDL
MODEL 8
REMARK VINA RESULT:      -6.0      5.944      9.587
REMARK  5 active torsions:
REMARK  status: ('A' for Active; 'I' for Inactive)
REMARK    1  A    between atoms: C_2  and  O_3 
REMARK    2  A    between atoms: C_2  and  C_4 
REMARK    3  A    between atoms: C_4  and  N_5 
REMARK       I    between atoms: N_5  and  C_6 
REMARK    4  A    between atoms: C_6  and  C_8 
REMARK    5  A    between atoms: C_14  and  O_15 
ROOT
HETATM    1  C   UNK N   1      36.530  12.293  13.680  0.00  0.00     0.136 A 
HETATM    2  N   UNK N   1      36.158  11.078  14.182  0.00  0.00    -0.339 N 
ATOM      3  HN  UNK N   1      36.198  10.266  13.567  1.00  0.00     0.167 HD
HETATM    4  C   UNK N   1      35.737  10.902  15.461  0.00  0.00     0.115 A 
HETATM    5 Cl   UNK N   1      35.284   9.287  15.993  0.00  0.00    -0.064 Cl
HETATM    6  C   UNK N   1      35.672  12.001  16.328  0.00  0.00     0.015 A 
HETATM    7  C   UNK N   1      36.478  13.423  14.525  0.00  0.00     0.109 A 
HETATM    8  C   UNK N   1      36.048  13.274  15.849  0.00  0.00     0.013 A 
HETATM    9  C   UNK N   1      35.988  14.382  16.705  0.00  0.00     0.015 A 
HETATM   10  C   UNK N   1      35.559  14.229  18.025  0.00  0.00     0.001 A 
HETATM   11  C   UNK N   1      35.187  12.970  18.500  0.00  0.00     0.001 A 
HETATM   12  C   UNK N   1      35.243  11.857  17.655  0.00  0.00     0.015 A 
ENDROOT
BRANCH   1  13
HETATM   13  C   UNK N   1      36.986  12.411  12.251  0.00  0.00     0.271 C 
HETATM   14  N   UNK N   1      36.164  12.809  11.244  0.00  0.00    -0.346 N 
HETATM   15  H   UNK N   1      36.541  12.860  10.337  0.00  0.00     0.163 HD
HETATM   16  O   UNK N   1      38.143  12.140  11.969  0.00  0.00    -0.266 OA
BRANCH  14  17
HETATM   17  C   UNK N   1      34.776  13.162  11.417  0.00  0.00     0.232 C 
BRANCH  17  18
HETATM   18  C   UNK N   1      34.575  14.641  11.364  0.00  0.00     0.158 C 
HETATM   19  O   UNK N   1      35.509  15.409  11.531  0.00  0.00    -0.649 OA
BRANCH  18  20
HETATM   20  O   UNK N   1      33.343  15.129  11.130  0.00  0.00    -0.775 OA
HETATM   21  H   UNK N   1      32.913  14.946  10.317  0.00  0.00     0.167 HD
ENDBRANCH  18  20
ENDBRANCH  17  18
ENDBRANCH  14  17
ENDBRANCH   1  13
BRANCH   7  22
HETATM   22  O   UNK N   1      36.835  14.642  14.075  0.00  0.00    -0.357 OA
HETATM   23  H   UNK N   1      36.206  15.185  13.643  0.00  0.00     0.217 HD
ENDBRANCH   7  22
TORSDOF 5
ENDMDL
MODEL 9
REMARK VINA RESULT:      -5.9      4.373      6.670
REMARK  5 active torsions:
REMARK  status: ('A' for Active; 'I' for Inactive)
REMARK    1  A    between atoms: C_2  and  O_3 
REMARK    2  A    between atoms: C_2  and  C_4 
REMARK    3  A    between atoms: C_4  and  N_5 
REMARK       I    between atoms: N_5  and  C_6 
REMARK    4  A    between atoms: C_6  and  C_8 
REMARK    5  A    between atoms: C_14  and  O_15 
ROOT
HETATM    1  C   UNK N   1      29.140  17.169   5.937  0.00  0.00     0.136 A 
HETATM    2  N   UNK N   1      29.844  17.078   4.771  0.00  0.00    -0.339 N 
ATOM      3  HN  UNK N   1      29.329  16.947   3.901  1.00  0.00     0.167 HD
HETATM    4  C   UNK N   1      31.199  17.153   4.716  0.00  0.00     0.115 A 
HETATM    5 Cl   UNK N   1      31.997  17.022   3.152  0.00  0.00    -0.064 Cl
HETATM    6  C   UNK N   1      31.933  17.332   5.896  0.00  0.00     0.015 A 
HETATM    7  C   UNK N   1      29.845  17.350   7.146  0.00  0.00     0.109 A 
HETATM    8  C   UNK N   1      31.243  17.431   7.123  0.00  0.00     0.013 A 
HETATM    9  C   UNK N   1      31.963  17.611   8.311  0.00  0.00     0.015 A 
HETATM   10  C   UNK N   1      33.357  17.691   8.284  0.00  0.00     0.001 A 
HETATM   11  C   UNK N   1      34.041  17.594   7.070  0.00  0.00     0.001 A 
HETATM   12  C   UNK N   1      33.333  17.415   5.878  0.00  0.00     0.015 A 
ENDROOT
BRANCH   1  13
HETATM   13  C   UNK N   1      27.637  17.076   5.919  0.00  0.00     0.271 C 
HETATM   14  N   UNK N   1      26.832  18.161   5.769  0.00  0.00    -0.346 N 
HETATM   15  H   UNK N   1      25.860  18.015   5.768  0.00  0.00     0.163 HD
HETATM   16  O   UNK N   1      27.105  15.984   6.045  0.00  0.00    -0.266 OA
BRANCH  14  17
HETATM   17  C   UNK N   1      27.309  19.513   5.610  0.00  0.00     0.232 C 
BRANCH  17  18
HETATM   18  C   UNK N   1      27.073  20.327   6.840  0.00  0.00     0.158 C 
HETATM   19  O   UNK N   1      26.796  21.514   6.765  0.00  0.00    -0.649 OA
BRANCH  18  20
HETATM   20  O   UNK N   1      27.168  19.739   8.046  0.00  0.00    -0.775 OA
HETATM   21  H   UNK N   1      26.747  18.916   8.201  0.00  0.00     0.167 HD
ENDBRANCH  18  20
ENDBRANCH  17  18
ENDBRANCH  14  17
ENDBRANCH   1  13
BRANCH   7  22
HETATM   22  O   UNK N   1      29.193  17.445   8.322  0.00  0.00    -0.357 OA
HETATM   23  H   UNK N   1      29.555  17.055   9.092  0.00  0.00     0.217 HD
ENDBRANCH   7  22
TORSDOF 5
ENDMDL
