REMARK  5 active torsions:
REMARK  status: ('A' for Active; 'I' for Inactive)
REMARK    1  A    between atoms: C_2  and  O_3 
REMARK    2  A    between atoms: C_2  and  C_4 
REMARK    3  A    between atoms: C_4  and  N_5 
REMARK       I    between atoms: N_5  and  C_6 
REMARK    4  A    between atoms: C_6  and  C_8 
REMARK    5  A    between atoms: C_14  and  O_15 
ROOT
HETATM    1  C   UNK N   1      -0.566   0.458   0.000  0.00  0.00     0.136 A 
HETATM    2  N   UNK N   1      -0.741  -0.896   0.000  0.00  0.00    -0.339 N 
ATOM      3  HN  UNK N   1      -1.692  -1.263   0.000  1.00  0.00     0.167 HD
HETATM    4  C   UNK N   1       0.293  -1.777   0.000  0.00  0.00     0.115 A 
HETATM    5 Cl   UNK N   1      -0.058  -3.502   0.000  0.00  0.00    -0.064 Cl
HETATM    6  C   UNK N   1       1.611  -1.301   0.000  0.00  0.00     0.015 A 
HETATM    7  C   UNK N   1       0.748   0.975   0.000  0.00  0.00     0.109 A 
HETATM    8  C   UNK N   1       1.835   0.092   0.000  0.00  0.00     0.013 A 
HETATM    9  C   UNK N   1       3.148   0.583   0.000  0.00  0.00     0.015 A 
HETATM   10  C   UNK N   1       4.229  -0.300  -0.000  0.00  0.00     0.001 A 
HETATM   11  C   UNK N   1       4.008  -1.679  -0.000  0.00  0.00     0.001 A 
HETATM   12  C   UNK N   1       2.703  -2.180  -0.000  0.00  0.00     0.015 A 
ENDROOT
BRANCH   1  13
HETATM   13  C   UNK N   1      -1.761   1.373   0.000  0.00  0.00     0.271 C 
HETATM   14  N   UNK N   1      -3.041   0.916  -0.000  0.00  0.00    -0.346 N 
HETATM   15  H   UNK N   1      -3.766   1.581  -0.000  0.00  0.00     0.163 HD
HETATM   16  O   UNK N   1      -1.587   2.582   0.000  0.00  0.00    -0.266 OA
BRANCH  14  17
HETATM   17  C   UNK N   1      -3.408  -0.479  -0.000  0.00  0.00     0.232 C 
BRANCH  17  18
HETATM   18  C   UNK N   1      -4.891  -0.657  -0.000  0.00  0.00     0.158 C 
HETATM   19  O   UNK N   1      -5.640   0.307   0.000  0.00  0.00    -0.649 OA
BRANCH  18  20
HETATM   20  O   UNK N   1      -5.404  -1.901   0.000  0.00  0.00    -0.775 OA
HETATM   21  H   UNK N   1      -6.333  -2.025   0.000  0.00  0.00     0.167 HD
ENDBRANCH  18  20
ENDBRANCH  17  18
ENDBRANCH  14  17
ENDBRANCH   1  13
BRANCH   7  22
HETATM   22  O   UNK N   1       0.970   2.304   0.000  0.00  0.00    -0.357 OA
HETATM   23  H   UNK N   1       1.847   2.633   0.000  0.00  0.00     0.217 HD
ENDBRANCH   7  22
TORSDOF 5
