MODEL 1
REMARK VINA RESULT:      -7.3      0.000      0.000
REMARK  1 active torsions:
REMARK  status: ('A' for Active; 'I' for Inactive)
REMARK    1  A    between atoms: C_17  and  O_20 
ROOT
HETATM    1  C   UNK N   1      25.942  28.990  -3.690  0.00  0.00     0.084 C 
HETATM    2  C   UNK N   1      27.042  29.871  -4.244  0.00  0.00     0.149 C 
HETATM    3  C   UNK N   1      27.664  29.550  -5.549  0.00  0.00     0.053 C 
HETATM    4  C   UNK N   1      27.525  28.322  -6.070  0.00  0.00    -0.072 C 
HETATM    5  C   UNK N   1      26.847  27.244  -5.228  0.00  0.00     0.019 C 
HETATM    6  C   UNK N   1      25.563  27.848  -4.658  0.00  0.00     0.017 C 
HETATM    7  C   UNK N   1      27.933  28.110  -7.514  0.00  0.00     0.035 C 
HETATM    8  C   UNK N   1      27.495  26.777  -8.147  0.00  0.00     0.010 C 
HETATM    9  C   UNK N   1      26.245  26.192  -7.479  0.00  0.00    -0.005 C 
HETATM   10  C   UNK N   1      26.648  25.933  -6.005  0.00  0.00    -0.002 C 
HETATM   11  C   UNK N   1      25.729  24.886  -8.141  0.00  0.00     0.001 C 
HETATM   12  C   UNK N   1      26.236  23.598  -7.503  0.00  0.00    -0.014 C 
HETATM   13  C   UNK N   1      25.749  23.525  -6.035  0.00  0.00     0.012 C 
HETATM   14  C   UNK N   1      25.746  24.900  -5.307  0.00  0.00     0.006 C 
HETATM   15  C   UNK N   1      25.946  24.687  -9.633  0.00  0.00     0.008 C 
HETATM   16  C   UNK N   1      25.843  23.163  -9.829  0.00  0.00     0.033 C 
HETATM   17  C   UNK N   1      25.656  22.538  -8.436  0.00  0.00     0.126 C 
HETATM   18  O   UNK N   1      27.373  30.880  -3.645  0.00  0.00    -0.293 OA
HETATM   19  C   UNK N   1      27.762  23.465  -7.550  0.00  0.00     0.018 C 
ENDROOT
BRANCH  17  20
HETATM   20  O   UNK N   1      24.284  22.370  -8.213  0.00  0.00    -0.395 OA
HETATM   21  H   UNK N   1      23.375  22.477  -8.534  0.00  0.00     0.210 HD
ENDBRANCH  17  20
TORSDOF 1
ENDMDL
MODEL 2
REMARK VINA RESULT:      -7.0      4.845      6.552
REMARK  1 active torsions:
REMARK  status: ('A' for Active; 'I' for Inactive)
REMARK    1  A    between atoms: C_17  and  O_20 
ROOT
HETATM    1  C   UNK N   1      26.251  25.181  -4.031  0.00  0.00     0.084 C 
HETATM    2  C   UNK N   1      25.749  24.966  -5.445  0.00  0.00     0.149 C 
HETATM    3  C   UNK N   1      26.419  23.986  -6.330  0.00  0.00     0.053 C 
HETATM    4  C   UNK N   1      27.654  23.554  -6.032  0.00  0.00    -0.072 C 
HETATM    5  C   UNK N   1      28.391  24.200  -4.862  0.00  0.00     0.019 C 
HETATM    6  C   UNK N   1      27.425  24.242  -3.678  0.00  0.00     0.017 C 
HETATM    7  C   UNK N   1      28.195  22.362  -6.796  0.00  0.00     0.035 C 
HETATM    8  C   UNK N   1      29.482  21.733  -6.233  0.00  0.00     0.010 C 
HETATM    9  C   UNK N   1      29.646  21.978  -4.728  0.00  0.00    -0.005 C 
HETATM   10  C   UNK N   1      29.735  23.517  -4.568  0.00  0.00    -0.002 C 
HETATM   11  C   UNK N   1      30.894  21.292  -4.110  0.00  0.00     0.001 C 
HETATM   12  C   UNK N   1      32.136  22.171  -4.026  0.00  0.00    -0.014 C 
HETATM   13  C   UNK N   1      31.846  23.383  -3.107  0.00  0.00     0.012 C 
HETATM   14  C   UNK N   1      30.403  23.947  -3.250  0.00  0.00     0.006 C 
HETATM   15  C   UNK N   1      31.387  19.987  -4.716  0.00  0.00     0.008 C 
HETATM   16  C   UNK N   1      32.859  19.897  -4.271  0.00  0.00     0.033 C 
HETATM   17  C   UNK N   1      33.180  21.189  -3.500  0.00  0.00     0.126 C 
HETATM   18  O   UNK N   1      24.754  25.555  -5.833  0.00  0.00    -0.293 OA
HETATM   19  C   UNK N   1      32.617  22.662  -5.395  0.00  0.00     0.018 C 
ENDROOT
BRANCH  17  20
HETATM   20  O   UNK N   1      32.992  20.940  -2.136  0.00  0.00    -0.395 OA
HETATM   21  H   UNK N   1      33.202  21.169  -1.217  0.00  0.00     0.210 HD
ENDBRANCH  17  20
TORSDOF 1
ENDMDL
MODEL 3
REMARK VINA RESULT:      -6.8      1.055      6.455
REMARK  1 active torsions:
REMARK  status: ('A' for Active; 'I' for Inactive)
REMARK    1  A    between atoms: C_17  and  O_20 
ROOT
HETATM    1  C   UNK N   1      25.492  24.292  -9.360  0.00  0.00     0.084 C 
HETATM    2  C   UNK N   1      25.376  23.024  -8.539  0.00  0.00     0.149 C 
HETATM    3  C   UNK N   1      25.484  23.082  -7.064  0.00  0.00     0.053 C 
HETATM    4  C   UNK N   1      26.027  24.158  -6.476  0.00  0.00    -0.072 C 
HETATM    5  C   UNK N   1      26.653  25.234  -7.360  0.00  0.00     0.019 C 
HETATM    6  C   UNK N   1      25.657  25.548  -8.476  0.00  0.00     0.017 C 
HETATM    7  C   UNK N   1      25.874  24.304  -4.976  0.00  0.00     0.035 C 
HETATM    8  C   UNK N   1      26.259  25.676  -4.392  0.00  0.00     0.010 C 
HETATM    9  C   UNK N   1      26.124  26.809  -5.417  0.00  0.00    -0.005 C 
HETATM   10  C   UNK N   1      27.118  26.457  -6.553  0.00  0.00    -0.002 C 
HETATM   11  C   UNK N   1      26.430  28.219  -4.843  0.00  0.00     0.001 C 
HETATM   12  C   UNK N   1      27.864  28.695  -5.037  0.00  0.00    -0.014 C 
HETATM   13  C   UNK N   1      28.170  28.802  -6.550  0.00  0.00     0.012 C 
HETATM   14  C   UNK N   1      27.517  27.676  -7.404  0.00  0.00     0.006 C 
HETATM   15  C   UNK N   1      26.129  28.492  -3.378  0.00  0.00     0.008 C 
HETATM   16  C   UNK N   1      27.020  29.698  -3.029  0.00  0.00     0.033 C 
HETATM   17  C   UNK N   1      27.860  30.019  -4.277  0.00  0.00     0.126 C 
HETATM   18  O   UNK N   1      25.130  21.964  -9.090  0.00  0.00    -0.293 OA
HETATM   19  C   UNK N   1      28.896  27.783  -4.363  0.00  0.00     0.018 C 
ENDROOT
BRANCH  17  20
HETATM   20  O   UNK N   1      27.196  31.013  -5.005  0.00  0.00    -0.395 OA
HETATM   21  H   UNK N   1      26.373  31.487  -5.197  0.00  0.00     0.210 HD
ENDBRANCH  17  20
TORSDOF 1
ENDMDL
MODEL 4
REMARK VINA RESULT:      -6.8     26.293     27.644
REMARK  1 active torsions:
REMARK  status: ('A' for Active; 'I' for Inactive)
REMARK    1  A    between atoms: C_17  and  O_20 
ROOT
HETATM    1  C   UNK N   1      37.103  15.587  16.412  0.00  0.00     0.084 C 
HETATM    2  C   UNK N   1      36.278  15.447  17.674  0.00  0.00     0.149 C 
HETATM    3  C   UNK N   1      35.597  14.169  17.979  0.00  0.00     0.053 C 
HETATM    4  C   UNK N   1      35.406  13.266  17.006  0.00  0.00    -0.072 C 
HETATM    5  C   UNK N   1      35.771  13.648  15.574  0.00  0.00     0.019 C 
HETATM    6  C   UNK N   1      37.167  14.270  15.607  0.00  0.00     0.017 C 
HETATM    7  C   UNK N   1      34.960  11.873  17.403  0.00  0.00     0.035 C 
HETATM    8  C   UNK N   1      35.029  10.805  16.297  0.00  0.00     0.010 C 
HETATM    9  C   UNK N   1      36.077  11.135  15.227  0.00  0.00    -0.005 C 
HETATM   10  C   UNK N   1      35.615  12.473  14.596  0.00  0.00    -0.002 C 
HETATM   11  C   UNK N   1      36.229  10.041  14.135  0.00  0.00     0.001 C 
HETATM   12  C   UNK N   1      35.396  10.266  12.879  0.00  0.00    -0.014 C 
HETATM   13  C   UNK N   1      35.842  11.582  12.196  0.00  0.00     0.012 C 
HETATM   14  C   UNK N   1      36.209  12.716  13.197  0.00  0.00     0.006 C 
HETATM   15  C   UNK N   1      35.972   8.591  14.512  0.00  0.00     0.008 C 
HETATM   16  C   UNK N   1      35.666   7.901  13.169  0.00  0.00     0.033 C 
HETATM   17  C   UNK N   1      35.676   8.992  12.086  0.00  0.00     0.126 C 
HETATM   18  O   UNK N   1      36.226  16.369  18.471  0.00  0.00    -0.293 OA
HETATM   19  C   UNK N   1      33.890  10.311  13.157  0.00  0.00     0.018 C 
ENDROOT
BRANCH  17  20
HETATM   20  O   UNK N   1      36.953   9.028  11.514  0.00  0.00    -0.395 OA
HETATM   21  H   UNK N   1      37.790   9.500  11.389  0.00  0.00     0.210 HD
ENDBRANCH  17  20
TORSDOF 1
ENDMDL
MODEL 5
REMARK VINA RESULT:      -6.7     26.389     27.743
REMARK  1 active torsions:
REMARK  status: ('A' for Active; 'I' for Inactive)
REMARK    1  A    between atoms: C_17  and  O_20 
ROOT
HETATM    1  C   UNK N   1      35.382  14.611  18.320  0.00  0.00     0.084 C 
HETATM    2  C   UNK N   1      34.978  13.435  19.185  0.00  0.00     0.149 C 
HETATM    3  C   UNK N   1      35.158  12.051  18.690  0.00  0.00     0.053 C 
HETATM    4  C   UNK N   1      35.335  11.830  17.378  0.00  0.00    -0.072 C 
HETATM    5  C   UNK N   1      35.200  13.007  16.415  0.00  0.00     0.019 C 
HETATM    6  C   UNK N   1      36.019  14.164  16.986  0.00  0.00     0.017 C 
HETATM    7  C   UNK N   1      35.785  10.450  16.943  0.00  0.00     0.035 C 
HETATM    8  C   UNK N   1      36.244  10.325  15.479  0.00  0.00     0.010 C 
HETATM    9  C   UNK N   1      36.760  11.653  14.910  0.00  0.00    -0.005 C 
HETATM   10  C   UNK N   1      35.553  12.623  14.970  0.00  0.00    -0.002 C 
HETATM   11  C   UNK N   1      37.304  11.548  13.459  0.00  0.00     0.001 C 
HETATM   12  C   UNK N   1      36.294  11.883  12.368  0.00  0.00    -0.014 C 
HETATM   13  C   UNK N   1      35.840  13.355  12.522  0.00  0.00     0.012 C 
HETATM   14  C   UNK N   1      35.688  13.812  14.002  0.00  0.00     0.006 C 
HETATM   15  C   UNK N   1      37.938  10.241  13.009  0.00  0.00     0.008 C 
HETATM   16  C   UNK N   1      37.846  10.288  11.472  0.00  0.00     0.033 C 
HETATM   17  C   UNK N   1      37.089  11.575  11.102  0.00  0.00     0.126 C 
HETATM   18  O   UNK N   1      34.563  13.626  20.316  0.00  0.00    -0.293 OA
HETATM   19  C   UNK N   1      35.071  10.959  12.378  0.00  0.00     0.018 C 
ENDROOT
BRANCH  17  20
HETATM   20  O   UNK N   1      38.032  12.577  10.845  0.00  0.00    -0.395 OA
HETATM   21  H   UNK N   1      38.606  13.279  11.187  0.00  0.00     0.210 HD
ENDBRANCH  17  20
TORSDOF 1
ENDMDL
MODEL 6
REMARK VINA RESULT:      -6.7     28.871     30.444
REMARK  1 active torsions:
REMARK  status: ('A' for Active; 'I' for Inactive)
REMARK    1  A    between atoms: C_17  and  O_20 
ROOT
HETATM    1  C   UNK N   1      35.513   9.659  21.456  0.00  0.00     0.084 C 
HETATM    2  C   UNK N   1      35.096   8.234  21.151  0.00  0.00     0.149 C 
HETATM    3  C   UNK N   1      35.085   7.747  19.753  0.00  0.00     0.053 C 
HETATM    4  C   UNK N   1      35.092   8.627  18.740  0.00  0.00    -0.072 C 
HETATM    5  C   UNK N   1      34.964  10.113  19.063  0.00  0.00     0.019 C 
HETATM    6  C   UNK N   1      35.951  10.424  20.189  0.00  0.00     0.017 C 
HETATM    7  C   UNK N   1      35.355   8.102  17.343  0.00  0.00     0.035 C 
HETATM    8  C   UNK N   1      35.634   9.168  16.268  0.00  0.00     0.010 C 
HETATM    9  C   UNK N   1      36.208  10.462  16.858  0.00  0.00    -0.005 C 
HETATM   10  C   UNK N   1      35.115  10.998  17.816  0.00  0.00    -0.002 C 
HETATM   11  C   UNK N   1      36.574  11.532  15.794  0.00  0.00     0.001 C 
HETATM   12  C   UNK N   1      35.486  12.562  15.518  0.00  0.00    -0.014 C 
HETATM   13  C   UNK N   1      35.196  13.363  16.811  0.00  0.00     0.012 C 
HETATM   14  C   UNK N   1      35.255  12.503  18.107  0.00  0.00     0.006 C 
HETATM   15  C   UNK N   1      37.024  11.070  14.417  0.00  0.00     0.008 C 
HETATM   16  C   UNK N   1      36.765  12.287  13.508  0.00  0.00     0.033 C 
HETATM   17  C   UNK N   1      36.100  13.368  14.376  0.00  0.00     0.126 C 
HETATM   18  O   UNK N   1      34.830   7.470  22.063  0.00  0.00    -0.293 OA
HETATM   19  C   UNK N   1      34.188  11.939  14.992  0.00  0.00     0.018 C 
ENDROOT
BRANCH  17  20
HETATM   20  O   UNK N   1      37.101  14.225  14.849  0.00  0.00    -0.395 OA
HETATM   21  H   UNK N   1      37.853  14.369  15.444  0.00  0.00     0.210 HD
ENDBRANCH  17  20
TORSDOF 1
ENDMDL
MODEL 7
REMARK VINA RESULT:      -6.7      4.067      6.285
REMARK  1 active torsions:
REMARK  status: ('A' for Active; 'I' for Inactive)
REMARK    1  A    between atoms: C_17  and  O_20 
ROOT
HETATM    1  C   UNK N   1      30.870  22.219  -2.724  0.00  0.00     0.084 C 
HETATM    2  C   UNK N   1      32.062  22.390  -3.644  0.00  0.00     0.149 C 
HETATM    3  C   UNK N   1      32.199  23.616  -4.461  0.00  0.00     0.053 C 
HETATM    4  C   UNK N   1      31.132  24.403  -4.669  0.00  0.00    -0.072 C 
HETATM    5  C   UNK N   1      29.769  23.930  -4.172  0.00  0.00     0.019 C 
HETATM    6  C   UNK N   1      29.946  23.456  -2.729  0.00  0.00     0.017 C 
HETATM    7  C   UNK N   1      31.365  25.774  -5.270  0.00  0.00     0.035 C 
HETATM    8  C   UNK N   1      30.165  26.739  -5.226  0.00  0.00     0.010 C 
HETATM    9  C   UNK N   1      29.197  26.419  -4.080  0.00  0.00    -0.005 C 
HETATM   10  C   UNK N   1      28.674  24.990  -4.369  0.00  0.00    -0.002 C 
HETATM   11  C   UNK N   1      28.015  27.418  -3.956  0.00  0.00     0.001 C 
HETATM   12  C   UNK N   1      26.740  26.997  -4.676  0.00  0.00    -0.014 C 
HETATM   13  C   UNK N   1      26.216  25.676  -4.062  0.00  0.00     0.012 C 
HETATM   14  C   UNK N   1      27.343  24.681  -3.661  0.00  0.00     0.006 C 
HETATM   15  C   UNK N   1      28.233  28.864  -4.375  0.00  0.00     0.008 C 
HETATM   16  C   UNK N   1      26.813  29.394  -4.650  0.00  0.00     0.033 C 
HETATM   17  C   UNK N   1      25.844  28.215  -4.464  0.00  0.00     0.126 C 
HETATM   18  O   UNK N   1      32.940  21.544  -3.663  0.00  0.00    -0.293 OA
HETATM   19  C   UNK N   1      26.931  26.827  -6.187  0.00  0.00     0.018 C 
ENDROOT
BRANCH  17  20
HETATM   20  O   UNK N   1      25.355  28.256  -3.152  0.00  0.00    -0.395 OA
HETATM   21  H   UNK N   1      24.598  28.195  -2.550  0.00  0.00     0.210 HD
ENDBRANCH  17  20
TORSDOF 1
ENDMDL
MODEL 8
REMARK VINA RESULT:      -6.7     26.944     28.305
REMARK  1 active torsions:
REMARK  status: ('A' for Active; 'I' for Inactive)
REMARK    1  A    between atoms: C_17  and  O_20 
ROOT
HETATM    1  C   UNK N   1      35.259  10.973  19.234  0.00  0.00     0.084 C 
HETATM    2  C   UNK N   1      35.290  12.483  19.119  0.00  0.00     0.149 C 
HETATM    3  C   UNK N   1      35.124  13.131  17.798  0.00  0.00     0.053 C 
HETATM    4  C   UNK N   1      35.300  12.416  16.677  0.00  0.00    -0.072 C 
HETATM    5  C   UNK N   1      35.812  10.983  16.799  0.00  0.00     0.019 C 
HETATM    6  C   UNK N   1      34.980  10.289  17.878  0.00  0.00     0.017 C 
HETATM    7  C   UNK N   1      34.859  13.029  15.364  0.00  0.00     0.035 C 
HETATM    8  C   UNK N   1      34.818  12.074  14.157  0.00  0.00     0.010 C 
HETATM    9  C   UNK N   1      34.613  10.612  14.572  0.00  0.00    -0.005 C 
HETATM   10  C   UNK N   1      35.842  10.255  15.446  0.00  0.00    -0.002 C 
HETATM   11  C   UNK N   1      34.489   9.628  13.378  0.00  0.00     0.001 C 
HETATM   12  C   UNK N   1      35.791   8.954  12.962  0.00  0.00    -0.014 C 
HETATM   13  C   UNK N   1      36.323   8.096  14.135  0.00  0.00     0.012 C 
HETATM   14  C   UNK N   1      36.099   8.740  15.534  0.00  0.00     0.006 C 
HETATM   15  C   UNK N   1      33.884  10.131  12.076  0.00  0.00     0.008 C 
HETATM   16  C   UNK N   1      34.406   9.147  11.013  0.00  0.00     0.033 C 
HETATM   17  C   UNK N   1      35.356   8.170  11.726  0.00  0.00     0.126 C 
HETATM   18  O   UNK N   1      35.389  13.168  20.124  0.00  0.00    -0.293 OA
HETATM   19  C   UNK N   1      36.867   9.950  12.518  0.00  0.00     0.018 C 
ENDROOT
BRANCH  17  20
HETATM   20  O   UNK N   1      34.624   7.033  12.085  0.00  0.00    -0.395 OA
HETATM   21  H   UNK N   1      33.798   6.528  12.025  0.00  0.00     0.210 HD
ENDBRANCH  17  20
TORSDOF 1
ENDMDL
MODEL 9
REMARK VINA RESULT:      -6.6     28.406     29.938
REMARK  1 active torsions:
REMARK  status: ('A' for Active; 'I' for Inactive)
REMARK    1  A    between atoms: C_17  and  O_20 
ROOT
HETATM    1  C   UNK N   1      35.688  13.810  13.997  0.00  0.00     0.084 C 
HETATM    2  C   UNK N   1      36.566  12.925  13.135  0.00  0.00     0.149 C 
HETATM    3  C   UNK N   1      36.857  11.535  13.552  0.00  0.00     0.053 C 
HETATM    4  C   UNK N   1      36.657  11.165  14.826  0.00  0.00    -0.072 C 
HETATM    5  C   UNK N   1      36.270  12.234  15.844  0.00  0.00     0.019 C 
HETATM    6  C   UNK N   1      35.141  13.063  15.233  0.00  0.00     0.017 C 
HETATM    7  C   UNK N   1      36.701   9.686  15.153  0.00  0.00     0.035 C 
HETATM    8  C   UNK N   1      36.191   9.293  16.552  0.00  0.00     0.010 C 
HETATM    9  C   UNK N   1      35.181  10.301  17.113  0.00  0.00    -0.005 C 
HETATM   10  C   UNK N   1      35.954  11.640  17.225  0.00  0.00    -0.002 C 
HETATM   11  C   UNK N   1      34.586   9.898  18.489  0.00  0.00     0.001 C 
HETATM   12  C   UNK N   1      35.304  10.485  19.697  0.00  0.00    -0.014 C 
HETATM   13  C   UNK N   1      35.206  12.030  19.654  0.00  0.00     0.012 C 
HETATM   14  C   UNK N   1      35.312  12.624  18.220  0.00  0.00     0.006 C 
HETATM   15  C   UNK N   1      34.432   8.421  18.815  0.00  0.00     0.008 C 
HETATM   16  C   UNK N   1      34.365   8.378  20.353  0.00  0.00     0.033 C 
HETATM   17  C   UNK N   1      34.567   9.818  20.856  0.00  0.00     0.126 C 
HETATM   18  O   UNK N   1      36.982  13.339  12.065  0.00  0.00    -0.293 OA
HETATM   19  C   UNK N   1      36.775  10.062  19.786  0.00  0.00     0.018 C 
ENDROOT
BRANCH  17  20
HETATM   20  O   UNK N   1      33.306  10.394  21.046  0.00  0.00    -0.395 OA
HETATM   21  H   UNK N   1      32.341  10.307  21.000  0.00  0.00     0.210 HD
ENDBRANCH  17  20
TORSDOF 1
ENDMDL
