REMARK  1 active torsions:
REMARK  status: ('A' for Active; 'I' for Inactive)
REMARK    1  A    between atoms: C_17  and  O_20 
ROOT
HETATM    1  C   UNK N   1      -3.727  -0.758   0.871  0.00  0.00     0.084 C 
HETATM    2  C   UNK N   1      -3.795  -2.134   0.241  0.00  0.00     0.149 C 
HETATM    3  C   UNK N   1      -2.557  -2.801  -0.222  0.00  0.00     0.053 C 
HETATM    4  C   UNK N   1      -1.443  -2.079  -0.417  0.00  0.00    -0.072 C 
HETATM    5  C   UNK N   1      -1.527  -0.560  -0.293  0.00  0.00     0.019 C 
HETATM    6  C   UNK N   1      -2.276  -0.246   1.002  0.00  0.00     0.017 C 
HETATM    7  C   UNK N   1      -0.139  -2.823  -0.622  0.00  0.00     0.035 C 
HETATM    8  C   UNK N   1       1.139  -1.967  -0.557  0.00  0.00     0.010 C 
HETATM    9  C   UNK N   1       0.957  -0.703   0.292  0.00  0.00    -0.005 C 
HETATM   10  C   UNK N   1      -0.152   0.114  -0.418  0.00  0.00    -0.002 C 
HETATM   11  C   UNK N   1       2.248   0.146   0.444  0.00  0.00     0.001 C 
HETATM   12  C   UNK N   1       2.396   1.277  -0.566  0.00  0.00    -0.014 C 
HETATM   13  C   UNK N   1       1.231   2.281  -0.388  0.00  0.00     0.012 C 
HETATM   14  C   UNK N   1      -0.130   1.608  -0.047  0.00  0.00     0.006 C 
HETATM   15  C   UNK N   1       3.594  -0.561   0.429  0.00  0.00     0.008 C 
HETATM   16  C   UNK N   1       4.596   0.544   0.046  0.00  0.00     0.033 C 
HETATM   17  C   UNK N   1       3.782   1.820  -0.227  0.00  0.00     0.126 C 
HETATM   18  O   UNK N   1      -4.863  -2.719   0.172  0.00  0.00    -0.293 OA
HETATM   19  C   UNK N   1       2.439   0.785  -2.017  0.00  0.00     0.018 C 
ENDROOT
BRANCH  17  20
HETATM   20  O   UNK N   1       3.750   2.577   0.950  0.00  0.00    -0.395 OA
HETATM   21  H   UNK N   1       4.194   2.858   1.765  0.00  0.00     0.210 HD
ENDBRANCH  17  20
TORSDOF 1
