MODEL 1
REMARK VINA RESULT:      -6.5      0.000      0.000
REMARK  31 active torsions:
REMARK  status: ('A' for Active; 'I' for Inactive)
REMARK    1  A    between atoms: C_2  and  C_14 
REMARK    2  A    between atoms: C_5  and  O_12 
REMARK    3  A    between atoms: C_6  and  O_10 
REMARK    4  A    between atoms: C_14  and  C_15 
REMARK    5  A    between atoms: C_16  and  C_17 
REMARK    6  A    between atoms: C_17  and  C_18 
REMARK    7  A    between atoms: C_18  and  C_19 
REMARK    8  A    between atoms: C_20  and  C_21 
REMARK    9  A    between atoms: C_21  and  C_22 
REMARK   10  A    between atoms: C_22  and  C_23 
REMARK   11  A    between atoms: C_24  and  C_25 
REMARK   12  A    between atoms: C_25  and  C_26 
REMARK   13  A    between atoms: C_26  and  C_27 
REMARK   14  A    between atoms: C_28  and  C_29 
REMARK   15  A    between atoms: C_29  and  C_30 
REMARK   16  A    between atoms: C_30  and  C_31 
REMARK   17  A    between atoms: C_32  and  C_33 
REMARK   18  A    between atoms: C_33  and  C_34 
REMARK   19  A    between atoms: C_34  and  C_35 
REMARK   20  A    between atoms: C_36  and  C_37 
REMARK   21  A    between atoms: C_37  and  C_38 
REMARK   22  A    between atoms: C_38  and  C_39 
REMARK   23  A    between atoms: C_40  and  C_41 
REMARK   24  A    between atoms: C_41  and  C_42 
REMARK   25  A    between atoms: C_42  and  C_43 
REMARK   26  A    between atoms: C_44  and  C_45 
REMARK   27  A    between atoms: C_45  and  C_46 
REMARK   28  A    between atoms: C_46  and  C_47 
REMARK   29  A    between atoms: C_48  and  C_49 
REMARK   30  A    between atoms: C_49  and  C_50 
REMARK   31  A    between atoms: C_50  and  C_51 
ROOT
HETATM    1  C   UNK N   1      21.321  13.661   9.787  0.00  0.00    -0.024 C 
HETATM    2  C   UNK N   1      21.464  12.692  10.704  0.00  0.00    -0.087 C 
HETATM    3  C   UNK N   1      20.306  12.177  11.501  0.00  0.00     0.043 C 
ENDROOT
BRANCH   2   4
HETATM    4  C   UNK N   1      22.849  12.229  11.026  0.00  0.00     0.037 C 
BRANCH   4   5
HETATM    5  C   UNK N   1      23.780  12.499   9.850  0.00  0.00     0.031 C 
BRANCH   5   6
HETATM    6  C   UNK N   1      24.030  11.228   9.082  0.00  0.00    -0.024 C 
HETATM    7  C   UNK N   1      23.594  11.066   7.826  0.00  0.00    -0.087 C 
HETATM    8  C   UNK N   1      23.864   9.784   7.117  0.00  0.00     0.043 C 
BRANCH   7   9
HETATM    9  C   UNK N   1      22.874  12.170   7.106  0.00  0.00     0.037 C 
BRANCH   9  10
HETATM   10  C   UNK N   1      23.721  13.428   7.136  0.00  0.00     0.031 C 
BRANCH  10  11
HETATM   11  C   UNK N   1      24.860  13.282   6.170  0.00  0.00    -0.024 C 
HETATM   12  C   UNK N   1      25.892  14.141   6.136  0.00  0.00    -0.087 C 
HETATM   13  C   UNK N   1      25.972  15.302   7.077  0.00  0.00     0.043 C 
BRANCH  12  14
HETATM   14  C   UNK N   1      27.032  13.909   5.178  0.00  0.00     0.037 C 
BRANCH  14  15
HETATM   15  C   UNK N   1      26.661  13.049   3.954  0.00  0.00     0.031 C 
BRANCH  15  16
HETATM   16  C   UNK N   1      26.601  13.863   2.692  0.00  0.00    -0.024 C 
HETATM   17  C   UNK N   1      25.472  14.378   2.204  0.00  0.00    -0.087 C 
HETATM   18  C   UNK N   1      25.557  15.275   1.017  0.00  0.00     0.043 C 
BRANCH  17  19
HETATM   19  C   UNK N   1      24.119  14.062   2.791  0.00  0.00     0.037 C 
BRANCH  19  20
HETATM   20  C   UNK N   1      22.986  14.628   1.919  0.00  0.00     0.031 C 
BRANCH  20  21
HETATM   21  C   UNK N   1      22.027  15.430   2.757  0.00  0.00    -0.024 C 
HETATM   22  C   UNK N   1      20.828  15.827   2.318  0.00  0.00    -0.087 C 
HETATM   23  C   UNK N   1      19.895  16.471   3.288  0.00  0.00     0.043 C 
BRANCH  22  24
HETATM   24  C   UNK N   1      20.393  15.588   0.889  0.00  0.00     0.037 C 
BRANCH  24  25
HETATM   25  C   UNK N   1      19.383  14.445   0.740  0.00  0.00     0.031 C 
BRANCH  25  26
HETATM   26  C   UNK N   1      20.051  13.132   0.444  0.00  0.00    -0.024 C 
HETATM   27  C   UNK N   1      20.192  12.194   1.393  0.00  0.00    -0.087 C 
HETATM   28  C   UNK N   1      19.695  12.415   2.789  0.00  0.00     0.043 C 
BRANCH  27  29
HETATM   29  C   UNK N   1      20.760  10.861   1.043  0.00  0.00     0.037 C 
BRANCH  29  30
HETATM   30  C   UNK N   1      22.263  10.934   0.855  0.00  0.00     0.031 C 
BRANCH  30  31
HETATM   31  C   UNK N   1      22.937  10.568   2.141  0.00  0.00    -0.024 C 
HETATM   32  C   UNK N   1      24.269  10.496   2.277  0.00  0.00    -0.091 C 
HETATM   33  C   UNK N   1      24.845  10.142   3.602  0.00  0.00     0.042 C 
HETATM   34  C   UNK N   1      25.196  10.752   1.132  0.00  0.00     0.042 C 
ENDBRANCH  30  31
ENDBRANCH  29  30
ENDBRANCH  27  29
ENDBRANCH  25  26
ENDBRANCH  24  25
ENDBRANCH  22  24
ENDBRANCH  20  21
ENDBRANCH  19  20
ENDBRANCH  17  19
ENDBRANCH  15  16
ENDBRANCH  14  15
ENDBRANCH  12  14
ENDBRANCH  10  11
ENDBRANCH   9  10
ENDBRANCH   7   9
ENDBRANCH   5   6
ENDBRANCH   4   5
ENDBRANCH   2   4
BRANCH   1  35
HETATM   35  C   UNK N   1      20.009  14.294   9.431  0.00  0.00     0.031 C 
BRANCH  35  36
HETATM   36  C   UNK N   1      20.201  15.723   8.955  0.00  0.00     0.037 C 
BRANCH  36  37
HETATM   37  C   UNK N   1      20.759  15.750   7.572  0.00  0.00    -0.087 C 
HETATM   38  C   UNK N   1      21.751  16.608   7.298  0.00  0.00    -0.024 C 
HETATM   39  C   UNK N   1      20.236  14.785   6.555  0.00  0.00     0.043 C 
BRANCH  38  40
HETATM   40  C   UNK N   1      22.424  16.679   5.960  0.00  0.00     0.031 C 
BRANCH  40  41
HETATM   41  C   UNK N   1      22.317  18.106   5.429  0.00  0.00     0.037 C 
BRANCH  41  42
HETATM   42  C   UNK N   1      23.380  18.333   4.401  0.00  0.00    -0.087 C 
HETATM   43  C   UNK N   1      24.489  17.580   4.431  0.00  0.00    -0.024 C 
HETATM   44  C   UNK N   1      23.230  19.486   3.457  0.00  0.00     0.043 C 
BRANCH  43  45
HETATM   45  C   UNK N   1      25.684  17.814   3.561  0.00  0.00     0.031 C 
BRANCH  45  46
HETATM   46  C   UNK N   1      26.974  17.287   4.165  0.00  0.00     0.037 C 
BRANCH  46  47
HETATM   47  C   UNK N   1      27.766  18.436   4.710  0.00  0.00    -0.087 C 
HETATM   48  C   UNK N   1      28.736  18.265   5.618  0.00  0.00    -0.020 C 
HETATM   49  C   UNK N   1      27.454  19.813   4.234  0.00  0.00     0.043 C 
BRANCH  48  50
HETATM   50  C   UNK N   1      29.137  16.916   6.147  0.00  0.00     0.071 C 
BRANCH  50  51
HETATM   51  C   UNK N   1      30.617  16.663   5.977  0.00  0.00     0.008 A 
HETATM   52  C   UNK N   1      31.557  17.183   7.002  0.00  0.00     0.215 A 
HETATM   53  C   UNK N   1      33.023  16.975   6.866  0.00  0.00     0.156 A 
HETATM   54  O   UNK N   1      31.126  17.797   7.966  0.00  0.00    -0.285 OA
HETATM   55  C   UNK N   1      33.515  16.298   5.789  0.00  0.00     0.156 A 
HETATM   56  C   UNK N   1      32.555  15.770   4.759  0.00  0.00     0.214 A 
HETATM   57  C   UNK N   1      31.095  15.993   4.908  0.00  0.00     0.002 A 
HETATM   58  O   UNK N   1      32.962  15.154   3.788  0.00  0.00    -0.285 OA
HETATM   59  C   UNK N   1      30.171  15.469   3.846  0.00  0.00     0.053 C 
BRANCH  53  60
HETATM   60  O   UNK N   1      33.814  17.494   7.857  0.00  0.00    -0.350 OA
HETATM   61  C   UNK N   1      34.019  16.961   9.109  0.00  0.00     0.210 C 
ENDBRANCH  53  60
BRANCH  55  62
HETATM   62  O   UNK N   1      34.862  16.117   5.666  0.00  0.00    -0.350 OA
HETATM   63  C   UNK N   1      35.541  14.952   5.935  0.00  0.00     0.210 C 
ENDBRANCH  55  62
ENDBRANCH  50  51
ENDBRANCH  48  50
ENDBRANCH  46  47
ENDBRANCH  45  46
ENDBRANCH  43  45
ENDBRANCH  41  42
ENDBRANCH  40  41
ENDBRANCH  38  40
ENDBRANCH  36  37
ENDBRANCH  35  36
ENDBRANCH   1  35
TORSDOF 31
ENDMDL
MODEL 2
REMARK VINA RESULT:      -6.4      1.694      4.630
REMARK  31 active torsions:
REMARK  status: ('A' for Active; 'I' for Inactive)
REMARK    1  A    between atoms: C_2  and  C_14 
REMARK    2  A    between atoms: C_5  and  O_12 
REMARK    3  A    between atoms: C_6  and  O_10 
REMARK    4  A    between atoms: C_14  and  C_15 
REMARK    5  A    between atoms: C_16  and  C_17 
REMARK    6  A    between atoms: C_17  and  C_18 
REMARK    7  A    between atoms: C_18  and  C_19 
REMARK    8  A    between atoms: C_20  and  C_21 
REMARK    9  A    between atoms: C_21  and  C_22 
REMARK   10  A    between atoms: C_22  and  C_23 
REMARK   11  A    between atoms: C_24  and  C_25 
REMARK   12  A    between atoms: C_25  and  C_26 
REMARK   13  A    between atoms: C_26  and  C_27 
REMARK   14  A    between atoms: C_28  and  C_29 
REMARK   15  A    between atoms: C_29  and  C_30 
REMARK   16  A    between atoms: C_30  and  C_31 
REMARK   17  A    between atoms: C_32  and  C_33 
REMARK   18  A    between atoms: C_33  and  C_34 
REMARK   19  A    between atoms: C_34  and  C_35 
REMARK   20  A    between atoms: C_36  and  C_37 
REMARK   21  A    between atoms: C_37  and  C_38 
REMARK   22  A    between atoms: C_38  and  C_39 
REMARK   23  A    between atoms: C_40  and  C_41 
REMARK   24  A    between atoms: C_41  and  C_42 
REMARK   25  A    between atoms: C_42  and  C_43 
REMARK   26  A    between atoms: C_44  and  C_45 
REMARK   27  A    between atoms: C_45  and  C_46 
REMARK   28  A    between atoms: C_46  and  C_47 
REMARK   29  A    between atoms: C_48  and  C_49 
REMARK   30  A    between atoms: C_49  and  C_50 
REMARK   31  A    between atoms: C_50  and  C_51 
ROOT
HETATM    1  C   UNK N   1      25.061  12.747   6.882  0.00  0.00    -0.024 C 
HETATM    2  C   UNK N   1      25.220  13.729   7.781  0.00  0.00    -0.087 C 
HETATM    3  C   UNK N   1      25.620  15.115   7.380  0.00  0.00     0.043 C 
ENDROOT
BRANCH   2   4
HETATM    4  C   UNK N   1      25.133  13.375   9.231  0.00  0.00     0.037 C 
BRANCH   4   5
HETATM    5  C   UNK N   1      23.995  12.388   9.463  0.00  0.00     0.031 C 
BRANCH   5   6
HETATM    6  C   UNK N   1      22.770  13.112   9.955  0.00  0.00    -0.024 C 
HETATM    7  C   UNK N   1      21.641  13.156   9.236  0.00  0.00    -0.087 C 
HETATM    8  C   UNK N   1      20.462  13.894   9.769  0.00  0.00     0.043 C 
BRANCH   7   9
HETATM    9  C   UNK N   1      21.531  12.441   7.920  0.00  0.00     0.037 C 
BRANCH   9  10
HETATM   10  C   UNK N   1      20.886  13.360   6.899  0.00  0.00     0.031 C 
BRANCH  10  11
HETATM   11  C   UNK N   1      21.885  14.385   6.454  0.00  0.00    -0.024 C 
HETATM   12  C   UNK N   1      21.606  15.699   6.420  0.00  0.00    -0.087 C 
HETATM   13  C   UNK N   1      20.268  16.222   6.839  0.00  0.00     0.043 C 
BRANCH  12  14
HETATM   14  C   UNK N   1      22.671  16.685   6.013  0.00  0.00     0.037 C 
BRANCH  14  15
HETATM   15  C   UNK N   1      23.263  16.429   4.613  0.00  0.00     0.031 C 
BRANCH  15  16
HETATM   16  C   UNK N   1      22.256  16.667   3.524  0.00  0.00    -0.024 C 
HETATM   17  C   UNK N   1      21.910  15.741   2.629  0.00  0.00    -0.087 C 
HETATM   18  C   UNK N   1      20.806  16.051   1.677  0.00  0.00     0.043 C 
BRANCH  17  19
HETATM   19  C   UNK N   1      22.615  14.411   2.529  0.00  0.00     0.037 C 
BRANCH  19  20
HETATM   20  C   UNK N   1      23.660  14.416   1.401  0.00  0.00     0.031 C 
BRANCH  20  21
HETATM   21  C   UNK N   1      23.342  13.354   0.383  0.00  0.00    -0.024 C 
HETATM   22  C   UNK N   1      23.994  12.189   0.313  0.00  0.00    -0.087 C 
HETATM   23  C   UNK N   1      23.485  11.146  -0.624  0.00  0.00     0.043 C 
BRANCH  22  24
HETATM   24  C   UNK N   1      25.188  11.901   1.196  0.00  0.00     0.037 C 
BRANCH  24  25
HETATM   25  C   UNK N   1      24.939  10.785   2.216  0.00  0.00     0.031 C 
BRANCH  25  26
HETATM   26  C   UNK N   1      23.734  11.056   3.072  0.00  0.00    -0.024 C 
HETATM   27  C   UNK N   1      22.723  10.178   3.147  0.00  0.00    -0.087 C 
HETATM   28  C   UNK N   1      22.748   8.891   2.380  0.00  0.00     0.043 C 
BRANCH  27  29
HETATM   29  C   UNK N   1      21.592  10.423   4.087  0.00  0.00     0.037 C 
BRANCH  29  30
HETATM   30  C   UNK N   1      20.257  10.361   3.371  0.00  0.00     0.031 C 
BRANCH  30  31
HETATM   31  C   UNK N   1      20.085  11.600   2.545  0.00  0.00    -0.024 C 
HETATM   32  C   UNK N   1      19.936  11.578   1.213  0.00  0.00    -0.091 C 
HETATM   33  C   UNK N   1      19.754  12.861   0.483  0.00  0.00     0.042 C 
HETATM   34  C   UNK N   1      19.958  10.301   0.435  0.00  0.00     0.042 C 
ENDBRANCH  30  31
ENDBRANCH  29  30
ENDBRANCH  27  29
ENDBRANCH  25  26
ENDBRANCH  24  25
ENDBRANCH  22  24
ENDBRANCH  20  21
ENDBRANCH  19  20
ENDBRANCH  17  19
ENDBRANCH  15  16
ENDBRANCH  14  15
ENDBRANCH  12  14
ENDBRANCH  10  11
ENDBRANCH   9  10
ENDBRANCH   7   9
ENDBRANCH   5   6
ENDBRANCH   4   5
ENDBRANCH   2   4
BRANCH   1  35
HETATM   35  C   UNK N   1      25.216  12.930   5.401  0.00  0.00     0.031 C 
BRANCH  35  36
HETATM   36  C   UNK N   1      26.627  12.594   4.953  0.00  0.00     0.037 C 
BRANCH  36  37
HETATM   37  C   UNK N   1      27.311  13.800   4.405  0.00  0.00    -0.087 C 
HETATM   38  C   UNK N   1      26.688  14.517   3.460  0.00  0.00    -0.024 C 
HETATM   39  C   UNK N   1      28.639  14.204   4.966  0.00  0.00     0.043 C 
BRANCH  38  40
HETATM   40  C   UNK N   1      27.257  15.778   2.883  0.00  0.00     0.031 C 
BRANCH  40  41
HETATM   41  C   UNK N   1      26.236  16.901   3.051  0.00  0.00     0.037 C 
BRANCH  41  42
HETATM   42  C   UNK N   1      26.769  17.917   4.011  0.00  0.00    -0.087 C 
HETATM   43  C   UNK N   1      27.150  17.521   5.235  0.00  0.00    -0.024 C 
HETATM   44  C   UNK N   1      26.732  19.362   3.620  0.00  0.00     0.043 C 
BRANCH  43  45
HETATM   45  C   UNK N   1      27.550  18.459   6.331  0.00  0.00     0.031 C 
BRANCH  45  46
HETATM   46  C   UNK N   1      29.039  18.427   6.629  0.00  0.00     0.037 C 
BRANCH  46  47
HETATM   47  C   UNK N   1      29.285  17.535   7.807  0.00  0.00    -0.087 C 
HETATM   48  C   UNK N   1      30.477  16.966   8.032  0.00  0.00    -0.020 C 
HETATM   49  C   UNK N   1      28.164  17.264   8.748  0.00  0.00     0.043 C 
BRANCH  48  50
HETATM   50  C   UNK N   1      31.674  17.192   7.151  0.00  0.00     0.071 C 
BRANCH  50  51
HETATM   51  C   UNK N   1      31.874  16.056   6.174  0.00  0.00     0.008 A 
HETATM   52  C   UNK N   1      32.036  14.677   6.697  0.00  0.00     0.215 A 
HETATM   53  C   UNK N   1      32.253  13.532   5.775  0.00  0.00     0.156 A 
HETATM   54  O   UNK N   1      31.998  14.476   7.902  0.00  0.00    -0.285 OA
HETATM   55  C   UNK N   1      32.305  13.746   4.429  0.00  0.00     0.156 A 
HETATM   56  C   UNK N   1      32.134  15.146   3.906  0.00  0.00     0.214 A 
HETATM   57  C   UNK N   1      31.924  16.277   4.843  0.00  0.00     0.002 A 
HETATM   58  O   UNK N   1      32.167  15.370   2.707  0.00  0.00    -0.285 OA
HETATM   59  C   UNK N   1      31.780  17.664   4.283  0.00  0.00     0.053 C 
BRANCH  53  60
HETATM   60  O   UNK N   1      32.397  12.296   6.348  0.00  0.00    -0.350 OA
HETATM   61  C   UNK N   1      33.580  11.662   6.650  0.00  0.00     0.210 C 
ENDBRANCH  53  60
BRANCH  55  62
HETATM   62  O   UNK N   1      32.512  12.692   3.587  0.00  0.00    -0.350 OA
HETATM   63  C   UNK N   1      31.529  11.942   2.986  0.00  0.00     0.210 C 
ENDBRANCH  55  62
ENDBRANCH  50  51
ENDBRANCH  48  50
ENDBRANCH  46  47
ENDBRANCH  45  46
ENDBRANCH  43  45
ENDBRANCH  41  42
ENDBRANCH  40  41
ENDBRANCH  38  40
ENDBRANCH  36  37
ENDBRANCH  35  36
ENDBRANCH   1  35
TORSDOF 31
ENDMDL
MODEL 3
REMARK VINA RESULT:      -6.3      1.720      3.541
REMARK  31 active torsions:
REMARK  status: ('A' for Active; 'I' for Inactive)
REMARK    1  A    between atoms: C_2  and  C_14 
REMARK    2  A    between atoms: C_5  and  O_12 
REMARK    3  A    between atoms: C_6  and  O_10 
REMARK    4  A    between atoms: C_14  and  C_15 
REMARK    5  A    between atoms: C_16  and  C_17 
REMARK    6  A    between atoms: C_17  and  C_18 
REMARK    7  A    between atoms: C_18  and  C_19 
REMARK    8  A    between atoms: C_20  and  C_21 
REMARK    9  A    between atoms: C_21  and  C_22 
REMARK   10  A    between atoms: C_22  and  C_23 
REMARK   11  A    between atoms: C_24  and  C_25 
REMARK   12  A    between atoms: C_25  and  C_26 
REMARK   13  A    between atoms: C_26  and  C_27 
REMARK   14  A    between atoms: C_28  and  C_29 
REMARK   15  A    between atoms: C_29  and  C_30 
REMARK   16  A    between atoms: C_30  and  C_31 
REMARK   17  A    between atoms: C_32  and  C_33 
REMARK   18  A    between atoms: C_33  and  C_34 
REMARK   19  A    between atoms: C_34  and  C_35 
REMARK   20  A    between atoms: C_36  and  C_37 
REMARK   21  A    between atoms: C_37  and  C_38 
REMARK   22  A    between atoms: C_38  and  C_39 
REMARK   23  A    between atoms: C_40  and  C_41 
REMARK   24  A    between atoms: C_41  and  C_42 
REMARK   25  A    between atoms: C_42  and  C_43 
REMARK   26  A    between atoms: C_44  and  C_45 
REMARK   27  A    between atoms: C_45  and  C_46 
REMARK   28  A    between atoms: C_46  and  C_47 
REMARK   29  A    between atoms: C_48  and  C_49 
REMARK   30  A    between atoms: C_49  and  C_50 
REMARK   31  A    between atoms: C_50  and  C_51 
ROOT
HETATM    1  C   UNK N   1      20.053  14.742   6.663  0.00  0.00    -0.024 C 
HETATM    2  C   UNK N   1      20.496  14.759   7.929  0.00  0.00    -0.087 C 
HETATM    3  C   UNK N   1      20.551  16.021   8.734  0.00  0.00     0.043 C 
ENDROOT
BRANCH   2   4
HETATM    4  C   UNK N   1      21.081  13.501   8.486  0.00  0.00     0.037 C 
BRANCH   4   5
HETATM    5  C   UNK N   1      22.485  13.766   9.017  0.00  0.00     0.031 C 
BRANCH   5   6
HETATM    6  C   UNK N   1      23.486  12.903   8.294  0.00  0.00    -0.024 C 
HETATM    7  C   UNK N   1      24.156  13.347   7.223  0.00  0.00    -0.087 C 
HETATM    8  C   UNK N   1      25.129  12.448   6.543  0.00  0.00     0.043 C 
BRANCH   7   9
HETATM    9  C   UNK N   1      23.973  14.751   6.720  0.00  0.00     0.037 C 
BRANCH   9  10
HETATM   10  C   UNK N   1      25.329  15.416   6.577  0.00  0.00     0.031 C 
BRANCH  10  11
HETATM   11  C   UNK N   1      25.574  15.737   5.133  0.00  0.00    -0.024 C 
HETATM   12  C   UNK N   1      26.676  15.332   4.480  0.00  0.00    -0.087 C 
HETATM   13  C   UNK N   1      27.731  14.519   5.162  0.00  0.00     0.043 C 
BRANCH  12  14
HETATM   14  C   UNK N   1      26.839  15.641   3.014  0.00  0.00     0.037 C 
BRANCH  14  15
HETATM   15  C   UNK N   1      25.517  15.957   2.287  0.00  0.00     0.031 C 
BRANCH  15  16
HETATM   16  C   UNK N   1      25.148  14.888   1.299  0.00  0.00    -0.024 C 
HETATM   17  C   UNK N   1      23.992  14.224   1.333  0.00  0.00    -0.087 C 
HETATM   18  C   UNK N   1      23.684  13.278   0.224  0.00  0.00     0.043 C 
BRANCH  17  19
HETATM   19  C   UNK N   1      23.006  14.376   2.465  0.00  0.00     0.037 C 
BRANCH  19  20
HETATM   20  C   UNK N   1      23.162  13.246   3.496  0.00  0.00     0.031 C 
BRANCH  20  21
HETATM   21  C   UNK N   1      21.819  12.851   4.050  0.00  0.00    -0.024 C 
HETATM   22  C   UNK N   1      21.614  11.717   4.730  0.00  0.00    -0.087 C 
HETATM   23  C   UNK N   1      20.285  11.508   5.375  0.00  0.00     0.043 C 
BRANCH  22  24
HETATM   24  C   UNK N   1      22.709  10.688   4.894  0.00  0.00     0.037 C 
BRANCH  24  25
HETATM   25  C   UNK N   1      22.648   9.558   3.860  0.00  0.00     0.031 C 
BRANCH  25  26
HETATM   26  C   UNK N   1      23.701   9.703   2.798  0.00  0.00    -0.024 C 
HETATM   27  C   UNK N   1      24.150   8.639   2.115  0.00  0.00    -0.087 C 
HETATM   28  C   UNK N   1      23.627   7.262   2.383  0.00  0.00     0.043 C 
BRANCH  27  29
HETATM   29  C   UNK N   1      25.114   8.828   0.994  0.00  0.00     0.037 C 
BRANCH  29  30
HETATM   30  C   UNK N   1      25.387  10.299   0.742  0.00  0.00     0.031 C 
BRANCH  30  31
HETATM   31  C   UNK N   1      26.848  10.567   0.934  0.00  0.00    -0.024 C 
HETATM   32  C   UNK N   1      27.334  11.283   1.959  0.00  0.00    -0.091 C 
HETATM   33  C   UNK N   1      28.804  11.478   2.073  0.00  0.00     0.042 C 
HETATM   34  C   UNK N   1      26.440  11.900   2.986  0.00  0.00     0.042 C 
ENDBRANCH  30  31
ENDBRANCH  29  30
ENDBRANCH  27  29
ENDBRANCH  25  26
ENDBRANCH  24  25
ENDBRANCH  22  24
ENDBRANCH  20  21
ENDBRANCH  19  20
ENDBRANCH  17  19
ENDBRANCH  15  16
ENDBRANCH  14  15
ENDBRANCH  12  14
ENDBRANCH  10  11
ENDBRANCH   9  10
ENDBRANCH   7   9
ENDBRANCH   5   6
ENDBRANCH   4   5
ENDBRANCH   2   4
BRANCH   1  35
HETATM   35  C   UNK N   1      19.531  15.948   5.939  0.00  0.00     0.031 C 
BRANCH  35  36
HETATM   36  C   UNK N   1      19.391  15.676   4.452  0.00  0.00     0.037 C 
BRANCH  36  37
HETATM   37  C   UNK N   1      20.354  16.502   3.669  0.00  0.00    -0.087 C 
HETATM   38  C   UNK N   1      21.437  16.987   4.292  0.00  0.00    -0.024 C 
HETATM   39  C   UNK N   1      20.113  16.715   2.208  0.00  0.00     0.043 C 
BRANCH  38  40
HETATM   40  C   UNK N   1      22.498  17.778   3.588  0.00  0.00     0.031 C 
BRANCH  40  41
HETATM   41  C   UNK N   1      23.245  18.625   4.615  0.00  0.00     0.037 C 
BRANCH  41  42
HETATM   42  C   UNK N   1      24.321  19.405   3.928  0.00  0.00    -0.087 C 
HETATM   43  C   UNK N   1      25.604  19.150   4.225  0.00  0.00    -0.024 C 
HETATM   44  C   UNK N   1      23.924  20.538   3.031  0.00  0.00     0.043 C 
BRANCH  43  45
HETATM   45  C   UNK N   1      26.756  19.963   3.725  0.00  0.00     0.031 C 
BRANCH  45  46
HETATM   46  C   UNK N   1      28.058  19.658   4.446  0.00  0.00     0.037 C 
BRANCH  46  47
HETATM   47  C   UNK N   1      27.905  19.995   5.897  0.00  0.00    -0.087 C 
HETATM   48  C   UNK N   1      28.096  19.085   6.863  0.00  0.00    -0.020 C 
HETATM   49  C   UNK N   1      27.517  21.381   6.276  0.00  0.00     0.043 C 
BRANCH  48  50
HETATM   50  C   UNK N   1      28.506  17.666   6.584  0.00  0.00     0.071 C 
BRANCH  50  51
HETATM   51  C   UNK N   1      30.009  17.509   6.567  0.00  0.00     0.008 A 
HETATM   52  C   UNK N   1      30.690  17.247   5.274  0.00  0.00     0.215 A 
HETATM   53  C   UNK N   1      32.164  17.067   5.211  0.00  0.00     0.156 A 
HETATM   54  O   UNK N   1      30.034  17.170   4.247  0.00  0.00    -0.285 OA
HETATM   55  C   UNK N   1      32.905  17.143   6.354  0.00  0.00     0.156 A 
HETATM   56  C   UNK N   1      32.209  17.414   7.659  0.00  0.00     0.214 A 
HETATM   57  C   UNK N   1      30.735  17.585   7.702  0.00  0.00     0.002 A 
HETATM   58  O   UNK N   1      32.844  17.496   8.698  0.00  0.00    -0.285 OA
HETATM   59  C   UNK N   1      30.074  17.832   9.028  0.00  0.00     0.053 C 
BRANCH  53  60
HETATM   60  O   UNK N   1      32.705  16.824   3.976  0.00  0.00    -0.350 OA
HETATM   61  C   UNK N   1      32.776  15.609   3.334  0.00  0.00     0.210 C 
ENDBRANCH  53  60
BRANCH  55  62
HETATM   62  O   UNK N   1      34.257  16.969   6.292  0.00  0.00    -0.350 OA
HETATM   63  C   UNK N   1      34.918  15.771   6.437  0.00  0.00     0.210 C 
ENDBRANCH  55  62
ENDBRANCH  50  51
ENDBRANCH  48  50
ENDBRANCH  46  47
ENDBRANCH  45  46
ENDBRANCH  43  45
ENDBRANCH  41  42
ENDBRANCH  40  41
ENDBRANCH  38  40
ENDBRANCH  36  37
ENDBRANCH  35  36
ENDBRANCH   1  35
TORSDOF 31
ENDMDL
MODEL 4
REMARK VINA RESULT:      -6.3      2.041      4.499
REMARK  31 active torsions:
REMARK  status: ('A' for Active; 'I' for Inactive)
REMARK    1  A    between atoms: C_2  and  C_14 
REMARK    2  A    between atoms: C_5  and  O_12 
REMARK    3  A    between atoms: C_6  and  O_10 
REMARK    4  A    between atoms: C_14  and  C_15 
REMARK    5  A    between atoms: C_16  and  C_17 
REMARK    6  A    between atoms: C_17  and  C_18 
REMARK    7  A    between atoms: C_18  and  C_19 
REMARK    8  A    between atoms: C_20  and  C_21 
REMARK    9  A    between atoms: C_21  and  C_22 
REMARK   10  A    between atoms: C_22  and  C_23 
REMARK   11  A    between atoms: C_24  and  C_25 
REMARK   12  A    between atoms: C_25  and  C_26 
REMARK   13  A    between atoms: C_26  and  C_27 
REMARK   14  A    between atoms: C_28  and  C_29 
REMARK   15  A    between atoms: C_29  and  C_30 
REMARK   16  A    between atoms: C_30  and  C_31 
REMARK   17  A    between atoms: C_32  and  C_33 
REMARK   18  A    between atoms: C_33  and  C_34 
REMARK   19  A    between atoms: C_34  and  C_35 
REMARK   20  A    between atoms: C_36  and  C_37 
REMARK   21  A    between atoms: C_37  and  C_38 
REMARK   22  A    between atoms: C_38  and  C_39 
REMARK   23  A    between atoms: C_40  and  C_41 
REMARK   24  A    between atoms: C_41  and  C_42 
REMARK   25  A    between atoms: C_42  and  C_43 
REMARK   26  A    between atoms: C_44  and  C_45 
REMARK   27  A    between atoms: C_45  and  C_46 
REMARK   28  A    between atoms: C_46  and  C_47 
REMARK   29  A    between atoms: C_48  and  C_49 
REMARK   30  A    between atoms: C_49  and  C_50 
REMARK   31  A    between atoms: C_50  and  C_51 
ROOT
HETATM    1  C   UNK N   1      20.777  14.077   7.366  0.00  0.00    -0.024 C 
HETATM    2  C   UNK N   1      20.645  14.851   8.453  0.00  0.00    -0.087 C 
HETATM    3  C   UNK N   1      20.663  16.346   8.369  0.00  0.00     0.043 C 
ENDROOT
BRANCH   2   4
HETATM    4  C   UNK N   1      20.626  14.186   9.792  0.00  0.00     0.037 C 
BRANCH   4   5
HETATM    5  C   UNK N   1      21.148  12.758   9.676  0.00  0.00     0.031 C 
BRANCH   5   6
HETATM    6  C   UNK N   1      22.397  12.594  10.501  0.00  0.00    -0.024 C 
HETATM    7  C   UNK N   1      23.584  12.331   9.937  0.00  0.00    -0.087 C 
HETATM    8  C   UNK N   1      24.786  12.172  10.803  0.00  0.00     0.043 C 
BRANCH   7   9
HETATM    9  C   UNK N   1      23.731  12.234   8.446  0.00  0.00     0.037 C 
BRANCH   9  10
HETATM   10  C   UNK N   1      23.596  10.784   8.020  0.00  0.00     0.031 C 
BRANCH  10  11
HETATM   11  C   UNK N   1      23.898  10.668   6.555  0.00  0.00    -0.024 C 
HETATM   12  C   UNK N   1      22.935  10.636   5.619  0.00  0.00    -0.087 C 
HETATM   13  C   UNK N   1      21.487  10.725   5.988  0.00  0.00     0.043 C 
BRANCH  12  14
HETATM   14  C   UNK N   1      23.304  10.571   4.160  0.00  0.00     0.037 C 
BRANCH  14  15
HETATM   15  C   UNK N   1      23.769  11.917   3.569  0.00  0.00     0.031 C 
BRANCH  15  16
HETATM   16  C   UNK N   1      23.576  11.975   2.080  0.00  0.00    -0.024 C 
HETATM   17  C   UNK N   1      23.679  13.098   1.370  0.00  0.00    -0.087 C 
HETATM   18  C   UNK N   1      23.595  13.009  -0.115  0.00  0.00     0.043 C 
BRANCH  17  19
HETATM   19  C   UNK N   1      23.848  14.451   2.017  0.00  0.00     0.037 C 
BRANCH  19  20
HETATM   20  C   UNK N   1      25.326  14.875   2.046  0.00  0.00     0.031 C 
BRANCH  20  21
HETATM   21  C   UNK N   1      25.957  14.492   3.358  0.00  0.00    -0.024 C 
HETATM   22  C   UNK N   1      27.134  14.975   3.772  0.00  0.00    -0.087 C 
HETATM   23  C   UNK N   1      27.582  14.657   5.158  0.00  0.00     0.043 C 
BRANCH  22  24
HETATM   24  C   UNK N   1      27.974  15.868   2.887  0.00  0.00     0.037 C 
BRANCH  24  25
HETATM   25  C   UNK N   1      29.206  15.168   2.304  0.00  0.00     0.031 C 
BRANCH  25  26
HETATM   26  C   UNK N   1      28.855  13.876   1.621  0.00  0.00    -0.024 C 
HETATM   27  C   UNK N   1      29.277  12.697   2.103  0.00  0.00    -0.087 C 
HETATM   28  C   UNK N   1      30.120  12.616   3.339  0.00  0.00     0.043 C 
BRANCH  27  29
HETATM   29  C   UNK N   1      28.823  11.428   1.468  0.00  0.00     0.037 C 
BRANCH  29  30
HETATM   30  C   UNK N   1      27.481  10.985   2.018  0.00  0.00     0.031 C 
BRANCH  30  31
HETATM   31  C   UNK N   1      26.600  10.562   0.883  0.00  0.00    -0.024 C 
HETATM   32  C   UNK N   1      25.808   9.481   0.933  0.00  0.00    -0.091 C 
HETATM   33  C   UNK N   1      24.954   9.154  -0.241  0.00  0.00     0.042 C 
HETATM   34  C   UNK N   1      25.763   8.588   2.131  0.00  0.00     0.042 C 
ENDBRANCH  30  31
ENDBRANCH  29  30
ENDBRANCH  27  29
ENDBRANCH  25  26
ENDBRANCH  24  25
ENDBRANCH  22  24
ENDBRANCH  20  21
ENDBRANCH  19  20
ENDBRANCH  17  19
ENDBRANCH  15  16
ENDBRANCH  14  15
ENDBRANCH  12  14
ENDBRANCH  10  11
ENDBRANCH   9  10
ENDBRANCH   7   9
ENDBRANCH   5   6
ENDBRANCH   4   5
ENDBRANCH   2   4
BRANCH   1  35
HETATM   35  C   UNK N   1      20.910  14.605   5.968  0.00  0.00     0.031 C 
BRANCH  35  36
HETATM   36  C   UNK N   1      22.287  14.313   5.400  0.00  0.00     0.037 C 
BRANCH  36  37
HETATM   37  C   UNK N   1      23.201  15.473   5.605  0.00  0.00    -0.087 C 
HETATM   38  C   UNK N   1      22.958  16.608   4.936  0.00  0.00    -0.024 C 
HETATM   39  C   UNK N   1      24.323  15.352   6.588  0.00  0.00     0.043 C 
BRANCH  38  40
HETATM   40  C   UNK N   1      23.776  17.851   5.111  0.00  0.00     0.031 C 
BRANCH  40  41
HETATM   41  C   UNK N   1      24.702  18.005   3.907  0.00  0.00     0.037 C 
BRANCH  41  42
HETATM   42  C   UNK N   1      25.991  18.623   4.349  0.00  0.00    -0.087 C 
HETATM   43  C   UNK N   1      26.593  18.159   5.454  0.00  0.00    -0.024 C 
HETATM   44  C   UNK N   1      26.496  19.829   3.617  0.00  0.00     0.043 C 
BRANCH  43  45
HETATM   45  C   UNK N   1      27.796  18.792   6.081  0.00  0.00     0.031 C 
BRANCH  45  46
HETATM   46  C   UNK N   1      28.909  17.800   6.370  0.00  0.00     0.037 C 
BRANCH  46  47
HETATM   47  C   UNK N   1      29.263  17.871   7.823  0.00  0.00    -0.087 C 
HETATM   48  C   UNK N   1      30.522  17.717   8.258  0.00  0.00    -0.020 C 
HETATM   49  C   UNK N   1      28.179  18.107   8.817  0.00  0.00     0.043 C 
BRANCH  48  50
HETATM   50  C   UNK N   1      31.687  17.492   7.334  0.00  0.00     0.071 C 
BRANCH  50  51
HETATM   51  C   UNK N   1      32.507  16.292   7.747  0.00  0.00     0.008 A 
HETATM   52  C   UNK N   1      33.626  16.480   8.705  0.00  0.00     0.215 A 
HETATM   53  C   UNK N   1      34.471  15.332   9.125  0.00  0.00     0.156 A 
HETATM   54  O   UNK N   1      33.862  17.592   9.150  0.00  0.00    -0.285 OA
HETATM   55  C   UNK N   1      34.219  14.088   8.627  0.00  0.00     0.156 A 
HETATM   56  C   UNK N   1      33.081  13.904   7.662  0.00  0.00     0.214 A 
HETATM   57  C   UNK N   1      32.252  15.064   7.249  0.00  0.00     0.002 A 
HETATM   58  O   UNK N   1      32.825  12.802   7.204  0.00  0.00    -0.285 OA
HETATM   59  C   UNK N   1      31.138  14.844   6.265  0.00  0.00     0.053 C 
BRANCH  53  60
HETATM   60  O   UNK N   1      35.482  15.601  10.008  0.00  0.00    -0.350 OA
HETATM   61  C   UNK N   1      35.399  15.590  11.382  0.00  0.00     0.210 C 
ENDBRANCH  53  60
BRANCH  55  62
HETATM   62  O   UNK N   1      35.004  13.038   9.010  0.00  0.00    -0.350 OA
HETATM   63  C   UNK N   1      34.721  12.158  10.028  0.00  0.00     0.210 C 
ENDBRANCH  55  62
ENDBRANCH  50  51
ENDBRANCH  48  50
ENDBRANCH  46  47
ENDBRANCH  45  46
ENDBRANCH  43  45
ENDBRANCH  41  42
ENDBRANCH  40  41
ENDBRANCH  38  40
ENDBRANCH  36  37
ENDBRANCH  35  36
ENDBRANCH   1  35
TORSDOF 31
ENDMDL
MODEL 5
REMARK VINA RESULT:      -6.2      2.066      4.763
REMARK  31 active torsions:
REMARK  status: ('A' for Active; 'I' for Inactive)
REMARK    1  A    between atoms: C_2  and  C_14 
REMARK    2  A    between atoms: C_5  and  O_12 
REMARK    3  A    between atoms: C_6  and  O_10 
REMARK    4  A    between atoms: C_14  and  C_15 
REMARK    5  A    between atoms: C_16  and  C_17 
REMARK    6  A    between atoms: C_17  and  C_18 
REMARK    7  A    between atoms: C_18  and  C_19 
REMARK    8  A    between atoms: C_20  and  C_21 
REMARK    9  A    between atoms: C_21  and  C_22 
REMARK   10  A    between atoms: C_22  and  C_23 
REMARK   11  A    between atoms: C_24  and  C_25 
REMARK   12  A    between atoms: C_25  and  C_26 
REMARK   13  A    between atoms: C_26  and  C_27 
REMARK   14  A    between atoms: C_28  and  C_29 
REMARK   15  A    between atoms: C_29  and  C_30 
REMARK   16  A    between atoms: C_30  and  C_31 
REMARK   17  A    between atoms: C_32  and  C_33 
REMARK   18  A    between atoms: C_33  and  C_34 
REMARK   19  A    between atoms: C_34  and  C_35 
REMARK   20  A    between atoms: C_36  and  C_37 
REMARK   21  A    between atoms: C_37  and  C_38 
REMARK   22  A    between atoms: C_38  and  C_39 
REMARK   23  A    between atoms: C_40  and  C_41 
REMARK   24  A    between atoms: C_41  and  C_42 
REMARK   25  A    between atoms: C_42  and  C_43 
REMARK   26  A    between atoms: C_44  and  C_45 
REMARK   27  A    between atoms: C_45  and  C_46 
REMARK   28  A    between atoms: C_46  and  C_47 
REMARK   29  A    between atoms: C_48  and  C_49 
REMARK   30  A    between atoms: C_49  and  C_50 
REMARK   31  A    between atoms: C_50  and  C_51 
ROOT
HETATM    1  C   UNK N   1      25.005  12.799   6.840  0.00  0.00    -0.024 C 
HETATM    2  C   UNK N   1      25.244  13.752   7.753  0.00  0.00    -0.087 C 
HETATM    3  C   UNK N   1      25.794  15.093   7.375  0.00  0.00     0.043 C 
ENDROOT
BRANCH   2   4
HETATM    4  C   UNK N   1      25.089  13.397   9.197  0.00  0.00     0.037 C 
BRANCH   4   5
HETATM    5  C   UNK N   1      23.971  12.375   9.369  0.00  0.00     0.031 C 
BRANCH   5   6
HETATM    6  C   UNK N   1      22.751  13.034   9.957  0.00  0.00    -0.024 C 
HETATM    7  C   UNK N   1      21.611  13.151   9.263  0.00  0.00    -0.087 C 
HETATM    8  C   UNK N   1      20.436  13.818   9.893  0.00  0.00     0.043 C 
BRANCH   7   9
HETATM    9  C   UNK N   1      21.483  12.588   7.877  0.00  0.00     0.037 C 
BRANCH   9  10
HETATM   10  C   UNK N   1      20.798  13.602   6.981  0.00  0.00     0.031 C 
BRANCH  10  11
HETATM   11  C   UNK N   1      21.836  14.410   6.262  0.00  0.00    -0.024 C 
HETATM   12  C   UNK N   1      21.984  15.732   6.454  0.00  0.00    -0.087 C 
HETATM   13  C   UNK N   1      21.116  16.481   7.416  0.00  0.00     0.043 C 
BRANCH  12  14
HETATM   14  C   UNK N   1      23.081  16.478   5.741  0.00  0.00     0.037 C 
BRANCH  14  15
HETATM   15  C   UNK N   1      22.858  16.626   4.223  0.00  0.00     0.031 C 
BRANCH  15  16
HETATM   16  C   UNK N   1      21.707  17.539   3.909  0.00  0.00    -0.024 C 
HETATM   17  C   UNK N   1      20.834  17.310   2.928  0.00  0.00    -0.087 C 
HETATM   18  C   UNK N   1      19.660  18.218   2.795  0.00  0.00     0.043 C 
BRANCH  17  19
HETATM   19  C   UNK N   1      21.010  16.187   1.936  0.00  0.00     0.037 C 
BRANCH  19  20
HETATM   20  C   UNK N   1      19.877  15.155   2.054  0.00  0.00     0.031 C 
BRANCH  20  21
HETATM   21  C   UNK N   1      20.281  14.032   2.971  0.00  0.00    -0.024 C 
HETATM   22  C   UNK N   1      20.877  12.915   2.541  0.00  0.00    -0.087 C 
HETATM   23  C   UNK N   1      21.383  11.945   3.555  0.00  0.00     0.043 C 
BRANCH  22  24
HETATM   24  C   UNK N   1      21.089  12.653   1.066  0.00  0.00     0.037 C 
BRANCH  24  25
HETATM   25  C   UNK N   1      22.447  13.138   0.547  0.00  0.00     0.031 C 
BRANCH  25  26
HETATM   26  C   UNK N   1      23.589  12.619   1.374  0.00  0.00    -0.024 C 
HETATM   27  C   UNK N   1      24.265  11.518   1.013  0.00  0.00    -0.087 C 
HETATM   28  C   UNK N   1      23.909  10.755  -0.227  0.00  0.00     0.043 C 
BRANCH  27  29
HETATM   29  C   UNK N   1      25.461  11.089   1.792  0.00  0.00     0.037 C 
BRANCH  29  30
HETATM   30  C   UNK N   1      26.741  11.613   1.169  0.00  0.00     0.031 C 
BRANCH  30  31
HETATM   31  C   UNK N   1      27.912  11.106   1.954  0.00  0.00    -0.024 C 
HETATM   32  C   UNK N   1      29.077  11.763   2.042  0.00  0.00    -0.091 C 
HETATM   33  C   UNK N   1      30.175  11.186   2.863  0.00  0.00     0.042 C 
HETATM   34  C   UNK N   1      29.310  13.057   1.330  0.00  0.00     0.042 C 
ENDBRANCH  30  31
ENDBRANCH  29  30
ENDBRANCH  27  29
ENDBRANCH  25  26
ENDBRANCH  24  25
ENDBRANCH  22  24
ENDBRANCH  20  21
ENDBRANCH  19  20
ENDBRANCH  17  19
ENDBRANCH  15  16
ENDBRANCH  14  15
ENDBRANCH  12  14
ENDBRANCH  10  11
ENDBRANCH   9  10
ENDBRANCH   7   9
ENDBRANCH   5   6
ENDBRANCH   4   5
ENDBRANCH   2   4
BRANCH   1  35
HETATM   35  C   UNK N   1      25.212  12.976   5.365  0.00  0.00     0.031 C 
BRANCH  35  36
HETATM   36  C   UNK N   1      26.643  12.659   4.971  0.00  0.00     0.037 C 
BRANCH  36  37
HETATM   37  C   UNK N   1      27.325  13.871   4.433  0.00  0.00    -0.087 C 
HETATM   38  C   UNK N   1      26.673  14.633   3.544  0.00  0.00    -0.024 C 
HETATM   39  C   UNK N   1      28.686  14.228   4.941  0.00  0.00     0.043 C 
BRANCH  38  40
HETATM   40  C   UNK N   1      27.240  15.902   2.984  0.00  0.00     0.031 C 
BRANCH  40  41
HETATM   41  C   UNK N   1      26.254  17.039   3.243  0.00  0.00     0.037 C 
BRANCH  41  42
HETATM   42  C   UNK N   1      26.890  18.051   4.144  0.00  0.00    -0.087 C 
HETATM   43  C   UNK N   1      27.319  17.668   5.356  0.00  0.00    -0.024 C 
HETATM   44  C   UNK N   1      26.902  19.486   3.715  0.00  0.00     0.043 C 
BRANCH  43  45
HETATM   45  C   UNK N   1      27.825  18.612   6.401  0.00  0.00     0.031 C 
BRANCH  45  46
HETATM   46  C   UNK N   1      29.257  18.327   6.818  0.00  0.00     0.037 C 
BRANCH  46  47
HETATM   47  C   UNK N   1      29.251  17.411   8.002  0.00  0.00    -0.087 C 
HETATM   48  C   UNK N   1      30.201  16.485   8.192  0.00  0.00    -0.020 C 
HETATM   49  C   UNK N   1      28.145  17.526   8.994  0.00  0.00     0.043 C 
BRANCH  48  50
HETATM   50  C   UNK N   1      31.366  16.302   7.259  0.00  0.00     0.071 C 
BRANCH  50  51
HETATM   51  C   UNK N   1      32.645  16.009   8.009  0.00  0.00     0.008 A 
HETATM   52  C   UNK N   1      33.071  14.597   8.180  0.00  0.00     0.215 A 
HETATM   53  C   UNK N   1      34.311  14.261   8.926  0.00  0.00     0.156 A 
HETATM   54  O   UNK N   1      32.392  13.697   7.709  0.00  0.00    -0.285 OA
HETATM   55  C   UNK N   1      35.071  15.258   9.462  0.00  0.00     0.156 A 
HETATM   56  C   UNK N   1      34.637  16.686   9.279  0.00  0.00     0.214 A 
HETATM   57  C   UNK N   1      33.391  17.002   8.536  0.00  0.00     0.002 A 
HETATM   58  O   UNK N   1      35.298  17.601   9.740  0.00  0.00    -0.285 OA
HETATM   59  C   UNK N   1      32.978  18.439   8.395  0.00  0.00     0.053 C 
BRANCH  53  60
HETATM   60  O   UNK N   1      34.622  12.931   9.037  0.00  0.00    -0.350 OA
HETATM   61  C   UNK N   1      34.309  12.098  10.087  0.00  0.00     0.210 C 
ENDBRANCH  53  60
BRANCH  55  62
HETATM   62  O   UNK N   1      36.205  14.942  10.153  0.00  0.00    -0.350 OA
HETATM   63  C   UNK N   1      37.347  14.399   9.613  0.00  0.00     0.210 C 
ENDBRANCH  55  62
ENDBRANCH  50  51
ENDBRANCH  48  50
ENDBRANCH  46  47
ENDBRANCH  45  46
ENDBRANCH  43  45
ENDBRANCH  41  42
ENDBRANCH  40  41
ENDBRANCH  38  40
ENDBRANCH  36  37
ENDBRANCH  35  36
ENDBRANCH   1  35
TORSDOF 31
ENDMDL
MODEL 6
REMARK VINA RESULT:      -6.2     13.345     16.902
REMARK  31 active torsions:
REMARK  status: ('A' for Active; 'I' for Inactive)
REMARK    1  A    between atoms: C_2  and  C_14 
REMARK    2  A    between atoms: C_5  and  O_12 
REMARK    3  A    between atoms: C_6  and  O_10 
REMARK    4  A    between atoms: C_14  and  C_15 
REMARK    5  A    between atoms: C_16  and  C_17 
REMARK    6  A    between atoms: C_17  and  C_18 
REMARK    7  A    between atoms: C_18  and  C_19 
REMARK    8  A    between atoms: C_20  and  C_21 
REMARK    9  A    between atoms: C_21  and  C_22 
REMARK   10  A    between atoms: C_22  and  C_23 
REMARK   11  A    between atoms: C_24  and  C_25 
REMARK   12  A    between atoms: C_25  and  C_26 
REMARK   13  A    between atoms: C_26  and  C_27 
REMARK   14  A    between atoms: C_28  and  C_29 
REMARK   15  A    between atoms: C_29  and  C_30 
REMARK   16  A    between atoms: C_30  and  C_31 
REMARK   17  A    between atoms: C_32  and  C_33 
REMARK   18  A    between atoms: C_33  and  C_34 
REMARK   19  A    between atoms: C_34  and  C_35 
REMARK   20  A    between atoms: C_36  and  C_37 
REMARK   21  A    between atoms: C_37  and  C_38 
REMARK   22  A    between atoms: C_38  and  C_39 
REMARK   23  A    between atoms: C_40  and  C_41 
REMARK   24  A    between atoms: C_41  and  C_42 
REMARK   25  A    between atoms: C_42  and  C_43 
REMARK   26  A    between atoms: C_44  and  C_45 
REMARK   27  A    between atoms: C_45  and  C_46 
REMARK   28  A    between atoms: C_46  and  C_47 
REMARK   29  A    between atoms: C_48  and  C_49 
REMARK   30  A    between atoms: C_49  and  C_50 
REMARK   31  A    between atoms: C_50  and  C_51 
ROOT
HETATM    1  C   UNK N   1      28.146  23.314  -5.674  0.00  0.00    -0.024 C 
HETATM    2  C   UNK N   1      27.144  23.939  -5.038  0.00  0.00    -0.087 C 
HETATM    3  C   UNK N   1      27.335  24.587  -3.701  0.00  0.00     0.043 C 
ENDROOT
BRANCH   2   4
HETATM    4  C   UNK N   1      25.774  23.852  -5.629  0.00  0.00     0.037 C 
BRANCH   4   5
HETATM    5  C   UNK N   1      25.836  23.193  -7.003  0.00  0.00     0.031 C 
BRANCH   5   6
HETATM    6  C   UNK N   1      25.473  24.188  -8.073  0.00  0.00    -0.024 C 
HETATM    7  C   UNK N   1      26.147  24.257  -9.228  0.00  0.00    -0.087 C 
HETATM    8  C   UNK N   1      25.749  25.266 -10.249  0.00  0.00     0.043 C 
BRANCH   7   9
HETATM    9  C   UNK N   1      27.272  23.308  -9.529  0.00  0.00     0.037 C 
BRANCH   9  10
HETATM   10  C   UNK N   1      28.544  24.097  -9.779  0.00  0.00     0.031 C 
BRANCH  10  11
HETATM   11  C   UNK N   1      28.924  24.834  -8.530  0.00  0.00    -0.024 C 
HETATM   12  C   UNK N   1      29.126  26.162  -8.509  0.00  0.00    -0.087 C 
HETATM   13  C   UNK N   1      28.972  26.993  -9.744  0.00  0.00     0.043 C 
BRANCH  12  14
HETATM   14  C   UNK N   1      29.454  26.853  -7.211  0.00  0.00     0.037 C 
BRANCH  14  15
HETATM   15  C   UNK N   1      28.403  27.890  -6.767  0.00  0.00     0.031 C 
BRANCH  15  16
HETATM   16  C   UNK N   1      27.050  27.268  -6.564  0.00  0.00    -0.024 C 
HETATM   17  C   UNK N   1      26.143  27.747  -5.712  0.00  0.00    -0.087 C 
HETATM   18  C   UNK N   1      24.790  27.122  -5.692  0.00  0.00     0.043 C 
BRANCH  17  19
HETATM   19  C   UNK N   1      26.448  28.872  -4.754  0.00  0.00     0.037 C 
BRANCH  19  20
HETATM   20  C   UNK N   1      26.687  28.343  -3.330  0.00  0.00     0.031 C 
BRANCH  20  21
HETATM   21  C   UNK N   1      27.768  29.139  -2.649  0.00  0.00    -0.024 C 
HETATM   22  C   UNK N   1      29.069  28.850  -2.759  0.00  0.00    -0.087 C 
HETATM   23  C   UNK N   1      30.058  29.803  -2.178  0.00  0.00     0.043 C 
BRANCH  22  24
HETATM   24  C   UNK N   1      29.542  27.619  -3.500  0.00  0.00     0.037 C 
BRANCH  24  25
HETATM   25  C   UNK N   1      31.066  27.451  -3.497  0.00  0.00     0.031 C 
BRANCH  25  26
HETATM   26  C   UNK N   1      31.487  26.084  -3.955  0.00  0.00    -0.024 C 
HETATM   27  C   UNK N   1      32.498  25.921  -4.821  0.00  0.00    -0.087 C 
HETATM   28  C   UNK N   1      33.249  27.094  -5.373  0.00  0.00     0.043 C 
BRANCH  27  29
HETATM   29  C   UNK N   1      32.964  24.549  -5.173  0.00  0.00     0.037 C 
BRANCH  29  30
HETATM   30  C   UNK N   1      33.324  24.449  -6.643  0.00  0.00     0.031 C 
BRANCH  30  31
HETATM   31  C   UNK N   1      32.243  23.703  -7.363  0.00  0.00    -0.024 C 
HETATM   32  C   UNK N   1      32.350  22.414  -7.714  0.00  0.00    -0.091 C 
HETATM   33  C   UNK N   1      31.212  21.756  -8.410  0.00  0.00     0.042 C 
HETATM   34  C   UNK N   1      33.584  21.618  -7.434  0.00  0.00     0.042 C 
ENDBRANCH  30  31
ENDBRANCH  29  30
ENDBRANCH  27  29
ENDBRANCH  25  26
ENDBRANCH  24  25
ENDBRANCH  22  24
ENDBRANCH  20  21
ENDBRANCH  19  20
ENDBRANCH  17  19
ENDBRANCH  15  16
ENDBRANCH  14  15
ENDBRANCH  12  14
ENDBRANCH  10  11
ENDBRANCH   9  10
ENDBRANCH   7   9
ENDBRANCH   5   6
ENDBRANCH   4   5
ENDBRANCH   2   4
BRANCH   1  35
HETATM   35  C   UNK N   1      29.551  23.232  -5.153  0.00  0.00     0.031 C 
BRANCH  35  36
HETATM   36  C   UNK N   1      29.941  21.796  -4.855  0.00  0.00     0.037 C 
BRANCH  36  37
HETATM   37  C   UNK N   1      31.082  21.744  -3.897  0.00  0.00    -0.087 C 
HETATM   38  C   UNK N   1      32.164  21.025  -4.225  0.00  0.00    -0.024 C 
HETATM   39  C   UNK N   1      31.007  22.538  -2.630  0.00  0.00     0.043 C 
BRANCH  38  40
HETATM   40  C   UNK N   1      33.389  20.953  -3.364  0.00  0.00     0.031 C 
BRANCH  40  41
HETATM   41  C   UNK N   1      34.284  19.826  -3.874  0.00  0.00     0.037 C 
BRANCH  41  42
HETATM   42  C   UNK N   1      35.527  20.410  -4.467  0.00  0.00    -0.087 C 
HETATM   43  C   UNK N   1      35.893  21.654  -4.123  0.00  0.00    -0.024 C 
HETATM   44  C   UNK N   1      36.247  19.636  -5.528  0.00  0.00     0.043 C 
BRANCH  43  45
HETATM   45  C   UNK N   1      37.021  22.402  -4.761  0.00  0.00     0.031 C 
BRANCH  45  46
HETATM   46  C   UNK N   1      38.023  22.942  -3.756  0.00  0.00     0.037 C 
BRANCH  46  47
HETATM   47  C   UNK N   1      39.059  21.896  -3.485  0.00  0.00    -0.087 C 
HETATM   48  C   UNK N   1      39.521  21.655  -2.250  0.00  0.00    -0.020 C 
HETATM   49  C   UNK N   1      39.601  21.108  -4.627  0.00  0.00     0.043 C 
BRANCH  48  50
HETATM   50  C   UNK N   1      39.026  22.384  -1.032  0.00  0.00     0.071 C 
BRANCH  50  51
HETATM   51  C   UNK N   1      40.147  22.685  -0.064  0.00  0.00     0.008 A 
HETATM   52  C   UNK N   1      41.004  23.873  -0.303  0.00  0.00     0.215 A 
HETATM   53  C   UNK N   1      42.130  24.198   0.611  0.00  0.00     0.156 A 
HETATM   54  O   UNK N   1      40.790  24.592  -1.267  0.00  0.00    -0.285 OA
HETATM   55  C   UNK N   1      42.383  23.397   1.686  0.00  0.00     0.156 A 
HETATM   56  C   UNK N   1      41.506  22.199   1.926  0.00  0.00     0.214 A 
HETATM   57  C   UNK N   1      40.391  21.887   0.997  0.00  0.00     0.002 A 
HETATM   58  O   UNK N   1      41.701  21.467   2.882  0.00  0.00    -0.285 OA
HETATM   59  C   UNK N   1      39.552  20.668   1.257  0.00  0.00     0.053 C 
BRANCH  53  60
HETATM   60  O   UNK N   1      42.869  25.311   0.309  0.00  0.00    -0.350 OA
HETATM   61  C   UNK N   1      43.997  25.359  -0.478  0.00  0.00     0.210 C 
ENDBRANCH  53  60
BRANCH  55  62
HETATM   62  O   UNK N   1      43.422  23.696   2.518  0.00  0.00    -0.350 OA
HETATM   63  C   UNK N   1      44.687  23.160   2.443  0.00  0.00     0.210 C 
ENDBRANCH  55  62
ENDBRANCH  50  51
ENDBRANCH  48  50
ENDBRANCH  46  47
ENDBRANCH  45  46
ENDBRANCH  43  45
ENDBRANCH  41  42
ENDBRANCH  40  41
ENDBRANCH  38  40
ENDBRANCH  36  37
ENDBRANCH  35  36
ENDBRANCH   1  35
TORSDOF 31
ENDMDL
MODEL 7
REMARK VINA RESULT:      -6.1      1.733      4.176
REMARK  31 active torsions:
REMARK  status: ('A' for Active; 'I' for Inactive)
REMARK    1  A    between atoms: C_2  and  C_14 
REMARK    2  A    between atoms: C_5  and  O_12 
REMARK    3  A    between atoms: C_6  and  O_10 
REMARK    4  A    between atoms: C_14  and  C_15 
REMARK    5  A    between atoms: C_16  and  C_17 
REMARK    6  A    between atoms: C_17  and  C_18 
REMARK    7  A    between atoms: C_18  and  C_19 
REMARK    8  A    between atoms: C_20  and  C_21 
REMARK    9  A    between atoms: C_21  and  C_22 
REMARK   10  A    between atoms: C_22  and  C_23 
REMARK   11  A    between atoms: C_24  and  C_25 
REMARK   12  A    between atoms: C_25  and  C_26 
REMARK   13  A    between atoms: C_26  and  C_27 
REMARK   14  A    between atoms: C_28  and  C_29 
REMARK   15  A    between atoms: C_29  and  C_30 
REMARK   16  A    between atoms: C_30  and  C_31 
REMARK   17  A    between atoms: C_32  and  C_33 
REMARK   18  A    between atoms: C_33  and  C_34 
REMARK   19  A    between atoms: C_34  and  C_35 
REMARK   20  A    between atoms: C_36  and  C_37 
REMARK   21  A    between atoms: C_37  and  C_38 
REMARK   22  A    between atoms: C_38  and  C_39 
REMARK   23  A    between atoms: C_40  and  C_41 
REMARK   24  A    between atoms: C_41  and  C_42 
REMARK   25  A    between atoms: C_42  and  C_43 
REMARK   26  A    between atoms: C_44  and  C_45 
REMARK   27  A    between atoms: C_45  and  C_46 
REMARK   28  A    between atoms: C_46  and  C_47 
REMARK   29  A    between atoms: C_48  and  C_49 
REMARK   30  A    between atoms: C_49  and  C_50 
REMARK   31  A    between atoms: C_50  and  C_51 
ROOT
HETATM    1  C   UNK N   1      23.379  13.709   7.464  0.00  0.00    -0.024 C 
HETATM    2  C   UNK N   1      24.474  14.174   6.844  0.00  0.00    -0.087 C 
HETATM    3  C   UNK N   1      24.597  15.605   6.419  0.00  0.00     0.043 C 
ENDROOT
BRANCH   2   4
HETATM    4  C   UNK N   1      25.527  13.191   6.445  0.00  0.00     0.037 C 
BRANCH   4   5
HETATM    5  C   UNK N   1      26.477  13.821   5.432  0.00  0.00     0.031 C 
BRANCH   5   6
HETATM    6  C   UNK N   1      26.705  12.880   4.280  0.00  0.00    -0.024 C 
HETATM    7  C   UNK N   1      27.094  13.321   3.076  0.00  0.00    -0.087 C 
HETATM    8  C   UNK N   1      27.299  12.345   1.969  0.00  0.00     0.043 C 
BRANCH   7   9
HETATM    9  C   UNK N   1      27.364  14.778   2.834  0.00  0.00     0.037 C 
BRANCH   9  10
HETATM   10  C   UNK N   1      26.053  15.543   2.843  0.00  0.00     0.031 C 
BRANCH  10  11
HETATM   11  C   UNK N   1      25.190  15.060   1.715  0.00  0.00    -0.024 C 
HETATM   12  C   UNK N   1      23.967  14.542   1.913  0.00  0.00    -0.087 C 
HETATM   13  C   UNK N   1      23.384  14.423   3.286  0.00  0.00     0.043 C 
BRANCH  12  14
HETATM   14  C   UNK N   1      23.127  14.124   0.734  0.00  0.00     0.037 C 
BRANCH  14  15
HETATM   15  C   UNK N   1      23.688  12.915  -0.041  0.00  0.00     0.031 C 
BRANCH  15  16
HETATM   16  C   UNK N   1      23.997  11.758   0.866  0.00  0.00    -0.024 C 
HETATM   17  C   UNK N   1      23.338  10.600   0.830  0.00  0.00    -0.087 C 
HETATM   18  C   UNK N   1      23.819   9.482   1.690  0.00  0.00     0.043 C 
BRANCH  17  19
HETATM   19  C   UNK N   1      22.111  10.395  -0.025  0.00  0.00     0.037 C 
BRANCH  19  20
HETATM   20  C   UNK N   1      20.823  10.575   0.796  0.00  0.00     0.031 C 
BRANCH  20  21
HETATM   21  C   UNK N   1      20.331  11.994   0.698  0.00  0.00    -0.024 C 
HETATM   22  C   UNK N   1      19.448  12.522   1.552  0.00  0.00    -0.087 C 
HETATM   23  C   UNK N   1      19.159  13.983   1.460  0.00  0.00     0.043 C 
BRANCH  22  24
HETATM   24  C   UNK N   1      18.791  11.683   2.625  0.00  0.00     0.037 C 
BRANCH  24  25
HETATM   25  C   UNK N   1      19.182  12.095   4.049  0.00  0.00     0.031 C 
BRANCH  25  26
HETATM   26  C   UNK N   1      20.672  12.159   4.232  0.00  0.00    -0.024 C 
HETATM   27  C   UNK N   1      21.378  11.072   4.574  0.00  0.00    -0.087 C 
HETATM   28  C   UNK N   1      20.714   9.747   4.792  0.00  0.00     0.043 C 
BRANCH  27  29
HETATM   29  C   UNK N   1      22.866  11.141   4.642  0.00  0.00     0.037 C 
BRANCH  29  30
HETATM   30  C   UNK N   1      23.401  10.355   5.824  0.00  0.00     0.031 C 
BRANCH  30  31
HETATM   31  C   UNK N   1      24.750   9.805   5.478  0.00  0.00    -0.024 C 
HETATM   32  C   UNK N   1      24.950   8.533   5.105  0.00  0.00    -0.091 C 
HETATM   33  C   UNK N   1      26.327   8.086   4.762  0.00  0.00     0.042 C 
HETATM   34  C   UNK N   1      23.831   7.544   5.033  0.00  0.00     0.042 C 
ENDBRANCH  30  31
ENDBRANCH  29  30
ENDBRANCH  27  29
ENDBRANCH  25  26
ENDBRANCH  24  25
ENDBRANCH  22  24
ENDBRANCH  20  21
ENDBRANCH  19  20
ENDBRANCH  17  19
ENDBRANCH  15  16
ENDBRANCH  14  15
ENDBRANCH  12  14
ENDBRANCH  10  11
ENDBRANCH   9  10
ENDBRANCH   7   9
ENDBRANCH   5   6
ENDBRANCH   4   5
ENDBRANCH   2   4
BRANCH   1  35
HETATM   35  C   UNK N   1      22.199  14.557   7.836  0.00  0.00     0.031 C 
BRANCH  35  36
HETATM   36  C   UNK N   1      21.077  14.409   6.825  0.00  0.00     0.037 C 
BRANCH  36  37
HETATM   37  C   UNK N   1      20.826  15.698   6.119  0.00  0.00    -0.087 C 
HETATM   38  C   UNK N   1      20.246  15.666   4.912  0.00  0.00    -0.024 C 
HETATM   39  C   UNK N   1      21.177  16.983   6.801  0.00  0.00     0.043 C 
BRANCH  38  40
HETATM   40  C   UNK N   1      19.894  16.903   4.141  0.00  0.00     0.031 C 
BRANCH  40  41
HETATM   41  C   UNK N   1      20.921  17.099   3.028  0.00  0.00     0.037 C 
BRANCH  41  42
HETATM   42  C   UNK N   1      21.793  18.269   3.359  0.00  0.00    -0.087 C 
HETATM   43  C   UNK N   1      23.091  18.060   3.628  0.00  0.00    -0.024 C 
HETATM   44  C   UNK N   1      21.159  19.617   3.510  0.00  0.00     0.043 C 
BRANCH  43  45
HETATM   45  C   UNK N   1      24.025  19.121   4.121  0.00  0.00     0.031 C 
BRANCH  45  46
HETATM   46  C   UNK N   1      25.191  18.564   4.918  0.00  0.00     0.037 C 
BRANCH  46  47
HETATM   47  C   UNK N   1      26.473  19.051   4.317  0.00  0.00    -0.087 C 
HETATM   48  C   UNK N   1      27.657  18.501   4.621  0.00  0.00    -0.020 C 
HETATM   49  C   UNK N   1      26.430  20.193   3.361  0.00  0.00     0.043 C 
BRANCH  48  50
HETATM   50  C   UNK N   1      27.803  17.336   5.560  0.00  0.00     0.071 C 
BRANCH  50  51
HETATM   51  C   UNK N   1      29.105  17.392   6.326  0.00  0.00     0.008 A 
HETATM   52  C   UNK N   1      30.307  16.738   5.749  0.00  0.00     0.215 A 
HETATM   53  C   UNK N   1      31.603  16.752   6.476  0.00  0.00     0.156 A 
HETATM   54  O   UNK N   1      30.232  16.175   4.668  0.00  0.00    -0.285 OA
HETATM   55  C   UNK N   1      31.696  17.371   7.687  0.00  0.00     0.156 A 
HETATM   56  C   UNK N   1      30.475  18.037   8.261  0.00  0.00     0.214 A 
HETATM   57  C   UNK N   1      29.187  18.007   7.524  0.00  0.00     0.002 A 
HETATM   58  O   UNK N   1      30.526  18.606   9.339  0.00  0.00    -0.285 OA
HETATM   59  C   UNK N   1      27.985  18.663   8.141  0.00  0.00     0.053 C 
BRANCH  53  60
HETATM   60  O   UNK N   1      32.657  16.119   5.869  0.00  0.00    -0.350 OA
HETATM   61  C   UNK N   1      33.449  16.623   4.863  0.00  0.00     0.210 C 
ENDBRANCH  53  60
BRANCH  55  62
HETATM   62  O   UNK N   1      32.887  17.374   8.353  0.00  0.00    -0.350 OA
HETATM   63  C   UNK N   1      33.945  18.214   8.097  0.00  0.00     0.210 C 
ENDBRANCH  55  62
ENDBRANCH  50  51
ENDBRANCH  48  50
ENDBRANCH  46  47
ENDBRANCH  45  46
ENDBRANCH  43  45
ENDBRANCH  41  42
ENDBRANCH  40  41
ENDBRANCH  38  40
ENDBRANCH  36  37
ENDBRANCH  35  36
ENDBRANCH   1  35
TORSDOF 31
ENDMDL
MODEL 8
REMARK VINA RESULT:      -6.1     13.281     16.520
REMARK  31 active torsions:
REMARK  status: ('A' for Active; 'I' for Inactive)
REMARK    1  A    between atoms: C_2  and  C_14 
REMARK    2  A    between atoms: C_5  and  O_12 
REMARK    3  A    between atoms: C_6  and  O_10 
REMARK    4  A    between atoms: C_14  and  C_15 
REMARK    5  A    between atoms: C_16  and  C_17 
REMARK    6  A    between atoms: C_17  and  C_18 
REMARK    7  A    between atoms: C_18  and  C_19 
REMARK    8  A    between atoms: C_20  and  C_21 
REMARK    9  A    between atoms: C_21  and  C_22 
REMARK   10  A    between atoms: C_22  and  C_23 
REMARK   11  A    between atoms: C_24  and  C_25 
REMARK   12  A    between atoms: C_25  and  C_26 
REMARK   13  A    between atoms: C_26  and  C_27 
REMARK   14  A    between atoms: C_28  and  C_29 
REMARK   15  A    between atoms: C_29  and  C_30 
REMARK   16  A    between atoms: C_30  and  C_31 
REMARK   17  A    between atoms: C_32  and  C_33 
REMARK   18  A    between atoms: C_33  and  C_34 
REMARK   19  A    between atoms: C_34  and  C_35 
REMARK   20  A    between atoms: C_36  and  C_37 
REMARK   21  A    between atoms: C_37  and  C_38 
REMARK   22  A    between atoms: C_38  and  C_39 
REMARK   23  A    between atoms: C_40  and  C_41 
REMARK   24  A    between atoms: C_41  and  C_42 
REMARK   25  A    between atoms: C_42  and  C_43 
REMARK   26  A    between atoms: C_44  and  C_45 
REMARK   27  A    between atoms: C_45  and  C_46 
REMARK   28  A    between atoms: C_46  and  C_47 
REMARK   29  A    between atoms: C_48  and  C_49 
REMARK   30  A    between atoms: C_49  and  C_50 
REMARK   31  A    between atoms: C_50  and  C_51 
ROOT
HETATM    1  C   UNK N   1      27.186  28.846  -5.943  0.00  0.00    -0.024 C 
HETATM    2  C   UNK N   1      27.472  29.204  -4.682  0.00  0.00    -0.087 C 
HETATM    3  C   UNK N   1      28.870  29.511  -4.242  0.00  0.00     0.043 C 
ENDROOT
BRANCH   2   4
HETATM    4  C   UNK N   1      26.373  29.148  -3.670  0.00  0.00     0.037 C 
BRANCH   4   5
HETATM    5  C   UNK N   1      25.579  27.857  -3.828  0.00  0.00     0.031 C 
BRANCH   5   6
HETATM    6  C   UNK N   1      26.394  26.684  -3.353  0.00  0.00    -0.024 C 
HETATM    7  C   UNK N   1      26.306  25.481  -3.937  0.00  0.00    -0.087 C 
HETATM    8  C   UNK N   1      27.132  24.354  -3.421  0.00  0.00     0.043 C 
BRANCH   7   9
HETATM    9  C   UNK N   1      25.419  25.261  -5.129  0.00  0.00     0.037 C 
BRANCH   9  10
HETATM   10  C   UNK N   1      26.270  24.874  -6.325  0.00  0.00     0.031 C 
BRANCH  10  11
HETATM   11  C   UNK N   1      26.027  23.433  -6.660  0.00  0.00    -0.024 C 
HETATM   12  C   UNK N   1      25.618  23.033  -7.876  0.00  0.00    -0.087 C 
HETATM   13  C   UNK N   1      25.389  24.014  -8.983  0.00  0.00     0.043 C 
BRANCH  12  14
HETATM   14  C   UNK N   1      25.443  21.565  -8.167  0.00  0.00     0.037 C 
BRANCH  14  15
HETATM   15  C   UNK N   1      25.791  21.164  -9.614  0.00  0.00     0.031 C 
BRANCH  15  16
HETATM   16  C   UNK N   1      27.267  20.958  -9.802  0.00  0.00    -0.024 C 
HETATM   17  C   UNK N   1      27.916  21.277 -10.922  0.00  0.00    -0.087 C 
HETATM   18  C   UNK N   1      29.401  21.147 -10.944  0.00  0.00     0.043 C 
BRANCH  17  19
HETATM   19  C   UNK N   1      27.200  21.734 -12.169  0.00  0.00     0.037 C 
BRANCH  19  20
HETATM   20  C   UNK N   1      26.993  23.258 -12.167  0.00  0.00     0.031 C 
BRANCH  20  21
HETATM   21  C   UNK N   1      28.188  23.952 -12.762  0.00  0.00    -0.024 C 
HETATM   22  C   UNK N   1      29.000  24.746 -12.055  0.00  0.00    -0.087 C 
HETATM   23  C   UNK N   1      30.245  25.246 -12.706  0.00  0.00     0.043 C 
BRANCH  22  24
HETATM   24  C   UNK N   1      28.704  25.091 -10.613  0.00  0.00     0.037 C 
BRANCH  24  25
HETATM   25  C   UNK N   1      29.752  24.560  -9.629  0.00  0.00     0.031 C 
BRANCH  25  26
HETATM   26  C   UNK N   1      29.130  23.789  -8.499  0.00  0.00    -0.024 C 
HETATM   27  C   UNK N   1      29.886  23.184  -7.571  0.00  0.00    -0.087 C 
HETATM   28  C   UNK N   1      31.382  23.245  -7.622  0.00  0.00     0.043 C 
BRANCH  27  29
HETATM   29  C   UNK N   1      29.242  22.519  -6.403  0.00  0.00     0.037 C 
BRANCH  29  30
HETATM   30  C   UNK N   1      29.944  21.222  -6.050  0.00  0.00     0.031 C 
BRANCH  30  31
HETATM   31  C   UNK N   1      29.551  20.166  -7.037  0.00  0.00    -0.024 C 
HETATM   32  C   UNK N   1      30.441  19.426  -7.713  0.00  0.00    -0.091 C 
HETATM   33  C   UNK N   1      29.951  18.388  -8.659  0.00  0.00     0.042 C 
HETATM   34  C   UNK N   1      31.915  19.618  -7.551  0.00  0.00     0.042 C 
ENDBRANCH  30  31
ENDBRANCH  29  30
ENDBRANCH  27  29
ENDBRANCH  25  26
ENDBRANCH  24  25
ENDBRANCH  22  24
ENDBRANCH  20  21
ENDBRANCH  19  20
ENDBRANCH  17  19
ENDBRANCH  15  16
ENDBRANCH  14  15
ENDBRANCH  12  14
ENDBRANCH  10  11
ENDBRANCH   9  10
ENDBRANCH   7   9
ENDBRANCH   5   6
ENDBRANCH   4   5
ENDBRANCH   2   4
BRANCH   1  35
HETATM   35  C   UNK N   1      28.202  28.759  -7.043  0.00  0.00     0.031 C 
BRANCH  35  36
HETATM   36  C   UNK N   1      28.526  27.314  -7.375  0.00  0.00     0.037 C 
BRANCH  36  37
HETATM   37  C   UNK N   1      29.807  26.897  -6.735  0.00  0.00    -0.087 C 
HETATM   38  C   UNK N   1      29.755  26.182  -5.603  0.00  0.00    -0.024 C 
HETATM   39  C   UNK N   1      31.102  27.240  -7.402  0.00  0.00     0.043 C 
BRANCH  38  40
HETATM   40  C   UNK N   1      30.977  25.661  -4.909  0.00  0.00     0.031 C 
BRANCH  40  41
HETATM   41  C   UNK N   1      30.582  25.167  -3.520  0.00  0.00     0.037 C 
BRANCH  41  42
HETATM   42  C   UNK N   1      31.078  23.767  -3.332  0.00  0.00    -0.087 C 
HETATM   43  C   UNK N   1      32.167  23.365  -4.004  0.00  0.00    -0.024 C 
HETATM   44  C   UNK N   1      30.262  22.823  -2.503  0.00  0.00     0.043 C 
BRANCH  43  45
HETATM   45  C   UNK N   1      32.666  21.954  -4.020  0.00  0.00     0.031 C 
BRANCH  45  46
HETATM   46  C   UNK N   1      33.751  21.718  -5.055  0.00  0.00     0.037 C 
BRANCH  46  47
HETATM   47  C   UNK N   1      34.630  20.595  -4.598  0.00  0.00    -0.087 C 
HETATM   48  C   UNK N   1      35.961  20.625  -4.749  0.00  0.00    -0.020 C 
HETATM   49  C   UNK N   1      34.001  19.402  -3.966  0.00  0.00     0.043 C 
BRANCH  48  50
HETATM   50  C   UNK N   1      36.692  21.790  -5.358  0.00  0.00     0.071 C 
BRANCH  50  51
HETATM   51  C   UNK N   1      37.445  22.586  -4.317  0.00  0.00     0.008 A 
HETATM   52  C   UNK N   1      38.383  21.878  -3.410  0.00  0.00     0.215 A 
HETATM   53  C   UNK N   1      39.131  22.617  -2.359  0.00  0.00     0.156 A 
HETATM   54  O   UNK N   1      38.539  20.672  -3.520  0.00  0.00    -0.285 OA
HETATM   55  C   UNK N   1      38.957  23.962  -2.223  0.00  0.00     0.156 A 
HETATM   56  C   UNK N   1      38.010  24.674  -3.150  0.00  0.00     0.214 A 
HETATM   57  C   UNK N   1      37.267  23.918  -4.189  0.00  0.00     0.002 A 
HETATM   58  O   UNK N   1      37.837  25.878  -3.059  0.00  0.00    -0.285 OA
HETATM   59  C   UNK N   1      36.312  24.660  -5.080  0.00  0.00     0.053 C 
BRANCH  53  60
HETATM   60  O   UNK N   1      39.970  21.880  -1.566  0.00  0.00    -0.350 OA
HETATM   61  C   UNK N   1      39.789  21.578  -0.236  0.00  0.00     0.210 C 
ENDBRANCH  53  60
BRANCH  55  62
HETATM   62  O   UNK N   1      39.640  24.634  -1.252  0.00  0.00    -0.350 OA
HETATM   63  C   UNK N   1      40.963  25.006  -1.315  0.00  0.00     0.210 C 
ENDBRANCH  55  62
ENDBRANCH  50  51
ENDBRANCH  48  50
ENDBRANCH  46  47
ENDBRANCH  45  46
ENDBRANCH  43  45
ENDBRANCH  41  42
ENDBRANCH  40  41
ENDBRANCH  38  40
ENDBRANCH  36  37
ENDBRANCH  35  36
ENDBRANCH   1  35
TORSDOF 31
ENDMDL
MODEL 9
REMARK VINA RESULT:      -6.1      2.040      6.373
REMARK  31 active torsions:
REMARK  status: ('A' for Active; 'I' for Inactive)
REMARK    1  A    between atoms: C_2  and  C_14 
REMARK    2  A    between atoms: C_5  and  O_12 
REMARK    3  A    between atoms: C_6  and  O_10 
REMARK    4  A    between atoms: C_14  and  C_15 
REMARK    5  A    between atoms: C_16  and  C_17 
REMARK    6  A    between atoms: C_17  and  C_18 
REMARK    7  A    between atoms: C_18  and  C_19 
REMARK    8  A    between atoms: C_20  and  C_21 
REMARK    9  A    between atoms: C_21  and  C_22 
REMARK   10  A    between atoms: C_22  and  C_23 
REMARK   11  A    between atoms: C_24  and  C_25 
REMARK   12  A    between atoms: C_25  and  C_26 
REMARK   13  A    between atoms: C_26  and  C_27 
REMARK   14  A    between atoms: C_28  and  C_29 
REMARK   15  A    between atoms: C_29  and  C_30 
REMARK   16  A    between atoms: C_30  and  C_31 
REMARK   17  A    between atoms: C_32  and  C_33 
REMARK   18  A    between atoms: C_33  and  C_34 
REMARK   19  A    between atoms: C_34  and  C_35 
REMARK   20  A    between atoms: C_36  and  C_37 
REMARK   21  A    between atoms: C_37  and  C_38 
REMARK   22  A    between atoms: C_38  and  C_39 
REMARK   23  A    between atoms: C_40  and  C_41 
REMARK   24  A    between atoms: C_41  and  C_42 
REMARK   25  A    between atoms: C_42  and  C_43 
REMARK   26  A    between atoms: C_44  and  C_45 
REMARK   27  A    between atoms: C_45  and  C_46 
REMARK   28  A    between atoms: C_46  and  C_47 
REMARK   29  A    between atoms: C_48  and  C_49 
REMARK   30  A    between atoms: C_49  and  C_50 
REMARK   31  A    between atoms: C_50  and  C_51 
ROOT
HETATM    1  C   UNK N   1      25.220  12.812   6.540  0.00  0.00    -0.024 C 
HETATM    2  C   UNK N   1      25.259  13.886   7.343  0.00  0.00    -0.087 C 
HETATM    3  C   UNK N   1      25.537  15.260   6.816  0.00  0.00     0.043 C 
ENDROOT
BRANCH   2   4
HETATM    4  C   UNK N   1      25.165  13.665   8.818  0.00  0.00     0.037 C 
BRANCH   4   5
HETATM    5  C   UNK N   1      24.595  12.281   9.107  0.00  0.00     0.031 C 
BRANCH   5   6
HETATM    6  C   UNK N   1      24.198  12.174  10.555  0.00  0.00    -0.024 C 
HETATM    7  C   UNK N   1      22.915  12.206  10.938  0.00  0.00    -0.087 C 
HETATM    8  C   UNK N   1      22.580  12.102  12.386  0.00  0.00     0.043 C 
BRANCH   7   9
HETATM    9  C   UNK N   1      21.806  12.304   9.930  0.00  0.00     0.037 C 
BRANCH   9  10
HETATM   10  C   UNK N   1      21.377  13.753   9.792  0.00  0.00     0.031 C 
BRANCH  10  11
HETATM   11  C   UNK N   1      21.697  14.235   8.409  0.00  0.00    -0.024 C 
HETATM   12  C   UNK N   1      21.268  15.419   7.940  0.00  0.00    -0.087 C 
HETATM   13  C   UNK N   1      20.445  16.340   8.785  0.00  0.00     0.043 C 
BRANCH  12  14
HETATM   14  C   UNK N   1      21.668  15.871   6.559  0.00  0.00     0.037 C 
BRANCH  14  15
HETATM   15  C   UNK N   1      20.486  16.317   5.676  0.00  0.00     0.031 C 
BRANCH  15  16
HETATM   16  C   UNK N   1      19.511  15.200   5.434  0.00  0.00    -0.024 C 
HETATM   17  C   UNK N   1      19.581  14.378   4.386  0.00  0.00    -0.087 C 
HETATM   18  C   UNK N   1      18.636  13.227   4.322  0.00  0.00     0.043 C 
BRANCH  17  19
HETATM   19  C   UNK N   1      20.559  14.590   3.257  0.00  0.00     0.037 C 
BRANCH  19  20
HETATM   20  C   UNK N   1      21.662  13.518   3.265  0.00  0.00     0.031 C 
BRANCH  20  21
HETATM   21  C   UNK N   1      22.154  13.259   1.866  0.00  0.00    -0.024 C 
HETATM   22  C   UNK N   1      23.315  13.731   1.400  0.00  0.00    -0.087 C 
HETATM   23  C   UNK N   1      23.779  13.273   0.059  0.00  0.00     0.043 C 
BRANCH  22  24
HETATM   24  C   UNK N   1      24.175  14.663   2.225  0.00  0.00     0.037 C 
BRANCH  24  25
HETATM   25  C   UNK N   1      25.314  15.310   1.430  0.00  0.00     0.031 C 
BRANCH  25  26
HETATM   26  C   UNK N   1      26.567  15.453   2.247  0.00  0.00    -0.024 C 
HETATM   27  C   UNK N   1      26.667  16.382   3.209  0.00  0.00    -0.087 C 
HETATM   28  C   UNK N   1      25.539  17.320   3.509  0.00  0.00     0.043 C 
BRANCH  27  29
HETATM   29  C   UNK N   1      27.880  16.428   4.075  0.00  0.00     0.037 C 
BRANCH  29  30
HETATM   30  C   UNK N   1      28.125  17.828   4.605  0.00  0.00     0.031 C 
BRANCH  30  31
HETATM   31  C   UNK N   1      28.290  17.768   6.092  0.00  0.00    -0.024 C 
HETATM   32  C   UNK N   1      28.049  18.810   6.900  0.00  0.00    -0.091 C 
HETATM   33  C   UNK N   1      28.224  18.645   8.368  0.00  0.00     0.042 C 
HETATM   34  C   UNK N   1      27.617  20.139   6.369  0.00  0.00     0.042 C 
ENDBRANCH  30  31
ENDBRANCH  29  30
ENDBRANCH  27  29
ENDBRANCH  25  26
ENDBRANCH  24  25
ENDBRANCH  22  24
ENDBRANCH  20  21
ENDBRANCH  19  20
ENDBRANCH  17  19
ENDBRANCH  15  16
ENDBRANCH  14  15
ENDBRANCH  12  14
ENDBRANCH  10  11
ENDBRANCH   9  10
ENDBRANCH   7   9
ENDBRANCH   5   6
ENDBRANCH   4   5
ENDBRANCH   2   4
BRANCH   1  35
HETATM   35  C   UNK N   1      25.399  12.867   5.052  0.00  0.00     0.031 C 
BRANCH  35  36
HETATM   36  C   UNK N   1      24.620  11.759   4.366  0.00  0.00     0.037 C 
BRANCH  36  37
HETATM   37  C   UNK N   1      25.354  11.258   3.169  0.00  0.00    -0.087 C 
HETATM   38  C   UNK N   1      26.549  11.790   2.880  0.00  0.00    -0.024 C 
HETATM   39  C   UNK N   1      24.762  10.144   2.363  0.00  0.00     0.043 C 
BRANCH  38  40
HETATM   40  C   UNK N   1      27.398  11.320   1.737  0.00  0.00     0.031 C 
BRANCH  40  41
HETATM   41  C   UNK N   1      28.280  12.476   1.271  0.00  0.00     0.037 C 
BRANCH  41  42
HETATM   42  C   UNK N   1      29.477  12.577   2.162  0.00  0.00    -0.087 C 
HETATM   43  C   UNK N   1      29.899  13.789   2.553  0.00  0.00    -0.024 C 
HETATM   44  C   UNK N   1      30.245  11.330   2.476  0.00  0.00     0.043 C 
BRANCH  43  45
HETATM   45  C   UNK N   1      31.168  14.029   3.311  0.00  0.00     0.031 C 
BRANCH  45  46
HETATM   46  C   UNK N   1      30.943  14.710   4.649  0.00  0.00     0.037 C 
BRANCH  46  47
HETATM   47  C   UNK N   1      31.559  16.075   4.615  0.00  0.00    -0.087 C 
HETATM   48  C   UNK N   1      31.776  16.786   5.730  0.00  0.00    -0.020 C 
HETATM   49  C   UNK N   1      31.931  16.663   3.298  0.00  0.00     0.043 C 
BRANCH  48  50
HETATM   50  C   UNK N   1      31.452  16.274   7.106  0.00  0.00     0.071 C 
BRANCH  50  51
HETATM   51  C   UNK N   1      32.701  15.982   7.905  0.00  0.00     0.008 A 
HETATM   52  C   UNK N   1      33.148  14.574   8.054  0.00  0.00     0.215 A 
HETATM   53  C   UNK N   1      34.359  14.238   8.846  0.00  0.00     0.156 A 
HETATM   54  O   UNK N   1      32.510  13.676   7.526  0.00  0.00    -0.285 OA
HETATM   55  C   UNK N   1      35.074  15.233   9.446  0.00  0.00     0.156 A 
HETATM   56  C   UNK N   1      34.619  16.657   9.286  0.00  0.00     0.214 A 
HETATM   57  C   UNK N   1      33.403  16.972   8.496  0.00  0.00     0.002 A 
HETATM   58  O   UNK N   1      35.240  17.571   9.804  0.00  0.00    -0.285 OA
HETATM   59  C   UNK N   1      32.967  18.405   8.378  0.00  0.00     0.053 C 
BRANCH  53  60
HETATM   60  O   UNK N   1      34.692  12.912   8.932  0.00  0.00    -0.350 OA
HETATM   61  C   UNK N   1      34.305  12.029   9.914  0.00  0.00     0.210 C 
ENDBRANCH  53  60
BRANCH  55  62
HETATM   62  O   UNK N   1      36.181  14.918  10.178  0.00  0.00    -0.350 OA
HETATM   63  C   UNK N   1      36.226  14.788  11.547  0.00  0.00     0.210 C 
ENDBRANCH  55  62
ENDBRANCH  50  51
ENDBRANCH  48  50
ENDBRANCH  46  47
ENDBRANCH  45  46
ENDBRANCH  43  45
ENDBRANCH  41  42
ENDBRANCH  40  41
ENDBRANCH  38  40
ENDBRANCH  36  37
ENDBRANCH  35  36
ENDBRANCH   1  35
TORSDOF 31
ENDMDL
