MODEL 1
REMARK VINA RESULT:      -4.4      0.000      0.000
REMARK  8 active torsions:
REMARK  status: ('A' for Active; 'I' for Inactive)
REMARK    1  A    between atoms: C_2  and  C_3 
REMARK    2  A    between atoms: C_3  and  C_4 
REMARK    3  A    between atoms: C_4  and  C_5 
REMARK    4  A    between atoms: C_5  and  C_6 
REMARK    5  A    between atoms: C_6  and  C_7 
REMARK    6  A    between atoms: C_7  and  C_8 
REMARK    7  A    between atoms: C_8  and  C_9 
REMARK    8  A    between atoms: C_9  and  C_10 
ROOT
HETATM    1  C   UNK N   1      26.158  24.430  -4.221  0.00  0.00     0.000 C 
ENDROOT
BRANCH   1   2
HETATM    2  C   UNK N   1      25.621  24.556  -5.624  0.00  0.00     0.000 C 
BRANCH   2   3
HETATM    3  C   UNK N   1      25.910  25.956  -6.114  0.00  0.00     0.000 C 
BRANCH   3   4
HETATM    4  C   UNK N   1      24.822  26.888  -5.639  0.00  0.00    -0.000 C 
BRANCH   4   5
HETATM    5  C   UNK N   1      25.426  27.947  -4.747  0.00  0.00    -0.005 C 
HETATM    6  C   UNK N   1      26.764  28.367  -5.314  0.00  0.00     0.005 C 
ENDBRANCH   4   5
ENDBRANCH   3   4
ENDBRANCH   2   3
ENDBRANCH   1   2
BRANCH   1   7
HETATM    7  C   UNK N   1      27.611  24.841  -4.170  0.00  0.00     0.000 C 
BRANCH   7   8
HETATM    8  C   UNK N   1      28.295  23.908  -3.201  0.00  0.00     0.007 C 
BRANCH   8   9
HETATM    9  C   UNK N   1      29.792  23.868  -3.441  0.00  0.00     0.077 C 
BRANCH   9  10
HETATM   10  C   UNK N   1      30.478  22.883  -2.535  0.00  0.00     0.123 C 
HETATM   11  O   UNK N   1      30.385  23.024  -1.328  0.00  0.00    -0.298 OA
HETATM   12  C   UNK N   1      31.272  21.734  -3.073  0.00  0.00     0.091 C 
ENDBRANCH   9  10
ENDBRANCH   8   9
ENDBRANCH   7   8
ENDBRANCH   1   7
TORSDOF 8
ENDMDL
MODEL 2
REMARK VINA RESULT:      -4.3      2.132      3.186
REMARK  8 active torsions:
REMARK  status: ('A' for Active; 'I' for Inactive)
REMARK    1  A    between atoms: C_2  and  C_3 
REMARK    2  A    between atoms: C_3  and  C_4 
REMARK    3  A    between atoms: C_4  and  C_5 
REMARK    4  A    between atoms: C_5  and  C_6 
REMARK    5  A    between atoms: C_6  and  C_7 
REMARK    6  A    between atoms: C_7  and  C_8 
REMARK    7  A    between atoms: C_8  and  C_9 
REMARK    8  A    between atoms: C_9  and  C_10 
ROOT
HETATM    1  C   UNK N   1      26.794  25.480  -7.251  0.00  0.00     0.000 C 
ENDROOT
BRANCH   1   2
HETATM    2  C   UNK N   1      26.336  26.913  -7.152  0.00  0.00     0.000 C 
BRANCH   2   3
HETATM    3  C   UNK N   1      27.510  27.752  -6.701  0.00  0.00     0.000 C 
BRANCH   3   4
HETATM    4  C   UNK N   1      27.076  28.653  -5.571  0.00  0.00    -0.000 C 
BRANCH   4   5
HETATM    5  C   UNK N   1      25.825  28.092  -4.937  0.00  0.00    -0.005 C 
HETATM    6  C   UNK N   1      26.016  28.023  -3.438  0.00  0.00     0.005 C 
ENDBRANCH   4   5
ENDBRANCH   3   4
ENDBRANCH   2   3
ENDBRANCH   1   2
BRANCH   1   7
HETATM    7  C   UNK N   1      25.679  24.539  -6.861  0.00  0.00     0.000 C 
BRANCH   7   8
HETATM    8  C   UNK N   1      26.186  23.715  -5.703  0.00  0.00     0.007 C 
BRANCH   8   9
HETATM    9  C   UNK N   1      25.937  24.414  -4.380  0.00  0.00     0.077 C 
BRANCH   9  10
HETATM   10  C   UNK N   1      27.145  24.366  -3.486  0.00  0.00     0.123 C 
HETATM   11  O   UNK N   1      27.057  23.822  -2.399  0.00  0.00    -0.298 OA
HETATM   12  C   UNK N   1      28.454  24.969  -3.892  0.00  0.00     0.091 C 
ENDBRANCH   9  10
ENDBRANCH   8   9
ENDBRANCH   7   8
ENDBRANCH   1   7
TORSDOF 8
ENDMDL
MODEL 3
REMARK VINA RESULT:      -4.2     17.284     19.165
REMARK  8 active torsions:
REMARK  status: ('A' for Active; 'I' for Inactive)
REMARK    1  A    between atoms: C_2  and  C_3 
REMARK    2  A    between atoms: C_3  and  C_4 
REMARK    3  A    between atoms: C_4  and  C_5 
REMARK    4  A    between atoms: C_5  and  C_6 
REMARK    5  A    between atoms: C_6  and  C_7 
REMARK    6  A    between atoms: C_7  and  C_8 
REMARK    7  A    between atoms: C_8  and  C_9 
REMARK    8  A    between atoms: C_9  and  C_10 
ROOT
HETATM    1  C   UNK N   1      21.176  12.950   9.616  0.00  0.00     0.000 C 
ENDROOT
BRANCH   1   2
HETATM    2  C   UNK N   1      21.454  12.398  10.991  0.00  0.00     0.000 C 
BRANCH   2   3
HETATM    3  C   UNK N   1      22.780  11.675  10.948  0.00  0.00     0.000 C 
BRANCH   3   4
HETATM    4  C   UNK N   1      23.462  11.958   9.632  0.00  0.00    -0.000 C 
BRANCH   4   5
HETATM    5  C   UNK N   1      24.688  12.807   9.878  0.00  0.00    -0.005 C 
HETATM    6  C   UNK N   1      25.045  13.543   8.606  0.00  0.00     0.005 C 
ENDBRANCH   4   5
ENDBRANCH   3   4
ENDBRANCH   2   3
ENDBRANCH   1   2
BRANCH   1   7
HETATM    7  C   UNK N   1      20.235  14.129   9.697  0.00  0.00     0.000 C 
BRANCH   7   8
HETATM    8  C   UNK N   1      20.937  15.295   9.043  0.00  0.00     0.007 C 
BRANCH   8   9
HETATM    9  C   UNK N   1      20.003  16.049   8.117  0.00  0.00     0.077 C 
BRANCH   9  10
HETATM   10  C   UNK N   1      19.407  17.257   8.785  0.00  0.00     0.123 C 
HETATM   11  O   UNK N   1      20.082  18.264   8.902  0.00  0.00    -0.298 OA
HETATM   12  C   UNK N   1      18.005  17.258   9.312  0.00  0.00     0.091 C 
ENDBRANCH   9  10
ENDBRANCH   8   9
ENDBRANCH   7   8
ENDBRANCH   1   7
TORSDOF 8
ENDMDL
MODEL 4
REMARK VINA RESULT:      -4.2     16.822     18.660
REMARK  8 active torsions:
REMARK  status: ('A' for Active; 'I' for Inactive)
REMARK    1  A    between atoms: C_2  and  C_3 
REMARK    2  A    between atoms: C_3  and  C_4 
REMARK    3  A    between atoms: C_4  and  C_5 
REMARK    4  A    between atoms: C_5  and  C_6 
REMARK    5  A    between atoms: C_6  and  C_7 
REMARK    6  A    between atoms: C_7  and  C_8 
REMARK    7  A    between atoms: C_8  and  C_9 
REMARK    8  A    between atoms: C_9  and  C_10 
ROOT
HETATM    1  C   UNK N   1      21.064  14.819   9.350  0.00  0.00     0.000 C 
ENDROOT
BRANCH   1   2
HETATM    2  C   UNK N   1      21.087  13.434   9.945  0.00  0.00     0.000 C 
BRANCH   2   3
HETATM    3  C   UNK N   1      22.453  12.839   9.697  0.00  0.00     0.000 C 
BRANCH   3   4
HETATM    4  C   UNK N   1      22.651  11.647  10.602  0.00  0.00    -0.000 C 
BRANCH   4   5
HETATM    5  C   UNK N   1      23.722  11.965  11.619  0.00  0.00    -0.005 C 
HETATM    6  C   UNK N   1      23.130  11.870  13.008  0.00  0.00     0.005 C 
ENDBRANCH   4   5
ENDBRANCH   3   4
ENDBRANCH   2   3
ENDBRANCH   1   2
BRANCH   1   7
HETATM    7  C   UNK N   1      19.647  15.337   9.263  0.00  0.00     0.000 C 
BRANCH   7   8
HETATM    8  C   UNK N   1      19.660  16.485   8.284  0.00  0.00     0.007 C 
BRANCH   8   9
HETATM    9  C   UNK N   1      20.895  16.445   7.405  0.00  0.00     0.077 C 
BRANCH   9  10
HETATM   10  C   UNK N   1      21.182  17.783   6.781  0.00  0.00     0.123 C 
HETATM   11  O   UNK N   1      20.801  18.794   7.345  0.00  0.00    -0.298 OA
HETATM   12  C   UNK N   1      21.923  17.909   5.487  0.00  0.00     0.091 C 
ENDBRANCH   9  10
ENDBRANCH   8   9
ENDBRANCH   7   8
ENDBRANCH   1   7
TORSDOF 8
ENDMDL
MODEL 5
REMARK VINA RESULT:      -4.1      0.941      1.289
REMARK  8 active torsions:
REMARK  status: ('A' for Active; 'I' for Inactive)
REMARK    1  A    between atoms: C_2  and  C_3 
REMARK    2  A    between atoms: C_3  and  C_4 
REMARK    3  A    between atoms: C_4  and  C_5 
REMARK    4  A    between atoms: C_5  and  C_6 
REMARK    5  A    between atoms: C_6  and  C_7 
REMARK    6  A    between atoms: C_7  and  C_8 
REMARK    7  A    between atoms: C_8  and  C_9 
REMARK    8  A    between atoms: C_9  and  C_10 
ROOT
HETATM    1  C   UNK N   1      27.586  23.999  -4.793  0.00  0.00     0.000 C 
ENDROOT
BRANCH   1   2
HETATM    2  C   UNK N   1      26.364  24.705  -4.261  0.00  0.00     0.000 C 
BRANCH   2   3
HETATM    3  C   UNK N   1      25.494  25.088  -5.435  0.00  0.00     0.000 C 
BRANCH   3   4
HETATM    4  C   UNK N   1      25.227  26.573  -5.398  0.00  0.00    -0.000 C 
BRANCH   4   5
HETATM    5  C   UNK N   1      26.050  27.254  -6.467  0.00  0.00    -0.005 C 
HETATM    6  C   UNK N   1      26.929  28.303  -5.822  0.00  0.00     0.005 C 
ENDBRANCH   4   5
ENDBRANCH   3   4
ENDBRANCH   2   3
ENDBRANCH   1   2
BRANCH   1   7
HETATM    7  C   UNK N   1      28.692  24.989  -5.072  0.00  0.00     0.000 C 
BRANCH   7   8
HETATM    8  C   UNK N   1      29.992  24.297  -4.743  0.00  0.00     0.007 C 
BRANCH   8   9
HETATM    9  C   UNK N   1      30.313  24.402  -3.265  0.00  0.00     0.077 C 
BRANCH   9  10
HETATM   10  C   UNK N   1      30.391  23.051  -2.612  0.00  0.00     0.123 C 
HETATM   11  O   UNK N   1      30.534  22.984  -1.403  0.00  0.00    -0.298 OA
HETATM   12  C   UNK N   1      30.300  21.783  -3.403  0.00  0.00     0.091 C 
ENDBRANCH   9  10
ENDBRANCH   8   9
ENDBRANCH   7   8
ENDBRANCH   1   7
TORSDOF 8
ENDMDL
MODEL 6
REMARK VINA RESULT:      -4.0     21.768     24.817
REMARK  8 active torsions:
REMARK  status: ('A' for Active; 'I' for Inactive)
REMARK    1  A    between atoms: C_2  and  C_3 
REMARK    2  A    between atoms: C_3  and  C_4 
REMARK    3  A    between atoms: C_4  and  C_5 
REMARK    4  A    between atoms: C_5  and  C_6 
REMARK    5  A    between atoms: C_6  and  C_7 
REMARK    6  A    between atoms: C_7  and  C_8 
REMARK    7  A    between atoms: C_8  and  C_9 
REMARK    8  A    between atoms: C_9  and  C_10 
ROOT
HETATM    1  C   UNK N   1      35.033  13.152  16.423  0.00  0.00     0.000 C 
ENDROOT
BRANCH   1   2
HETATM    2  C   UNK N   1      35.167  12.410  17.728  0.00  0.00     0.000 C 
BRANCH   2   3
HETATM    3  C   UNK N   1      35.639  11.007  17.425  0.00  0.00     0.000 C 
BRANCH   3   4
HETATM    4  C   UNK N   1      34.727  10.384  16.396  0.00  0.00    -0.000 C 
BRANCH   4   5
HETATM    5  C   UNK N   1      35.552   9.566  15.429  0.00  0.00    -0.005 C 
HETATM    6  C   UNK N   1      37.018   9.726  15.770  0.00  0.00     0.005 C 
ENDBRANCH   4   5
ENDBRANCH   3   4
ENDBRANCH   2   3
ENDBRANCH   1   2
BRANCH   1   7
HETATM    7  C   UNK N   1      36.349  13.780  16.031  0.00  0.00     0.000 C 
BRANCH   7   8
HETATM    8  C   UNK N   1      36.702  13.242  14.666  0.00  0.00     0.007 C 
BRANCH   8   9
HETATM    9  C   UNK N   1      36.243  14.184  13.569  0.00  0.00     0.077 C 
BRANCH   9  10
HETATM   10  C   UNK N   1      35.195  13.555  12.694  0.00  0.00     0.123 C 
HETATM   11  O   UNK N   1      34.509  14.270  11.983  0.00  0.00    -0.298 OA
HETATM   12  C   UNK N   1      34.968  12.076  12.669  0.00  0.00     0.091 C 
ENDBRANCH   9  10
ENDBRANCH   8   9
ENDBRANCH   7   8
ENDBRANCH   1   7
TORSDOF 8
ENDMDL
MODEL 7
REMARK VINA RESULT:      -4.0     11.903     14.349
REMARK  8 active torsions:
REMARK  status: ('A' for Active; 'I' for Inactive)
REMARK    1  A    between atoms: C_2  and  C_3 
REMARK    2  A    between atoms: C_3  and  C_4 
REMARK    3  A    between atoms: C_4  and  C_5 
REMARK    4  A    between atoms: C_5  and  C_6 
REMARK    5  A    between atoms: C_6  and  C_7 
REMARK    6  A    between atoms: C_7  and  C_8 
REMARK    7  A    between atoms: C_8  and  C_9 
REMARK    8  A    between atoms: C_9  and  C_10 
ROOT
HETATM    1  C   UNK N   1      30.070  17.153   7.759  0.00  0.00     0.000 C 
ENDROOT
BRANCH   1   2
HETATM    2  C   UNK N   1      29.691  18.368   8.568  0.00  0.00     0.000 C 
BRANCH   2   3
HETATM    3  C   UNK N   1      28.229  18.659   8.322  0.00  0.00     0.000 C 
BRANCH   3   4
HETATM    4  C   UNK N   1      28.050  19.171   6.913  0.00  0.00    -0.000 C 
BRANCH   4   5
HETATM    5  C   UNK N   1      27.184  20.408   6.938  0.00  0.00    -0.005 C 
HETATM    6  C   UNK N   1      27.194  21.048   5.567  0.00  0.00     0.005 C 
ENDBRANCH   4   5
ENDBRANCH   3   4
ENDBRANCH   2   3
ENDBRANCH   1   2
BRANCH   1   7
HETATM    7  C   UNK N   1      31.522  17.218   7.350  0.00  0.00     0.000 C 
BRANCH   7   8
HETATM    8  C   UNK N   1      32.256  17.937   8.456  0.00  0.00     0.007 C 
BRANCH   8   9
HETATM    9  C   UNK N   1      33.742  18.017   8.167  0.00  0.00     0.077 C 
BRANCH   9  10
HETATM   10  C   UNK N   1      34.548  17.221   9.156  0.00  0.00     0.123 C 
HETATM   11  O   UNK N   1      35.392  17.790   9.827  0.00  0.00    -0.298 OA
HETATM   12  C   UNK N   1      34.345  15.750   9.341  0.00  0.00     0.091 C 
ENDBRANCH   9  10
ENDBRANCH   8   9
ENDBRANCH   7   8
ENDBRANCH   1   7
TORSDOF 8
ENDMDL
MODEL 8
REMARK VINA RESULT:      -4.0     23.985     27.217
REMARK  8 active torsions:
REMARK  status: ('A' for Active; 'I' for Inactive)
REMARK    1  A    between atoms: C_2  and  C_3 
REMARK    2  A    between atoms: C_3  and  C_4 
REMARK    3  A    between atoms: C_4  and  C_5 
REMARK    4  A    between atoms: C_5  and  C_6 
REMARK    5  A    between atoms: C_6  and  C_7 
REMARK    6  A    between atoms: C_7  and  C_8 
REMARK    7  A    between atoms: C_8  and  C_9 
REMARK    8  A    between atoms: C_9  and  C_10 
ROOT
HETATM    1  C   UNK N   1      35.181  11.451  18.439  0.00  0.00     0.000 C 
ENDROOT
BRANCH   1   2
HETATM    2  C   UNK N   1      36.073  10.538  19.241  0.00  0.00     0.000 C 
BRANCH   2   3
HETATM    3  C   UNK N   1      35.689   9.110  18.926  0.00  0.00     0.000 C 
BRANCH   3   4
HETATM    4  C   UNK N   1      34.194   9.026  18.731  0.00  0.00    -0.000 C 
BRANCH   4   5
HETATM    5  C   UNK N   1      33.555   8.499  19.994  0.00  0.00    -0.005 C 
HETATM    6  C   UNK N   1      32.056   8.686  19.906  0.00  0.00     0.005 C 
ENDBRANCH   4   5
ENDBRANCH   3   4
ENDBRANCH   2   3
ENDBRANCH   1   2
BRANCH   1   7
HETATM    7  C   UNK N   1      35.286  12.872  18.941  0.00  0.00     0.000 C 
BRANCH   7   8
HETATM    8  C   UNK N   1      35.230  13.769  17.730  0.00  0.00     0.007 C 
BRANCH   8   9
HETATM    9  C   UNK N   1      34.633  13.047  16.537  0.00  0.00     0.077 C 
BRANCH   9  10
HETATM   10  C   UNK N   1      35.396  13.329  15.273  0.00  0.00     0.123 C 
HETATM   11  O   UNK N   1      34.793  13.379  14.215  0.00  0.00    -0.298 OA
HETATM   12  C   UNK N   1      36.877  13.550  15.275  0.00  0.00     0.091 C 
ENDBRANCH   9  10
ENDBRANCH   8   9
ENDBRANCH   7   8
ENDBRANCH   1   7
TORSDOF 8
ENDMDL
MODEL 9
REMARK VINA RESULT:      -4.0      2.260      5.822
REMARK  8 active torsions:
REMARK  status: ('A' for Active; 'I' for Inactive)
REMARK    1  A    between atoms: C_2  and  C_3 
REMARK    2  A    between atoms: C_3  and  C_4 
REMARK    3  A    between atoms: C_4  and  C_5 
REMARK    4  A    between atoms: C_5  and  C_6 
REMARK    5  A    between atoms: C_6  and  C_7 
REMARK    6  A    between atoms: C_7  and  C_8 
REMARK    7  A    between atoms: C_8  and  C_9 
REMARK    8  A    between atoms: C_9  and  C_10 
ROOT
HETATM    1  C   UNK N   1      26.825  24.096  -5.106  0.00  0.00     0.000 C 
ENDROOT
BRANCH   1   2
HETATM    2  C   UNK N   1      27.237  24.528  -3.721  0.00  0.00     0.000 C 
BRANCH   2   3
HETATM    3  C   UNK N   1      28.742  24.427  -3.626  0.00  0.00     0.000 C 
BRANCH   3   4
HETATM    4  C   UNK N   1      29.224  23.292  -4.497  0.00  0.00    -0.000 C 
BRANCH   4   5
HETATM    5  C   UNK N   1      29.975  22.295  -3.645  0.00  0.00    -0.005 C 
HETATM    6  C   UNK N   1      30.236  22.903  -2.284  0.00  0.00     0.005 C 
ENDBRANCH   4   5
ENDBRANCH   3   4
ENDBRANCH   2   3
ENDBRANCH   1   2
BRANCH   1   7
HETATM    7  C   UNK N   1      26.375  25.285  -5.921  0.00  0.00     0.000 C 
BRANCH   7   8
HETATM    8  C   UNK N   1      25.149  25.843  -5.241  0.00  0.00     0.007 C 
BRANCH   8   9
HETATM    9  C   UNK N   1      25.050  27.344  -5.430  0.00  0.00     0.077 C 
BRANCH   9  10
HETATM   10  C   UNK N   1      25.692  28.095  -4.296  0.00  0.00     0.123 C 
HETATM   11  O   UNK N   1      25.388  27.811  -3.150  0.00  0.00    -0.298 OA
HETATM   12  C   UNK N   1      26.693  29.182  -4.533  0.00  0.00     0.091 C 
ENDBRANCH   9  10
ENDBRANCH   8   9
ENDBRANCH   7   8
ENDBRANCH   1   7
TORSDOF 8
ENDMDL
