MODEL 1
REMARK VINA RESULT:      -6.2      0.000      0.000
REMARK  6 active torsions:
REMARK  status: ('A' for Active; 'I' for Inactive)
REMARK    1  A    between atoms: C_2  and  O_3 
REMARK    2  A    between atoms: O_3  and  C_4 
REMARK    3  A    between atoms: C_4  and  C_6 
REMARK    4  A    between atoms: C_17  and  C_18 
REMARK    5  A    between atoms: C_18  and  C_21 
REMARK    6  A    between atoms: C_21  and  N_22 
ROOT
HETATM    1  C   UNK N   1      20.824  19.485   2.496  0.00  0.00     0.073 C 
HETATM    2  C   UNK N   1      21.124  20.241   1.313  0.00  0.00     0.102 C 
HETATM    3  N   UNK N   1      21.298  20.867   0.353  0.00  0.00    -0.191 NA
ENDROOT
BRANCH   1   4
HETATM    4  C   UNK N   1      21.924  18.806   3.360  0.00  0.00     0.032 A 
HETATM    5  C   UNK N   1      21.886  17.584   4.142  0.00  0.00     0.123 A 
HETATM    6  N   UNK N   1      23.127  17.378   4.691  0.00  0.00    -0.344 N 
HETATM    7  C   UNK N   1      23.551  16.346   5.614  0.00  0.00     0.157 C 
HETATM    8  C   UNK N   1      23.939  18.372   4.284  0.00  0.00     0.069 A 
HETATM    9  C   UNK N   1      25.326  18.537   4.547  0.00  0.00     0.083 A 
HETATM   10  C   UNK N   1      23.245  19.271   3.514  0.00  0.00     0.007 A 
HETATM   11 Cl   UNK N   1      26.286  17.355   5.442  0.00  0.00    -0.080 Cl
HETATM   12  C   UNK N   1      25.970  19.673   4.015  0.00  0.00     0.058 A 
HETATM   13 Cl   UNK N   1      27.696  19.930   4.217  0.00  0.00    -0.082 Cl
HETATM   14  C   UNK N   1      25.240  20.613   3.282  0.00  0.00     0.026 A 
HETATM   15  C   UNK N   1      23.882  20.410   3.034  0.00  0.00     0.016 A 
BRANCH   5  16
HETATM   16  C   UNK N   1      20.680  16.661   4.369  0.00  0.00     0.311 C 
HETATM   17  O   UNK N   1      20.285  16.508   5.501  0.00  0.00    -0.258 OA
BRANCH  16  18
HETATM   18  O   UNK N   1      20.002  15.946   3.423  0.00  0.00    -0.317 OA
BRANCH  18  19
HETATM   19  C   UNK N   1      20.452  15.124   2.424  0.00  0.00     0.175 C 
HETATM   20  C   UNK N   1      20.495  15.915   1.125  0.00  0.00     0.034 C 
ENDBRANCH  18  19
ENDBRANCH  16  18
ENDBRANCH   5  16
ENDBRANCH   1   4
BRANCH   1  21
HETATM   21  C   UNK N   1      19.494  19.532   2.747  0.00  0.00     0.104 C 
BRANCH  21  22
HETATM   22  N   UNK N   1      18.496  18.646   2.311  0.00  0.00    -0.407 N 
HETATM   23  H   UNK N   1      18.338  17.796   2.784  0.00  0.00     0.155 HD
HETATM   24  H   UNK N   1      17.947  18.875   1.525  0.00  0.00     0.155 HD
ENDBRANCH  21  22
ENDBRANCH   1  21
TORSDOF 6
ENDMDL
MODEL 2
REMARK VINA RESULT:      -6.1      3.413      5.262
REMARK  6 active torsions:
REMARK  status: ('A' for Active; 'I' for Inactive)
REMARK    1  A    between atoms: C_2  and  O_3 
REMARK    2  A    between atoms: O_3  and  C_4 
REMARK    3  A    between atoms: C_4  and  C_6 
REMARK    4  A    between atoms: C_17  and  C_18 
REMARK    5  A    between atoms: C_18  and  C_21 
REMARK    6  A    between atoms: C_21  and  N_22 
ROOT
HETATM    1  C   UNK N   1      21.286  19.740   2.350  0.00  0.00     0.073 C 
HETATM    2  C   UNK N   1      22.502  20.432   2.675  0.00  0.00     0.102 C 
HETATM    3  N   UNK N   1      23.456  21.047   2.906  0.00  0.00    -0.191 NA
ENDROOT
BRANCH   1   4
HETATM    4  C   UNK N   1      21.005  18.279   2.801  0.00  0.00     0.032 A 
HETATM    5  C   UNK N   1      21.196  17.639   4.090  0.00  0.00     0.123 A 
HETATM    6  N   UNK N   1      20.755  16.342   4.002  0.00  0.00    -0.344 N 
HETATM    7  C   UNK N   1      20.823  15.292   4.998  0.00  0.00     0.157 C 
HETATM    8  C   UNK N   1      20.280  16.141   2.760  0.00  0.00     0.069 A 
HETATM    9  C   UNK N   1      19.662  14.973   2.233  0.00  0.00     0.083 A 
HETATM   10  C   UNK N   1      20.446  17.268   1.996  0.00  0.00     0.007 A 
HETATM   11 Cl   UNK N   1      19.329  13.536   3.204  0.00  0.00    -0.080 Cl
HETATM   12  C   UNK N   1      19.246  14.995   0.886  0.00  0.00     0.058 A 
HETATM   13 Cl   UNK N   1      18.405  13.633   0.162  0.00  0.00    -0.082 Cl
HETATM   14  C   UNK N   1      19.475  16.128   0.100  0.00  0.00     0.026 A 
HETATM   15  C   UNK N   1      20.073  17.259   0.656  0.00  0.00     0.016 A 
BRANCH   5  16
HETATM   16  C   UNK N   1      21.810  18.256   5.355  0.00  0.00     0.311 C 
HETATM   17  O   UNK N   1      21.064  18.734   6.176  0.00  0.00    -0.258 OA
BRANCH  16  18
HETATM   18  O   UNK N   1      23.139  18.361   5.657  0.00  0.00    -0.317 OA
BRANCH  18  19
HETATM   19  C   UNK N   1      24.251  17.964   4.964  0.00  0.00     0.175 C 
HETATM   20  C   UNK N   1      24.499  16.489   5.245  0.00  0.00     0.034 C 
ENDBRANCH  18  19
ENDBRANCH  16  18
ENDBRANCH   5  16
ENDBRANCH   1   4
BRANCH   1  21
HETATM   21  C   UNK N   1      20.449  20.569   1.683  0.00  0.00     0.104 C 
BRANCH  21  22
HETATM   22  N   UNK N   1      20.478  20.923   0.323  0.00  0.00    -0.407 N 
HETATM   23  H   UNK N   1      20.528  20.229  -0.374  0.00  0.00     0.155 HD
HETATM   24  H   UNK N   1      20.447  21.873   0.065  0.00  0.00     0.155 HD
ENDBRANCH  21  22
ENDBRANCH   1  21
TORSDOF 6
ENDMDL
MODEL 3
REMARK VINA RESULT:      -6.1      4.957      6.688
REMARK  6 active torsions:
REMARK  status: ('A' for Active; 'I' for Inactive)
REMARK    1  A    between atoms: C_2  and  O_3 
REMARK    2  A    between atoms: O_3  and  C_4 
REMARK    3  A    between atoms: C_4  and  C_6 
REMARK    4  A    between atoms: C_17  and  C_18 
REMARK    5  A    between atoms: C_18  and  C_21 
REMARK    6  A    between atoms: C_21  and  N_22 
ROOT
HETATM    1  C   UNK N   1      19.120  16.969   8.495  0.00  0.00     0.073 C 
HETATM    2  C   UNK N   1      19.669  18.153   9.094  0.00  0.00     0.102 C 
HETATM    3  N   UNK N   1      20.048  19.123   9.602  0.00  0.00    -0.191 NA
ENDROOT
BRANCH   1   4
HETATM    4  C   UNK N   1      19.995  15.926   7.743  0.00  0.00     0.032 A 
HETATM    5  C   UNK N   1      20.524  14.648   8.184  0.00  0.00     0.123 A 
HETATM    6  N   UNK N   1      21.200  14.072   7.138  0.00  0.00    -0.344 N 
HETATM    7  C   UNK N   1      21.969  12.844   7.122  0.00  0.00     0.157 C 
HETATM    8  C   UNK N   1      21.106  14.888   6.073  0.00  0.00     0.069 A 
HETATM    9  C   UNK N   1      21.594  14.674   4.755  0.00  0.00     0.083 A 
HETATM   10  C   UNK N   1      20.422  16.030   6.405  0.00  0.00     0.007 A 
HETATM   11 Cl   UNK N   1      22.386  13.178   4.250  0.00  0.00    -0.080 Cl
HETATM   12  C   UNK N   1      21.380  15.687   3.797  0.00  0.00     0.058 A 
HETATM   13 Cl   UNK N   1      21.876  15.487   2.123  0.00  0.00    -0.082 Cl
HETATM   14  C   UNK N   1      20.734  16.871   4.162  0.00  0.00     0.026 A 
HETATM   15  C   UNK N   1      20.258  17.040   5.463  0.00  0.00     0.016 A 
BRANCH   5  16
HETATM   16  C   UNK N   1      20.399  14.020   9.580  0.00  0.00     0.311 C 
HETATM   17  O   UNK N   1      19.301  13.954  10.080  0.00  0.00    -0.258 OA
BRANCH  16  18
HETATM   18  O   UNK N   1      21.415  13.542  10.360  0.00  0.00    -0.317 OA
BRANCH  18  19
HETATM   19  C   UNK N   1      21.611  12.310  10.923  0.00  0.00     0.175 C 
HETATM   20  C   UNK N   1      23.064  11.907  10.721  0.00  0.00     0.034 C 
ENDBRANCH  18  19
ENDBRANCH  16  18
ENDBRANCH   5  16
ENDBRANCH   1   4
BRANCH   1  21
HETATM   21  C   UNK N   1      17.794  16.895   8.754  0.00  0.00     0.104 C 
BRANCH  21  22
HETATM   22  N   UNK N   1      16.955  17.888   9.288  0.00  0.00    -0.407 N 
HETATM   23  H   UNK N   1      16.034  17.672   9.562  0.00  0.00     0.155 HD
HETATM   24  H   UNK N   1      17.291  18.808   9.390  0.00  0.00     0.155 HD
ENDBRANCH  21  22
ENDBRANCH   1  21
TORSDOF 6
ENDMDL
MODEL 4
REMARK VINA RESULT:      -6.0     11.557     13.088
REMARK  6 active torsions:
REMARK  status: ('A' for Active; 'I' for Inactive)
REMARK    1  A    between atoms: C_2  and  O_3 
REMARK    2  A    between atoms: O_3  and  C_4 
REMARK    3  A    between atoms: C_4  and  C_6 
REMARK    4  A    between atoms: C_17  and  C_18 
REMARK    5  A    between atoms: C_18  and  C_21 
REMARK    6  A    between atoms: C_21  and  N_22 
ROOT
HETATM    1  C   UNK N   1      30.098  24.039  -3.798  0.00  0.00     0.073 C 
HETATM    2  C   UNK N   1      30.243  23.433  -2.504  0.00  0.00     0.102 C 
HETATM    3  N   UNK N   1      30.408  22.993  -1.444  0.00  0.00    -0.191 NA
ENDROOT
BRANCH   1   4
HETATM    4  C   UNK N   1      29.063  23.542  -4.846  0.00  0.00     0.032 A 
HETATM    5  C   UNK N   1      27.717  24.003  -5.131  0.00  0.00     0.123 A 
HETATM    6  N   UNK N   1      27.220  23.275  -6.183  0.00  0.00    -0.344 N 
HETATM    7  C   UNK N   1      25.893  23.311  -6.765  0.00  0.00     0.157 C 
HETATM    8  C   UNK N   1      28.171  22.414  -6.587  0.00  0.00     0.069 A 
HETATM    9  C   UNK N   1      28.129  21.508  -7.683  0.00  0.00     0.083 A 
HETATM   10  C   UNK N   1      29.280  22.516  -5.786  0.00  0.00     0.007 A 
HETATM   11 Cl   UNK N   1      26.769  21.414  -8.806  0.00  0.00    -0.080 Cl
HETATM   12  C   UNK N   1      29.257  20.691  -7.910  0.00  0.00     0.058 A 
HETATM   13 Cl   UNK N   1      29.336  19.596  -9.281  0.00  0.00    -0.082 Cl
HETATM   14  C   UNK N   1      30.357  20.762  -7.051  0.00  0.00     0.026 A 
HETATM   15  C   UNK N   1      30.366  21.672  -5.994  0.00  0.00     0.016 A 
BRANCH   5  16
HETATM   16  C   UNK N   1      26.930  25.095  -4.392  0.00  0.00     0.311 C 
HETATM   17  O   UNK N   1      26.288  24.776  -3.418  0.00  0.00    -0.258 OA
BRANCH  16  18
HETATM   18  O   UNK N   1      26.839  26.416  -4.731  0.00  0.00    -0.317 OA
BRANCH  18  19
HETATM   19  C   UNK N   1      26.302  27.025  -5.834  0.00  0.00     0.175 C 
HETATM   20  C   UNK N   1      24.790  27.071  -5.677  0.00  0.00     0.034 C 
ENDBRANCH  18  19
ENDBRANCH  16  18
ENDBRANCH   5  16
ENDBRANCH   1   4
BRANCH   1  21
HETATM   21  C   UNK N   1      30.927  25.105  -3.902  0.00  0.00     0.104 C 
BRANCH  21  22
HETATM   22  N   UNK N   1      30.770  26.385  -3.346  0.00  0.00    -0.407 N 
HETATM   23  H   UNK N   1      31.545  26.870  -2.979  0.00  0.00     0.155 HD
HETATM   24  H   UNK N   1      29.878  26.803  -3.323  0.00  0.00     0.155 HD
ENDBRANCH  21  22
ENDBRANCH   1  21
TORSDOF 6
ENDMDL
MODEL 5
REMARK VINA RESULT:      -5.9     17.525     19.705
REMARK  6 active torsions:
REMARK  status: ('A' for Active; 'I' for Inactive)
REMARK    1  A    between atoms: C_2  and  O_3 
REMARK    2  A    between atoms: O_3  and  C_4 
REMARK    3  A    between atoms: C_4  and  C_6 
REMARK    4  A    between atoms: C_17  and  C_18 
REMARK    5  A    between atoms: C_18  and  C_21 
REMARK    6  A    between atoms: C_21  and  N_22 
ROOT
HETATM    1  C   UNK N   1      36.538  13.837  14.799  0.00  0.00     0.073 C 
HETATM    2  C   UNK N   1      37.177  14.860  15.577  0.00  0.00     0.102 C 
HETATM    3  N   UNK N   1      37.686  15.730  16.151  0.00  0.00    -0.191 NA
ENDROOT
BRANCH   1   4
HETATM    4  C   UNK N   1      36.207  12.430  15.373  0.00  0.00     0.032 A 
HETATM    5  C   UNK N   1      36.311  11.117  14.764  0.00  0.00     0.123 A 
HETATM    6  N   UNK N   1      35.944  10.175  15.692  0.00  0.00    -0.344 N 
HETATM    7  C   UNK N   1      35.803   8.742  15.525  0.00  0.00     0.157 C 
HETATM    8  C   UNK N   1      35.646  10.808  16.841  0.00  0.00     0.069 A 
HETATM    9  C   UNK N   1      35.281  10.237  18.091  0.00  0.00     0.083 A 
HETATM   10  C   UNK N   1      35.755  12.166  16.680  0.00  0.00     0.007 A 
HETATM   11 Cl   UNK N   1      35.231   8.494  18.378  0.00  0.00    -0.080 Cl
HETATM   12  C   UNK N   1      35.005  11.111  19.163  0.00  0.00     0.058 A 
HETATM   13 Cl   UNK N   1      34.622  10.504  20.767  0.00  0.00    -0.082 Cl
HETATM   14  C   UNK N   1      35.062  12.494  18.971  0.00  0.00     0.026 A 
HETATM   15  C   UNK N   1      35.435  13.017  17.733  0.00  0.00     0.016 A 
BRANCH   5  16
HETATM   16  C   UNK N   1      36.727  10.789  13.322  0.00  0.00     0.311 C 
HETATM   17  O   UNK N   1      37.819  10.304  13.140  0.00  0.00    -0.258 OA
BRANCH  16  18
HETATM   18  O   UNK N   1      36.001  11.015  12.186  0.00  0.00    -0.317 OA
BRANCH  18  19
HETATM   19  C   UNK N   1      34.673  11.293  12.009  0.00  0.00     0.175 C 
HETATM   20  C   UNK N   1      33.870  10.029  12.276  0.00  0.00     0.034 C 
ENDBRANCH  18  19
ENDBRANCH  16  18
ENDBRANCH   5  16
ENDBRANCH   1   4
BRANCH   1  21
HETATM   21  C   UNK N   1      36.229  14.317  13.572  0.00  0.00     0.104 C 
BRANCH  21  22
HETATM   22  N   UNK N   1      36.908  14.107  12.360  0.00  0.00    -0.407 N 
HETATM   23  H   UNK N   1      36.868  14.779  11.641  0.00  0.00     0.155 HD
HETATM   24  H   UNK N   1      37.428  13.282  12.228  0.00  0.00     0.155 HD
ENDBRANCH  21  22
ENDBRANCH   1  21
TORSDOF 6
ENDMDL
MODEL 6
REMARK VINA RESULT:      -5.9      9.709     12.489
REMARK  6 active torsions:
REMARK  status: ('A' for Active; 'I' for Inactive)
REMARK    1  A    between atoms: C_2  and  O_3 
REMARK    2  A    between atoms: O_3  and  C_4 
REMARK    3  A    between atoms: C_4  and  C_6 
REMARK    4  A    between atoms: C_17  and  C_18 
REMARK    5  A    between atoms: C_18  and  C_21 
REMARK    6  A    between atoms: C_21  and  N_22 
ROOT
HETATM    1  C   UNK N   1      34.090  17.013   8.706  0.00  0.00     0.073 C 
HETATM    2  C   UNK N   1      34.743  18.284   8.565  0.00  0.00     0.102 C 
HETATM    3  N   UNK N   1      35.302  19.299   8.512  0.00  0.00    -0.191 NA
ENDROOT
BRANCH   1   4
HETATM    4  C   UNK N   1      33.165  16.418   7.608  0.00  0.00     0.032 A 
HETATM    5  C   UNK N   1      33.444  15.447   6.566  0.00  0.00     0.123 A 
HETATM    6  N   UNK N   1      32.286  15.207   5.871  0.00  0.00    -0.344 N 
HETATM    7  C   UNK N   1      32.087  14.385   4.693  0.00  0.00     0.157 C 
HETATM    8  C   UNK N   1      31.302  15.940   6.424  0.00  0.00     0.069 A 
HETATM    9  C   UNK N   1      29.923  15.963   6.078  0.00  0.00     0.083 A 
HETATM   10  C   UNK N   1      31.797  16.710   7.445  0.00  0.00     0.007 A 
HETATM   11 Cl   UNK N   1      29.219  14.914   4.844  0.00  0.00    -0.080 Cl
HETATM   12  C   UNK N   1      29.074  16.826   6.802  0.00  0.00     0.058 A 
HETATM   13 Cl   UNK N   1      27.343  16.873   6.506  0.00  0.00    -0.082 Cl
HETATM   14  C   UNK N   1      29.600  17.650   7.801  0.00  0.00     0.026 A 
HETATM   15  C   UNK N   1      30.957  17.590   8.120  0.00  0.00     0.016 A 
BRANCH   5  16
HETATM   16  C   UNK N   1      34.795  14.793   6.240  0.00  0.00     0.311 C 
HETATM   17  O   UNK N   1      35.519  15.347   5.446  0.00  0.00    -0.258 OA
BRANCH  16  18
HETATM   18  O   UNK N   1      35.276  13.611   6.729  0.00  0.00    -0.317 OA
BRANCH  18  19
HETATM   19  C   UNK N   1      35.752  13.280   7.970  0.00  0.00     0.175 C 
HETATM   20  C   UNK N   1      34.601  12.738   8.804  0.00  0.00     0.034 C 
ENDBRANCH  18  19
ENDBRANCH  16  18
ENDBRANCH   5  16
ENDBRANCH   1   4
BRANCH   1  21
HETATM   21  C   UNK N   1      34.465  16.431   9.869  0.00  0.00     0.104 C 
BRANCH  21  22
HETATM   22  N   UNK N   1      35.163  17.006  10.944  0.00  0.00    -0.407 N 
HETATM   23  H   UNK N   1      36.016  17.476  10.794  0.00  0.00     0.155 HD
HETATM   24  H   UNK N   1      34.797  16.939  11.856  0.00  0.00     0.155 HD
ENDBRANCH  21  22
ENDBRANCH   1  21
TORSDOF 6
ENDMDL
MODEL 7
REMARK VINA RESULT:      -5.9     11.149     12.293
REMARK  6 active torsions:
REMARK  status: ('A' for Active; 'I' for Inactive)
REMARK    1  A    between atoms: C_2  and  O_3 
REMARK    2  A    between atoms: O_3  and  C_4 
REMARK    3  A    between atoms: C_4  and  C_6 
REMARK    4  A    between atoms: C_17  and  C_18 
REMARK    5  A    between atoms: C_18  and  C_21 
REMARK    6  A    between atoms: C_21  and  N_22 
ROOT
HETATM    1  C   UNK N   1      26.536  23.339  -6.925  0.00  0.00     0.073 C 
HETATM    2  C   UNK N   1      25.435  22.419  -6.862  0.00  0.00     0.102 C 
HETATM    3  N   UNK N   1      24.520  21.708  -6.868  0.00  0.00    -0.191 NA
ENDROOT
BRANCH   1   4
HETATM    4  C   UNK N   1      27.737  23.278  -5.940  0.00  0.00     0.032 A 
HETATM    5  C   UNK N   1      27.980  24.003  -4.706  0.00  0.00     0.123 A 
HETATM    6  N   UNK N   1      29.165  23.567  -4.169  0.00  0.00    -0.344 N 
HETATM    7  C   UNK N   1      29.865  24.055  -2.998  0.00  0.00     0.157 C 
HETATM    8  C   UNK N   1      29.662  22.605  -4.968  0.00  0.00     0.069 A 
HETATM    9  C   UNK N   1      30.833  21.822  -4.778  0.00  0.00     0.083 A 
HETATM   10  C   UNK N   1      28.853  22.428  -6.063  0.00  0.00     0.007 A 
HETATM   11 Cl   UNK N   1      31.847  21.937  -3.336  0.00  0.00    -0.080 Cl
HETATM   12  C   UNK N   1      31.160  20.868  -5.765  0.00  0.00     0.058 A 
HETATM   13 Cl   UNK N   1      32.541  19.798  -5.587  0.00  0.00    -0.082 Cl
HETATM   14  C   UNK N   1      30.361  20.739  -6.904  0.00  0.00     0.026 A 
HETATM   15  C   UNK N   1      29.212  21.517  -7.050  0.00  0.00     0.016 A 
BRANCH   5  16
HETATM   16  C   UNK N   1      27.104  25.100  -4.082  0.00  0.00     0.311 C 
HETATM   17  O   UNK N   1      26.522  24.848  -3.053  0.00  0.00    -0.258 OA
BRANCH  16  18
HETATM   18  O   UNK N   1      26.872  26.350  -4.582  0.00  0.00    -0.317 OA
BRANCH  18  19
HETATM   19  C   UNK N   1      25.759  27.146  -4.529  0.00  0.00     0.175 C 
HETATM   20  C   UNK N   1      24.909  26.879  -5.762  0.00  0.00     0.034 C 
ENDBRANCH  18  19
ENDBRANCH  16  18
ENDBRANCH   5  16
ENDBRANCH   1   4
BRANCH   1  21
HETATM   21  C   UNK N   1      26.381  24.170  -7.982  0.00  0.00     0.104 C 
BRANCH  21  22
HETATM   22  N   UNK N   1      25.287  24.269  -8.857  0.00  0.00    -0.407 N 
HETATM   23  H   UNK N   1      24.520  24.847  -8.637  0.00  0.00     0.155 HD
HETATM   24  H   UNK N   1      25.285  23.757  -9.698  0.00  0.00     0.155 HD
ENDBRANCH  21  22
ENDBRANCH   1  21
TORSDOF 6
ENDMDL
MODEL 8
REMARK VINA RESULT:      -5.8     11.476     12.484
REMARK  6 active torsions:
REMARK  status: ('A' for Active; 'I' for Inactive)
REMARK    1  A    between atoms: C_2  and  O_3 
REMARK    2  A    between atoms: O_3  and  C_4 
REMARK    3  A    between atoms: C_4  and  C_6 
REMARK    4  A    between atoms: C_17  and  C_18 
REMARK    5  A    between atoms: C_18  and  C_21 
REMARK    6  A    between atoms: C_21  and  N_22 
ROOT
HETATM    1  C   UNK N   1      26.517  22.322  -7.871  0.00  0.00     0.073 C 
HETATM    2  C   UNK N   1      26.799  22.606  -9.250  0.00  0.00     0.102 C 
HETATM    3  N   UNK N   1      26.967  22.802 -10.380  0.00  0.00    -0.191 NA
ENDROOT
BRANCH   1   4
HETATM    4  C   UNK N   1      27.401  22.851  -6.707  0.00  0.00     0.032 A 
HETATM    5  C   UNK N   1      27.173  23.935  -5.769  0.00  0.00     0.123 A 
HETATM    6  N   UNK N   1      28.229  23.985  -4.894  0.00  0.00    -0.344 N 
HETATM    7  C   UNK N   1      28.493  24.948  -3.843  0.00  0.00     0.157 C 
HETATM    8  C   UNK N   1      29.083  22.993  -5.206  0.00  0.00     0.069 A 
HETATM    9  C   UNK N   1      30.279  22.619  -4.535  0.00  0.00     0.083 A 
HETATM   10  C   UNK N   1      28.641  22.313  -6.313  0.00  0.00     0.007 A 
HETATM   11 Cl   UNK N   1      30.834  23.394  -3.047  0.00  0.00    -0.080 Cl
HETATM   12  C   UNK N   1      31.021  21.539  -5.056  0.00  0.00     0.058 A 
HETATM   13 Cl   UNK N   1      32.471  20.949  -4.257  0.00  0.00    -0.082 Cl
HETATM   14  C   UNK N   1      30.592  20.891  -6.218  0.00  0.00     0.026 A 
HETATM   15  C   UNK N   1      29.406  21.279  -6.842  0.00  0.00     0.016 A 
BRANCH   5  16
HETATM   16  C   UNK N   1      25.984  24.906  -5.739  0.00  0.00     0.311 C 
HETATM   17  O   UNK N   1      24.891  24.461  -5.476  0.00  0.00    -0.258 OA
BRANCH  16  18
HETATM   18  O   UNK N   1      26.008  26.245  -6.013  0.00  0.00    -0.317 OA
BRANCH  18  19
HETATM   19  C   UNK N   1      25.199  27.264  -5.586  0.00  0.00     0.175 C 
HETATM   20  C   UNK N   1      25.612  27.654  -4.175  0.00  0.00     0.034 C 
ENDBRANCH  18  19
ENDBRANCH  16  18
ENDBRANCH   5  16
ENDBRANCH   1   4
BRANCH   1  21
HETATM   21  C   UNK N   1      25.367  21.613  -7.773  0.00  0.00     0.104 C 
BRANCH  21  22
HETATM   22  N   UNK N   1      24.390  21.677  -6.766  0.00  0.00    -0.407 N 
HETATM   23  H   UNK N   1      23.562  21.149  -6.838  0.00  0.00     0.155 HD
HETATM   24  H   UNK N   1      24.533  22.255  -5.981  0.00  0.00     0.155 HD
ENDBRANCH  21  22
ENDBRANCH   1  21
TORSDOF 6
ENDMDL
MODEL 9
REMARK VINA RESULT:      -5.8      6.028      9.049
REMARK  6 active torsions:
REMARK  status: ('A' for Active; 'I' for Inactive)
REMARK    1  A    between atoms: C_2  and  O_3 
REMARK    2  A    between atoms: O_3  and  C_4 
REMARK    3  A    between atoms: C_4  and  C_6 
REMARK    4  A    between atoms: C_17  and  C_18 
REMARK    5  A    between atoms: C_18  and  C_21 
REMARK    6  A    between atoms: C_21  and  N_22 
ROOT
HETATM    1  C   UNK N   1      22.633  12.254  10.576  0.00  0.00     0.073 C 
HETATM    2  C   UNK N   1      24.011  12.190  10.973  0.00  0.00     0.102 C 
HETATM    3  N   UNK N   1      25.102  12.129  11.359  0.00  0.00    -0.191 NA
ENDROOT
BRANCH   1   4
HETATM    4  C   UNK N   1      22.192  12.391   9.092  0.00  0.00     0.032 A 
HETATM    5  C   UNK N   1      21.290  13.337   8.461  0.00  0.00     0.123 A 
HETATM    6  N   UNK N   1      21.260  13.079   7.113  0.00  0.00    -0.344 N 
HETATM    7  C   UNK N   1      20.442  13.697   6.089  0.00  0.00     0.157 C 
HETATM    8  C   UNK N   1      22.099  12.058   6.860  0.00  0.00     0.069 A 
HETATM    9  C   UNK N   1      22.441  11.493   5.601  0.00  0.00     0.083 A 
HETATM   10  C   UNK N   1      22.650  11.591   8.026  0.00  0.00     0.007 A 
HETATM   11 Cl   UNK N   1      21.842  12.125   4.064  0.00  0.00    -0.080 Cl
HETATM   12  C   UNK N   1      23.348  10.413   5.584  0.00  0.00     0.058 A 
HETATM   13 Cl   UNK N   1      23.893   9.694   4.077  0.00  0.00    -0.082 Cl
HETATM   14  C   UNK N   1      23.857   9.908   6.784  0.00  0.00     0.026 A 
HETATM   15  C   UNK N   1      23.507  10.497   7.999  0.00  0.00     0.016 A 
BRANCH   5  16
HETATM   16  C   UNK N   1      20.465  14.436   9.146  0.00  0.00     0.311 C 
HETATM   17  O   UNK N   1      19.471  14.110   9.751  0.00  0.00    -0.258 OA
BRANCH  16  18
HETATM   18  O   UNK N   1      20.709  15.781   9.125  0.00  0.00    -0.317 OA
BRANCH  18  19
HETATM   19  C   UNK N   1      20.018  16.809   8.541  0.00  0.00     0.175 C 
HETATM   20  C   UNK N   1      20.697  17.169   7.229  0.00  0.00     0.034 C 
ENDBRANCH  18  19
ENDBRANCH  16  18
ENDBRANCH   5  16
ENDBRANCH   1   4
BRANCH   1  21
HETATM   21  C   UNK N   1      21.835  12.107  11.660  0.00  0.00     0.104 C 
BRANCH  21  22
HETATM   22  N   UNK N   1      20.448  11.886  11.695  0.00  0.00    -0.407 N 
HETATM   23  H   UNK N   1      19.935  11.790  10.860  0.00  0.00     0.155 HD
HETATM   24  H   UNK N   1      19.984  11.826  12.562  0.00  0.00     0.155 HD
ENDBRANCH  21  22
ENDBRANCH   1  21
TORSDOF 6
ENDMDL
