REMARK  6 active torsions:
REMARK  status: ('A' for Active; 'I' for Inactive)
REMARK    1  A    between atoms: C_2  and  O_3 
REMARK    2  A    between atoms: O_3  and  C_4 
REMARK    3  A    between atoms: C_4  and  C_6 
REMARK    4  A    between atoms: C_17  and  C_18 
REMARK    5  A    between atoms: C_18  and  C_21 
REMARK    6  A    between atoms: C_21  and  N_22 
ROOT
HETATM    1  C   UNK N   1       3.559   4.660  -0.042  0.00  0.00     0.073 C 
HETATM    2  C   UNK N   1       2.230   4.118  -0.086  0.00  0.00     0.102 C 
HETATM    3  N   UNK N   1       1.185   3.617  -0.111  0.00  0.00    -0.191 NA
ENDROOT
BRANCH   1   4
HETATM    4  C   UNK N   1       3.846   6.186  -0.123  0.00  0.00     0.032 A 
HETATM    5  C   UNK N   1       2.935   7.316  -0.132  0.00  0.00     0.123 A 
HETATM    6  N   UNK N   1       3.674   8.472  -0.169  0.00  0.00    -0.344 N 
HETATM    7  C   UNK N   1       3.212   9.841  -0.280  0.00  0.00     0.157 C 
HETATM    8  C   UNK N   1       4.978   8.140  -0.157  0.00  0.00     0.069 A 
HETATM    9  C   UNK N   1       6.105   9.006  -0.119  0.00  0.00     0.083 A 
HETATM   10  C   UNK N   1       5.124   6.776  -0.168  0.00  0.00     0.007 A 
HETATM   11 Cl   UNK N   1       5.969  10.763   0.003  0.00  0.00    -0.080 Cl
HETATM   12  C   UNK N   1       7.389   8.422  -0.120  0.00  0.00     0.058 A 
HETATM   13 Cl   UNK N   1       8.843   9.400   0.003  0.00  0.00    -0.082 Cl
HETATM   14  C   UNK N   1       7.526   7.033  -0.191  0.00  0.00     0.026 A 
HETATM   15  C   UNK N   1       6.396   6.215  -0.215  0.00  0.00     0.016 A 
BRANCH   5  16
HETATM   16  C   UNK N   1       1.400   7.275  -0.131  0.00  0.00     0.311 C 
HETATM   17  O   UNK N   1       0.857   6.237  -0.428  0.00  0.00    -0.258 OA
BRANCH  16  18
HETATM   18  O   UNK N   1       0.550   8.310   0.142  0.00  0.00    -0.317 OA
BRANCH  18  19
HETATM   19  C   UNK N   1       0.765   9.506   0.773  0.00  0.00     0.175 C 
HETATM   20  C   UNK N   1       0.274  10.628  -0.129  0.00  0.00     0.034 C 
ENDBRANCH  18  19
ENDBRANCH  16  18
ENDBRANCH   5  16
ENDBRANCH   1   4
BRANCH   1  21
HETATM   21  C   UNK N   1       4.456   3.664   0.146  0.00  0.00     0.104 C 
BRANCH  21  22
HETATM   22  N   UNK N   1       5.845   3.768   0.329  0.00  0.00    -0.407 N 
HETATM   23  H   UNK N   1       6.395   2.961   0.457  0.00  0.00     0.155 HD
HETATM   24  H   UNK N   1       6.273   4.655   0.329  0.00  0.00     0.155 HD
ENDBRANCH  21  22
ENDBRANCH   1  21
TORSDOF 6
