MODEL 1
REMARK VINA RESULT:      -7.4      0.000      0.000
REMARK  2 active torsions:
REMARK  status: ('A' for Active; 'I' for Inactive)
REMARK    1  A    between atoms: O_1  and  C_2 
REMARK       I    between atoms: C_9  and  N_10 
REMARK    2  A    between atoms: C_16  and  C_18 
REMARK       I    between atoms: C_23  and  N_26 
ROOT
HETATM    1  C   UNK N   1      29.607  17.369   8.515  0.00  0.00     0.082 A 
HETATM    2  C   UNK N   1      28.208  17.363   8.428  0.00  0.00     0.054 A 
HETATM    3  C   UNK N   1      27.581  17.268   7.172  0.00  0.00     0.092 A 
HETATM    4  N   UNK N   1      28.325  17.181   6.031  0.00  0.00    -0.351 N 
ATOM      5  HN  UNK N   1      27.868  17.112   5.122  1.00  0.00     0.166 HD
HETATM    6  C   UNK N   1      29.680  17.187   6.119  0.00  0.00     0.143 A 
HETATM    7  N   UNK N   1      30.543  17.108   5.092  0.00  0.00    -0.131 N 
HETATM    8  C   UNK N   1      30.331  17.006   3.751  0.00  0.00     0.684 A 
HETATM    9  N   UNK N   1      29.024  16.967   3.222  0.00  0.00    -0.234 N 
HETATM   10  N   UNK N   1      31.406  16.942   2.918  0.00  0.00    -0.202 N 
ATOM     11  HN  UNK N   1      31.258  16.865   1.911  1.00  0.00     0.183 HD
HETATM   12  C   UNK N   1      32.680  16.978   3.411  0.00  0.00     0.108 A 
HETATM   13  C   UNK N   1      32.903  17.083   4.789  0.00  0.00     0.049 A 
HETATM   14  C   UNK N   1      31.784  17.147   5.616  0.00  0.00     0.073 A 
HETATM   15  C   UNK N   1      31.723  17.253   7.012  0.00  0.00     0.036 A 
HETATM   16  C   UNK N   1      30.349  17.278   7.322  0.00  0.00     0.057 A 
HETATM   17  H   UNK N   1      28.889  16.893   2.250  0.00  0.00     0.174 HD
HETATM   18  H   UNK N   1      28.247  17.013   3.825  0.00  0.00     0.174 HD
ENDROOT
BRANCH  15  19
HETATM   19  C   UNK N   1      32.881  17.323   7.937  0.00  0.00     0.064 A 
HETATM   20  C   UNK N   1      33.862  18.310   7.796  0.00  0.00     0.048 A 
HETATM   21  C   UNK N   1      34.929  18.331   8.692  0.00  0.00     0.108 A 
HETATM   22  N   UNK N   1      35.003  17.402   9.681  0.00  0.00    -0.202 N 
HETATM   23  C   UNK N   1      34.043  16.450   9.806  0.00  0.00     0.676 A 
ATOM     24  HN  UNK N   1      35.785  17.421  10.335  1.00  0.00     0.183 HD
HETATM   25  N   UNK N   1      33.002  16.421   8.941  0.00  0.00    -0.191 N 
HETATM   26  N   UNK N   1      34.125  15.492  10.833  0.00  0.00    -0.234 N 
ATOM     27  HN  UNK N   1      32.289  15.699   9.048  1.00  0.00     0.184 HD
HETATM   28  H   UNK N   1      33.428  14.803  10.921  0.00  0.00     0.174 HD
HETATM   29  H   UNK N   1      34.881  15.510  11.464  0.00  0.00     0.174 HD
ENDBRANCH  15  19
BRANCH   1  30
HETATM   30  O   UNK N   1      30.184  17.460   9.723  0.00  0.00    -0.360 OA
HETATM   31  H   UNK N   1      31.107  17.323   9.812  0.00  0.00     0.217 HD
ENDBRANCH   1  30
TORSDOF 2
ENDMDL
MODEL 2
REMARK VINA RESULT:      -7.3      6.525      9.237
REMARK  2 active torsions:
REMARK  status: ('A' for Active; 'I' for Inactive)
REMARK    1  A    between atoms: O_1  and  C_2 
REMARK       I    between atoms: C_9  and  N_10 
REMARK    2  A    between atoms: C_16  and  C_18 
REMARK       I    between atoms: C_23  and  N_26 
ROOT
HETATM    1  C   UNK N   1      23.529  16.441   5.501  0.00  0.00     0.082 A 
HETATM    2  C   UNK N   1      22.738  15.326   5.813  0.00  0.00     0.054 A 
HETATM    3  C   UNK N   1      21.424  15.234   5.319  0.00  0.00     0.092 A 
HETATM    4  N   UNK N   1      20.907  16.226   4.536  0.00  0.00    -0.351 N 
ATOM      5  HN  UNK N   1      19.954  16.157   4.180  1.00  0.00     0.166 HD
HETATM    6  C   UNK N   1      21.676  17.304   4.236  0.00  0.00     0.143 A 
HETATM    7  N   UNK N   1      21.310  18.355   3.481  0.00  0.00    -0.131 N 
HETATM    8  C   UNK N   1      20.143  18.631   2.838  0.00  0.00     0.684 A 
HETATM    9  N   UNK N   1      19.051  17.740   2.897  0.00  0.00    -0.234 N 
HETATM   10  N   UNK N   1      20.040  19.790   2.130  0.00  0.00    -0.202 N 
ATOM     11  HN  UNK N   1      19.169  20.007   1.644  1.00  0.00     0.183 HD
HETATM   12  C   UNK N   1      21.086  20.666   2.061  0.00  0.00     0.108 A 
HETATM   13  C   UNK N   1      22.289  20.386   2.721  0.00  0.00     0.049 A 
HETATM   14  C   UNK N   1      22.364  19.194   3.437  0.00  0.00     0.073 A 
HETATM   15  C   UNK N   1      23.434  18.675   4.178  0.00  0.00     0.036 A 
HETATM   16  C   UNK N   1      22.970  17.448   4.690  0.00  0.00     0.057 A 
HETATM   17  H   UNK N   1      18.214  17.956   2.426  0.00  0.00     0.174 HD
HETATM   18  H   UNK N   1      19.126  16.903   3.409  0.00  0.00     0.174 HD
ENDROOT
BRANCH  15  19
HETATM   19  C   UNK N   1      24.762  19.312   4.364  0.00  0.00     0.064 A 
HETATM   20  C   UNK N   1      25.546  19.682   3.266  0.00  0.00     0.048 A 
HETATM   21  C   UNK N   1      26.786  20.276   3.496  0.00  0.00     0.108 A 
HETATM   22  N   UNK N   1      27.213  20.487   4.768  0.00  0.00    -0.202 N 
HETATM   23  C   UNK N   1      26.440  20.121   5.824  0.00  0.00     0.676 A 
ATOM     24  HN  UNK N   1      28.120  20.921   4.932  1.00  0.00     0.183 HD
HETATM   25  N   UNK N   1      25.234  19.544   5.612  0.00  0.00    -0.191 N 
HETATM   26  N   UNK N   1      26.888  20.342   7.139  0.00  0.00    -0.234 N 
ATOM     27  HN  UNK N   1      24.665  19.275   6.415  1.00  0.00     0.184 HD
HETATM   28  H   UNK N   1      26.325  20.076   7.902  0.00  0.00     0.174 HD
HETATM   29  H   UNK N   1      27.765  20.762   7.297  0.00  0.00     0.174 HD
ENDBRANCH  15  19
BRANCH   1  30
HETATM   30  O   UNK N   1      24.779  16.507   5.981  0.00  0.00    -0.360 OA
HETATM   31  H   UNK N   1      24.992  16.090   6.793  0.00  0.00     0.217 HD
ENDBRANCH   1  30
TORSDOF 2
ENDMDL
MODEL 3
REMARK VINA RESULT:      -7.2      1.912      3.646
REMARK  2 active torsions:
REMARK  status: ('A' for Active; 'I' for Inactive)
REMARK    1  A    between atoms: O_1  and  C_2 
REMARK       I    between atoms: C_9  and  N_10 
REMARK    2  A    between atoms: C_16  and  C_18 
REMARK       I    between atoms: C_23  and  N_26 
ROOT
HETATM    1  C   UNK N   1      31.925  15.410   5.454  0.00  0.00     0.082 A 
HETATM    2  C   UNK N   1      31.288  14.754   4.392  0.00  0.00     0.054 A 
HETATM    3  C   UNK N   1      29.888  14.812   4.266  0.00  0.00     0.092 A 
HETATM    4  N   UNK N   1      29.140  15.506   5.174  0.00  0.00    -0.351 N 
ATOM      5  HN  UNK N   1      28.124  15.547   5.081  1.00  0.00     0.166 HD
HETATM    6  C   UNK N   1      29.760  16.140   6.201  0.00  0.00     0.143 A 
HETATM    7  N   UNK N   1      29.163  16.858   7.168  0.00  0.00    -0.131 N 
HETATM    8  C   UNK N   1      27.851  17.143   7.390  0.00  0.00     0.684 A 
HETATM    9  N   UNK N   1      26.845  16.660   6.526  0.00  0.00    -0.234 N 
HETATM   10  N   UNK N   1      27.516  17.908   8.466  0.00  0.00    -0.202 N 
ATOM     11  HN  UNK N   1      26.535  18.128   8.641  1.00  0.00     0.183 HD
HETATM   12  C   UNK N   1      28.475  18.385   9.314  0.00  0.00     0.108 A 
HETATM   13  C   UNK N   1      29.827  18.094   9.090  0.00  0.00     0.049 A 
HETATM   14  C   UNK N   1      30.138  17.310   7.982  0.00  0.00     0.073 A 
HETATM   15  C   UNK N   1      31.392  16.876   7.532  0.00  0.00     0.036 A 
HETATM   16  C   UNK N   1      31.128  16.117   6.375  0.00  0.00     0.057 A 
HETATM   17  H   UNK N   1      25.901  16.876   6.701  0.00  0.00     0.174 HD
HETATM   18  H   UNK N   1      27.088  16.107   5.749  0.00  0.00     0.174 HD
ENDROOT
BRANCH  15  19
HETATM   19  C   UNK N   1      32.701  17.171   8.165  0.00  0.00     0.064 A 
HETATM   20  C   UNK N   1      33.540  18.170   7.660  0.00  0.00     0.048 A 
HETATM   21  C   UNK N   1      34.759  18.408   8.292  0.00  0.00     0.108 A 
HETATM   22  N   UNK N   1      35.114  17.674   9.380  0.00  0.00    -0.202 N 
HETATM   23  C   UNK N   1      34.289  16.708   9.859  0.00  0.00     0.676 A 
ATOM     24  HN  UNK N   1      36.007  17.851   9.839  1.00  0.00     0.183 HD
HETATM   25  N   UNK N   1      33.103  16.469   9.252  0.00  0.00    -0.191 N 
HETATM   26  N   UNK N   1      34.662  15.953  10.985  0.00  0.00    -0.234 N 
ATOM     27  HN  UNK N   1      32.493  15.740   9.624  1.00  0.00     0.184 HD
HETATM   28  H   UNK N   1      34.062  15.253  11.330  0.00  0.00     0.174 HD
HETATM   29  H   UNK N   1      35.525  16.124  11.429  0.00  0.00     0.174 HD
ENDBRANCH  15  19
BRANCH   1  30
HETATM   30  O   UNK N   1      33.261  15.341   5.555  0.00  0.00    -0.360 OA
HETATM   31  H   UNK N   1      33.656  15.043   6.351  0.00  0.00     0.217 HD
ENDBRANCH   1  30
TORSDOF 2
ENDMDL
MODEL 4
REMARK VINA RESULT:      -7.2      2.848      6.701
REMARK  2 active torsions:
REMARK  status: ('A' for Active; 'I' for Inactive)
REMARK    1  A    between atoms: O_1  and  C_2 
REMARK       I    between atoms: C_9  and  N_10 
REMARK    2  A    between atoms: C_16  and  C_18 
REMARK       I    between atoms: C_23  and  N_26 
ROOT
HETATM    1  C   UNK N   1      30.032  16.772   4.000  0.00  0.00     0.082 A 
HETATM    2  C   UNK N   1      31.144  15.957   3.746  0.00  0.00     0.054 A 
HETATM    3  C   UNK N   1      31.988  15.567   4.803  0.00  0.00     0.092 A 
HETATM    4  N   UNK N   1      31.732  15.977   6.080  0.00  0.00    -0.351 N 
ATOM      5  HN  UNK N   1      32.345  15.693   6.844  1.00  0.00     0.166 HD
HETATM    6  C   UNK N   1      30.655  16.766   6.322  0.00  0.00     0.143 A 
HETATM    7  N   UNK N   1      30.275  17.248   7.518  0.00  0.00    -0.131 N 
HETATM    8  C   UNK N   1      30.820  17.098   8.756  0.00  0.00     0.684 A 
HETATM    9  N   UNK N   1      31.986  16.327   8.950  0.00  0.00    -0.234 N 
HETATM   10  N   UNK N   1      30.221  17.706   9.817  0.00  0.00    -0.202 N 
ATOM     11  HN  UNK N   1      30.622  17.600  10.750  1.00  0.00     0.183 HD
HETATM   12  C   UNK N   1      29.092  18.456   9.650  0.00  0.00     0.108 A 
HETATM   13  C   UNK N   1      28.527  18.614   8.378  0.00  0.00     0.049 A 
HETATM   14  C   UNK N   1      29.162  17.980   7.313  0.00  0.00     0.073 A 
HETATM   15  C   UNK N   1      28.815  17.972   5.956  0.00  0.00     0.036 A 
HETATM   16  C   UNK N   1      29.794  17.179   5.327  0.00  0.00     0.057 A 
HETATM   17  H   UNK N   1      32.367  16.229   9.852  0.00  0.00     0.174 HD
HETATM   18  H   UNK N   1      32.419  15.887   8.183  0.00  0.00     0.174 HD
ENDROOT
BRANCH  15  19
HETATM   19  C   UNK N   1      27.653  18.664   5.345  0.00  0.00     0.064 A 
HETATM   20  C   UNK N   1      27.823  19.811   4.561  0.00  0.00     0.048 A 
HETATM   21  C   UNK N   1      26.698  20.422   4.011  0.00  0.00     0.108 A 
HETATM   22  N   UNK N   1      25.463  19.904   4.240  0.00  0.00    -0.202 N 
HETATM   23  C   UNK N   1      25.314  18.790   5.003  0.00  0.00     0.676 A 
ATOM     24  HN  UNK N   1      24.643  20.354   3.835  1.00  0.00     0.183 HD
HETATM   25  N   UNK N   1      26.399  18.188   5.542  0.00  0.00    -0.191 N 
HETATM   26  N   UNK N   1      24.032  18.259   5.236  0.00  0.00    -0.234 N 
ATOM     27  HN  UNK N   1      26.271  17.353   6.113  1.00  0.00     0.184 HD
HETATM   28  H   UNK N   1      23.927  17.451   5.790  0.00  0.00     0.174 HD
HETATM   29  H   UNK N   1      23.239  18.694   4.845  0.00  0.00     0.174 HD
ENDBRANCH  15  19
BRANCH   1  30
HETATM   30  O   UNK N   1      29.242  17.132   2.978  0.00  0.00    -0.360 OA
HETATM   31  H   UNK N   1      29.486  17.849   2.426  0.00  0.00     0.217 HD
ENDBRANCH   1  30
TORSDOF 2
ENDMDL
MODEL 5
REMARK VINA RESULT:      -7.1      3.339      5.439
REMARK  2 active torsions:
REMARK  status: ('A' for Active; 'I' for Inactive)
REMARK    1  A    between atoms: O_1  and  C_2 
REMARK       I    between atoms: C_9  and  N_10 
REMARK    2  A    between atoms: C_16  and  C_18 
REMARK       I    between atoms: C_23  and  N_26 
ROOT
HETATM    1  C   UNK N   1      29.841  17.107   7.725  0.00  0.00     0.082 A 
HETATM    2  C   UNK N   1      29.686  17.248   9.111  0.00  0.00     0.054 A 
HETATM    3  C   UNK N   1      28.766  18.179   9.626  0.00  0.00     0.092 A 
HETATM    4  N   UNK N   1      28.017  18.951   8.784  0.00  0.00    -0.351 N 
ATOM      5  HN  UNK N   1      27.350  19.625   9.160  1.00  0.00     0.166 HD
HETATM    6  C   UNK N   1      28.169  18.811   7.443  0.00  0.00     0.143 A 
HETATM    7  N   UNK N   1      27.508  19.495   6.493  0.00  0.00    -0.131 N 
HETATM    8  C   UNK N   1      26.556  20.463   6.587  0.00  0.00     0.684 A 
HETATM    9  N   UNK N   1      26.099  20.915   7.842  0.00  0.00    -0.234 N 
HETATM   10  N   UNK N   1      26.045  20.997   5.443  0.00  0.00    -0.202 N 
ATOM     11  HN  UNK N   1      25.330  21.723   5.502  1.00  0.00     0.183 HD
HETATM   12  C   UNK N   1      26.475  20.573   4.217  0.00  0.00     0.108 A 
HETATM   13  C   UNK N   1      27.454  19.578   4.115  0.00  0.00     0.049 A 
HETATM   14  C   UNK N   1      27.958  19.051   5.302  0.00  0.00     0.073 A 
HETATM   15  C   UNK N   1      28.930  18.059   5.486  0.00  0.00     0.036 A 
HETATM   16  C   UNK N   1      29.055  17.916   6.882  0.00  0.00     0.057 A 
HETATM   17  H   UNK N   1      25.409  21.616   7.892  0.00  0.00     0.174 HD
HETATM   18  H   UNK N   1      26.468  20.529   8.669  0.00  0.00     0.174 HD
ENDROOT
BRANCH  15  19
HETATM   19  C   UNK N   1      29.655  17.334   4.413  0.00  0.00     0.064 A 
HETATM   20  C   UNK N   1      28.979  16.489   3.526  0.00  0.00     0.048 A 
HETATM   21  C   UNK N   1      29.707  15.831   2.537  0.00  0.00     0.108 A 
HETATM   22  N   UNK N   1      31.051  16.016   2.446  0.00  0.00    -0.202 N 
HETATM   23  C   UNK N   1      31.693  16.839   3.314  0.00  0.00     0.676 A 
ATOM     24  HN  UNK N   1      31.580  15.533   1.721  1.00  0.00     0.183 HD
HETATM   25  N   UNK N   1      30.995  17.483   4.279  0.00  0.00    -0.191 N 
HETATM   26  N   UNK N   1      33.084  17.027   3.215  0.00  0.00    -0.234 N 
ATOM     27  HN  UNK N   1      31.492  18.098   4.923  1.00  0.00     0.184 HD
HETATM   28  H   UNK N   1      33.547  17.624   3.846  0.00  0.00     0.174 HD
HETATM   29  H   UNK N   1      33.595  16.560   2.514  0.00  0.00     0.174 HD
ENDBRANCH  15  19
BRANCH   1  30
HETATM   30  O   UNK N   1      30.724  16.213   7.256  0.00  0.00    -0.360 OA
HETATM   31  H   UNK N   1      30.509  15.301   7.249  0.00  0.00     0.217 HD
ENDBRANCH   1  30
TORSDOF 2
ENDMDL
MODEL 6
REMARK VINA RESULT:      -7.0      2.748      6.052
REMARK  2 active torsions:
REMARK  status: ('A' for Active; 'I' for Inactive)
REMARK    1  A    between atoms: O_1  and  C_2 
REMARK       I    between atoms: C_9  and  N_10 
REMARK    2  A    between atoms: C_16  and  C_18 
REMARK       I    between atoms: C_23  and  N_26 
ROOT
HETATM    1  C   UNK N   1      28.351  18.680   8.099  0.00  0.00     0.082 A 
HETATM    2  C   UNK N   1      29.110  18.493   9.263  0.00  0.00     0.054 A 
HETATM    3  C   UNK N   1      30.281  17.714   9.224  0.00  0.00     0.092 A 
HETATM    4  N   UNK N   1      30.688  17.134   8.056  0.00  0.00    -0.351 N 
ATOM      5  HN  UNK N   1      31.537  16.570   8.030  1.00  0.00     0.166 HD
HETATM    6  C   UNK N   1      29.951  17.317   6.931  0.00  0.00     0.143 A 
HETATM    7  N   UNK N   1      30.221  16.815   5.714  0.00  0.00    -0.131 N 
HETATM    8  C   UNK N   1      31.242  16.028   5.278  0.00  0.00     0.684 A 
HETATM    9  N   UNK N   1      32.256  15.597   6.159  0.00  0.00    -0.234 N 
HETATM   10  N   UNK N   1      31.274  15.657   3.968  0.00  0.00    -0.202 N 
ATOM     11  HN  UNK N   1      32.036  15.066   3.631  1.00  0.00     0.183 HD
HETATM   12  C   UNK N   1      30.302  16.063   3.099  0.00  0.00     0.108 A 
HETATM   13  C   UNK N   1      29.249  16.873   3.543  0.00  0.00     0.049 A 
HETATM   14  C   UNK N   1      29.243  17.236   4.887  0.00  0.00     0.073 A 
HETATM   15  C   UNK N   1      28.321  18.028   5.584  0.00  0.00     0.036 A 
HETATM   16  C   UNK N   1      28.796  18.071   6.910  0.00  0.00     0.057 A 
HETATM   17  H   UNK N   1      32.988  15.028   5.827  0.00  0.00     0.174 HD
HETATM   18  H   UNK N   1      32.233  15.865   7.106  0.00  0.00     0.174 HD
ENDROOT
BRANCH  15  19
HETATM   19  C   UNK N   1      27.111  18.671   5.015  0.00  0.00     0.064 A 
HETATM   20  C   UNK N   1      27.214  19.699   4.071  0.00  0.00     0.048 A 
HETATM   21  C   UNK N   1      26.046  20.269   3.568  0.00  0.00     0.108 A 
HETATM   22  N   UNK N   1      24.835  19.824   3.994  0.00  0.00    -0.202 N 
HETATM   23  C   UNK N   1      24.751  18.825   4.910  0.00  0.00     0.676 A 
ATOM     24  HN  UNK N   1      23.983  20.243   3.623  1.00  0.00     0.183 HD
HETATM   25  N   UNK N   1      25.879  18.264   5.405  0.00  0.00    -0.191 N 
HETATM   26  N   UNK N   1      23.494  18.368   5.347  0.00  0.00    -0.234 N 
ATOM     27  HN  UNK N   1      25.800  17.515   6.093  1.00  0.00     0.184 HD
HETATM   28  H   UNK N   1      23.436  17.644   6.011  0.00  0.00     0.174 HD
HETATM   29  H   UNK N   1      22.671  18.774   4.988  0.00  0.00     0.174 HD
ENDBRANCH  15  19
BRANCH   1  30
HETATM   30  O   UNK N   1      27.239  19.427   8.160  0.00  0.00    -0.360 OA
HETATM   31  H   UNK N   1      27.107  20.121   7.544  0.00  0.00     0.217 HD
ENDBRANCH   1  30
TORSDOF 2
ENDMDL
MODEL 7
REMARK VINA RESULT:      -6.7      4.663      7.449
REMARK  2 active torsions:
REMARK  status: ('A' for Active; 'I' for Inactive)
REMARK    1  A    between atoms: O_1  and  C_2 
REMARK       I    between atoms: C_9  and  N_10 
REMARK    2  A    between atoms: C_16  and  C_18 
REMARK       I    between atoms: C_23  and  N_26 
ROOT
HETATM    1  C   UNK N   1      33.897  14.932  10.075  0.00  0.00     0.082 A 
HETATM    2  C   UNK N   1      33.279  15.431   8.920  0.00  0.00     0.054 A 
HETATM    3  C   UNK N   1      33.950  15.381   7.684  0.00  0.00     0.092 A 
HETATM    4  N   UNK N   1      35.204  14.849   7.598  0.00  0.00    -0.351 N 
ATOM      5  HN  UNK N   1      35.689  14.813   6.701  1.00  0.00     0.166 HD
HETATM    6  C   UNK N   1      35.800  14.366   8.718  0.00  0.00     0.143 A 
HETATM    7  N   UNK N   1      37.023  13.815   8.793  0.00  0.00    -0.131 N 
HETATM    8  C   UNK N   1      37.964  13.592   7.835  0.00  0.00     0.684 A 
HETATM    9  N   UNK N   1      37.735  13.958   6.491  0.00  0.00    -0.234 N 
HETATM   10  N   UNK N   1      39.140  13.006   8.191  0.00  0.00    -0.202 N 
ATOM     11  HN  UNK N   1      39.853  12.834   7.480  1.00  0.00     0.183 HD
HETATM   12  C   UNK N   1      39.381  12.645   9.486  0.00  0.00     0.108 A 
HETATM   13  C   UNK N   1      38.417  12.872  10.476  0.00  0.00     0.049 A 
HETATM   14  C   UNK N   1      37.224  13.473  10.081  0.00  0.00     0.073 A 
HETATM   15  C   UNK N   1      36.106  13.810  10.856  0.00  0.00     0.036 A 
HETATM   16  C   UNK N   1      35.191  14.389   9.955  0.00  0.00     0.057 A 
HETATM   17  H   UNK N   1      38.426  13.789   5.811  0.00  0.00     0.174 HD
HETATM   18  H   UNK N   1      36.885  14.381   6.234  0.00  0.00     0.174 HD
ENDROOT
BRANCH  15  19
HETATM   19  C   UNK N   1      35.953  13.589  12.316  0.00  0.00     0.064 A 
HETATM   20  C   UNK N   1      35.078  12.616  12.812  0.00  0.00     0.048 A 
HETATM   21  C   UNK N   1      34.972  12.449  14.192  0.00  0.00     0.108 A 
HETATM   22  N   UNK N   1      35.710  13.224  15.029  0.00  0.00    -0.202 N 
HETATM   23  C   UNK N   1      36.555  14.164  14.531  0.00  0.00     0.676 A 
ATOM     24  HN  UNK N   1      35.630  13.099  16.037  1.00  0.00     0.183 HD
HETATM   25  N   UNK N   1      36.666  14.335  13.194  0.00  0.00    -0.191 N 
HETATM   26  N   UNK N   1      37.317  14.963  15.403  0.00  0.00    -0.234 N 
ATOM     27  HN  UNK N   1      37.305  15.045  12.835  1.00  0.00     0.184 HD
HETATM   28  H   UNK N   1      37.929  15.644  15.040  0.00  0.00     0.174 HD
HETATM   29  H   UNK N   1      37.239  14.842  16.378  0.00  0.00     0.174 HD
ENDBRANCH  15  19
BRANCH   1  30
HETATM   30  O   UNK N   1      33.240  14.990  11.242  0.00  0.00    -0.360 OA
HETATM   31  H   UNK N   1      32.302  15.002  11.252  0.00  0.00     0.217 HD
ENDBRANCH   1  30
TORSDOF 2
ENDMDL
MODEL 8
REMARK VINA RESULT:      -6.5      3.523      5.184
REMARK  2 active torsions:
REMARK  status: ('A' for Active; 'I' for Inactive)
REMARK    1  A    between atoms: O_1  and  C_2 
REMARK       I    between atoms: C_9  and  N_10 
REMARK    2  A    between atoms: C_16  and  C_18 
REMARK       I    between atoms: C_23  and  N_26 
ROOT
HETATM    1  C   UNK N   1      34.614  17.168   8.916  0.00  0.00     0.082 A 
HETATM    2  C   UNK N   1      34.099  18.207   8.128  0.00  0.00     0.054 A 
HETATM    3  C   UNK N   1      33.306  17.912   7.004  0.00  0.00     0.092 A 
HETATM    4  N   UNK N   1      33.032  16.617   6.670  0.00  0.00    -0.351 N 
ATOM      5  HN  UNK N   1      32.457  16.406   5.854  1.00  0.00     0.166 HD
HETATM    6  C   UNK N   1      33.532  15.613   7.435  0.00  0.00     0.143 A 
HETATM    7  N   UNK N   1      33.351  14.296   7.236  0.00  0.00    -0.131 N 
HETATM    8  C   UNK N   1      32.660  13.624   6.275  0.00  0.00     0.684 A 
HETATM    9  N   UNK N   1      31.972  14.315   5.255  0.00  0.00    -0.234 N 
HETATM   10  N   UNK N   1      32.639  12.263   6.309  0.00  0.00    -0.202 N 
ATOM     11  HN  UNK N   1      32.124  11.749   5.593  1.00  0.00     0.183 HD
HETATM   12  C   UNK N   1      33.299  11.576   7.288  0.00  0.00     0.108 A 
HETATM   13  C   UNK N   1      34.011  12.262   8.280  0.00  0.00     0.049 A 
HETATM   14  C   UNK N   1      34.014  13.654   8.218  0.00  0.00     0.073 A 
HETATM   15  C   UNK N   1      34.637  14.574   9.070  0.00  0.00     0.036 A 
HETATM   16  C   UNK N   1      34.314  15.842   8.548  0.00  0.00     0.057 A 
HETATM   17  H   UNK N   1      31.477  13.813   4.568  0.00  0.00     0.174 HD
HETATM   18  H   UNK N   1      31.987  15.299   5.231  0.00  0.00     0.174 HD
ENDROOT
BRANCH  15  19
HETATM   19  C   UNK N   1      35.457  14.248  10.263  0.00  0.00     0.064 A 
HETATM   20  C   UNK N   1      34.930  14.356  11.556  0.00  0.00     0.048 A 
HETATM   21  C   UNK N   1      35.743  14.037  12.642  0.00  0.00     0.108 A 
HETATM   22  N   UNK N   1      37.023  13.629  12.436  0.00  0.00    -0.202 N 
HETATM   23  C   UNK N   1      37.520  13.529  11.176  0.00  0.00     0.676 A 
ATOM     24  HN  UNK N   1      37.614  13.397  13.233  1.00  0.00     0.183 HD
HETATM   25  N   UNK N   1      36.739  13.836  10.114  0.00  0.00    -0.191 N 
HETATM   26  N   UNK N   1      38.845  13.106  10.969  0.00  0.00    -0.234 N 
ATOM     27  HN  UNK N   1      37.127  13.756   9.173  1.00  0.00     0.184 HD
HETATM   28  H   UNK N   1      39.203  13.034  10.055  0.00  0.00     0.174 HD
HETATM   29  H   UNK N   1      39.417  12.881  11.740  0.00  0.00     0.174 HD
ENDBRANCH  15  19
BRANCH   1  30
HETATM   30  O   UNK N   1      35.367  17.472   9.984  0.00  0.00    -0.360 OA
HETATM   31  H   UNK N   1      36.261  17.193  10.020  0.00  0.00     0.217 HD
ENDBRANCH   1  30
TORSDOF 2
ENDMDL
MODEL 9
REMARK VINA RESULT:      -6.5     13.005     15.839
REMARK  2 active torsions:
REMARK  status: ('A' for Active; 'I' for Inactive)
REMARK    1  A    between atoms: O_1  and  C_2 
REMARK       I    between atoms: C_9  and  N_10 
REMARK    2  A    between atoms: C_16  and  C_18 
REMARK       I    between atoms: C_23  and  N_26 
ROOT
HETATM    1  C   UNK N   1      44.589  25.731   0.505  0.00  0.00     0.082 A 
HETATM    2  C   UNK N   1      45.884  26.145   0.844  0.00  0.00     0.054 A 
HETATM    3  C   UNK N   1      46.614  25.447   1.824  0.00  0.00     0.092 A 
HETATM    4  N   UNK N   1      46.069  24.364   2.451  0.00  0.00    -0.351 N 
ATOM      5  HN  UNK N   1      46.600  23.859   3.161  1.00  0.00     0.166 HD
HETATM    6  C   UNK N   1      44.814  23.965   2.121  0.00  0.00     0.143 A 
HETATM    7  N   UNK N   1      44.146  22.924   2.647  0.00  0.00    -0.131 N 
HETATM    8  C   UNK N   1      44.505  22.022   3.602  0.00  0.00     0.684 A 
HETATM    9  N   UNK N   1      45.770  22.084   4.223  0.00  0.00    -0.234 N 
HETATM   10  N   UNK N   1      43.619  21.050   3.953  0.00  0.00    -0.202 N 
ATOM     11  HN  UNK N   1      43.877  20.368   4.668  1.00  0.00     0.183 HD
HETATM   12  C   UNK N   1      42.389  20.973   3.364  0.00  0.00     0.108 A 
HETATM   13  C   UNK N   1      42.015  21.898   2.381  0.00  0.00     0.049 A 
HETATM   14  C   UNK N   1      42.942  22.881   2.042  0.00  0.00     0.073 A 
HETATM   15  C   UNK N   1      42.829  23.916   1.105  0.00  0.00     0.036 A 
HETATM   16  C   UNK N   1      44.053  24.611   1.169  0.00  0.00     0.057 A 
HETATM   17  H   UNK N   1      46.012  21.423   4.911  0.00  0.00     0.174 HD
HETATM   18  H   UNK N   1      46.409  22.787   3.968  0.00  0.00     0.174 HD
ENDROOT
BRANCH  15  19
HETATM   19  C   UNK N   1      41.653  24.193   0.244  0.00  0.00     0.064 A 
HETATM   20  C   UNK N   1      41.149  23.222  -0.628  0.00  0.00     0.048 A 
HETATM   21  C   UNK N   1      40.042  23.533  -1.415  0.00  0.00     0.108 A 
HETATM   22  N   UNK N   1      39.471  24.764  -1.327  0.00  0.00    -0.202 N 
HETATM   23  C   UNK N   1      39.972  25.696  -0.477  0.00  0.00     0.676 A 
ATOM     24  HN  UNK N   1      38.661  24.988  -1.905  1.00  0.00     0.183 HD
HETATM   25  N   UNK N   1      41.046  25.404   0.292  0.00  0.00    -0.191 N 
HETATM   26  N   UNK N   1      39.376  26.968  -0.391  0.00  0.00    -0.234 N 
ATOM     27  HN  UNK N   1      41.411  26.115   0.926  1.00  0.00     0.184 HD
HETATM   28  H   UNK N   1      39.741  27.643   0.227  0.00  0.00     0.174 HD
HETATM   29  H   UNK N   1      38.594  27.185  -0.949  0.00  0.00     0.174 HD
ENDBRANCH  15  19
BRANCH   1  30
HETATM   30  O   UNK N   1      43.912  26.411  -0.432  0.00  0.00    -0.360 OA
HETATM   31  H   UNK N   1      42.981  26.499  -0.366  0.00  0.00     0.217 HD
ENDBRANCH   1  30
TORSDOF 2
ENDMDL
