REMARK  2 active torsions:
REMARK  status: ('A' for Active; 'I' for Inactive)
REMARK    1  A    between atoms: O_1  and  C_2 
REMARK       I    between atoms: C_9  and  N_10 
REMARK    2  A    between atoms: C_16  and  C_18 
REMARK       I    between atoms: C_23  and  N_26 
ROOT
HETATM    1  C   UNK N   1      -2.301   0.407  -0.000  0.00  0.00     0.082 A 
HETATM    2  C   UNK N   1      -3.121   1.544  -0.000  0.00  0.00     0.054 A 
HETATM    3  C   UNK N   1      -2.545   2.828  -0.000  0.00  0.00     0.092 A 
HETATM    4  N   UNK N   1      -1.188   2.978  -0.000  0.00  0.00    -0.351 N 
ATOM      5  HN  UNK N   1      -0.773   3.910   0.000  1.00  0.00     0.166 HD
HETATM    6  C   UNK N   1      -0.397   1.875   0.000  0.00  0.00     0.143 A 
HETATM    7  N   UNK N   1       0.947   1.861   0.000  0.00  0.00    -0.131 N 
HETATM    8  C   UNK N   1       1.852   2.878   0.000  0.00  0.00     0.684 A 
HETATM    9  N   UNK N   1       1.433   4.225   0.000  0.00  0.00    -0.234 N 
HETATM   10  N   UNK N   1       3.180   2.577   0.000  0.00  0.00    -0.202 N 
ATOM     11  HN  UNK N   1       3.867   3.332   0.000  1.00  0.00     0.183 HD
HETATM   12  C   UNK N   1       3.606   1.279   0.000  0.00  0.00     0.108 A 
HETATM   13  C   UNK N   1       2.679   0.229   0.000  0.00  0.00     0.049 A 
HETATM   14  C   UNK N   1       1.328   0.568   0.000  0.00  0.00     0.073 A 
HETATM   15  C   UNK N   1       0.207  -0.272  -0.000  0.00  0.00     0.036 A 
HETATM   16  C   UNK N   1      -0.905   0.593  -0.000  0.00  0.00     0.057 A 
HETATM   17  H   UNK N   1       2.101   4.948   0.000  0.00  0.00     0.174 HD
HETATM   18  H   UNK N   1       0.473   4.442   0.000  0.00  0.00     0.174 HD
ENDROOT
BRANCH  15  19
HETATM   19  C   UNK N   1       0.224  -1.756  -0.000  0.00  0.00     0.064 A 
HETATM   20  C   UNK N   1       1.430  -2.466  -0.000  0.00  0.00     0.048 A 
HETATM   21  C   UNK N   1       1.390  -3.859  -0.000  0.00  0.00     0.108 A 
HETATM   22  N   UNK N   1       0.194  -4.504  -0.000  0.00  0.00    -0.202 N 
HETATM   23  C   UNK N   1      -0.968  -3.801   0.000  0.00  0.00     0.676 A 
ATOM     24  HN  UNK N   1       0.169  -5.523  -0.000  1.00  0.00     0.183 HD
HETATM   25  N   UNK N   1      -0.941  -2.448   0.000  0.00  0.00    -0.191 N 
HETATM   26  N   UNK N   1      -2.203  -4.475   0.000  0.00  0.00    -0.234 N 
ATOM     27  HN  UNK N   1      -1.822  -1.934   0.000  1.00  0.00     0.184 HD
HETATM   28  H   UNK N   1      -3.044  -3.963   0.000  0.00  0.00     0.174 HD
HETATM   29  H   UNK N   1      -2.227  -5.460   0.000  0.00  0.00     0.174 HD
ENDBRANCH  15  19
BRANCH   1  30
HETATM   30  O   UNK N   1      -2.871  -0.807  -0.000  0.00  0.00    -0.360 OA
HETATM   31  H   UNK N   1      -3.805  -0.886  -0.000  0.00  0.00     0.217 HD
ENDBRANCH   1  30
TORSDOF 2
