REMARK  2 active torsions:
REMARK  status: ('A' for Active; 'I' for Inactive)
REMARK    1  A    between atoms: N_1  and  C_6 
REMARK    2  A    between atoms: C_4  and  C_10 
ROOT
HETATM    1  C   UNK N   1      42.874  33.348   0.000  0.00  0.00     0.102 A 
HETATM    2  C   UNK N   1      41.158  35.561   0.000  0.00  0.00    -0.008 A 
HETATM    3  C   UNK N   1      41.482  33.163  -0.000  0.00  0.00     0.037 A 
HETATM    4  C   UNK N   1      43.397  34.648   0.000  0.00  0.00     0.037 A 
HETATM    5  C   UNK N   1      40.629  34.265  -0.000  0.00  0.00     0.016 A 
HETATM    6  C   UNK N   1      42.544  35.748   0.000  0.00  0.00     0.016 A 
ENDROOT
BRANCH   2   7
HETATM    7  C   UNK N   1      40.267  36.721   0.000  0.00  0.00     0.059 A 
HETATM    8  N   UNK N   1      40.693  37.993  -0.000  0.00  0.00    -0.300 N 
HETATM    9  N   UNK N   1      39.634  38.782  -0.000  0.00  0.00    -0.311 N 
ATOM     10  HN  UNK N   1      41.667  38.298  -0.000  1.00  0.00     0.187 HD
HETATM   11  C   UNK N   1      38.520  38.022   0.000  0.00  0.00     0.109 A 
HETATM   12  H   UNK N   1      39.654  39.766  -0.000  0.00  0.00     0.186 HD
HETATM   13  C   UNK N   1      38.889  36.690   0.000  0.00  0.00     0.050 A 
ENDBRANCH   2   7
BRANCH   1  14
HETATM   14  N   UNK N   1      43.746  32.230  -0.000  0.00  0.00    -0.116 N 
HETATM   15  O   UNK N   1      45.051  32.412   0.000  0.00  0.00    -0.532 OA
HETATM   16  O   UNK N   1      43.307  31.121  -0.000  0.00  0.00    -0.532 OA
ENDBRANCH   1  14
TORSDOF 2
