MODEL 1
REMARK VINA RESULT:      -5.9      0.000      0.000
REMARK  2 active torsions:
REMARK  status: ('A' for Active; 'I' for Inactive)
REMARK    1  A    between atoms: N_1  and  C_6 
REMARK    2  A    between atoms: C_4  and  C_10 
ROOT
HETATM    1  C   UNK N   1      33.585  17.798   7.624  0.00  0.00     0.102 A 
HETATM    2  C   UNK N   1      31.686  17.173   5.663  0.00  0.00    -0.008 A 
HETATM    3  C   UNK N   1      32.235  17.630   7.974  0.00  0.00     0.037 A 
HETATM    4  C   UNK N   1      33.973  17.650   6.285  0.00  0.00     0.037 A 
HETATM    5  C   UNK N   1      31.291  17.319   6.998  0.00  0.00     0.016 A 
HETATM    6  C   UNK N   1      33.029  17.339   5.311  0.00  0.00     0.016 A 
ENDROOT
BRANCH   2   7
HETATM    7  C   UNK N   1      30.699  16.846   4.634  0.00  0.00     0.059 A 
HETATM    8  N   UNK N   1      30.851  17.133   3.332  0.00  0.00    -0.300 N 
HETATM    9  N   UNK N   1      29.781  16.703   2.688  0.00  0.00    -0.311 N 
ATOM     10  HN  UNK N   1      31.654  17.602   2.912  1.00  0.00     0.187 HD
HETATM   11  C   UNK N   1      28.934  16.137   3.572  0.00  0.00     0.109 A 
HETATM   12  H   UNK N   1      29.626  16.782   1.719  0.00  0.00     0.186 HD
HETATM   13  C   UNK N   1      29.492  16.212   4.834  0.00  0.00     0.050 A 
ENDBRANCH   2   7
BRANCH   1  14
HETATM   14  N   UNK N   1      34.549  18.114   8.614  0.00  0.00    -0.116 N 
HETATM   15  O   UNK N   1      35.297  19.191   8.485  0.00  0.00    -0.532 OA
HETATM   16  O   UNK N   1      34.690  17.411   9.567  0.00  0.00    -0.532 OA
ENDBRANCH   1  14
TORSDOF 2
ENDMDL
MODEL 2
REMARK VINA RESULT:      -5.7      4.813      7.213
REMARK  2 active torsions:
REMARK  status: ('A' for Active; 'I' for Inactive)
REMARK    1  A    between atoms: N_1  and  C_6 
REMARK    2  A    between atoms: C_4  and  C_10 
ROOT
HETATM    1  C   UNK N   1      34.831  17.037   9.062  0.00  0.00     0.102 A 
HETATM    2  C   UNK N   1      34.878  14.863  10.826  0.00  0.00    -0.008 A 
HETATM    3  C   UNK N   1      34.384  15.774   8.640  0.00  0.00     0.037 A 
HETATM    4  C   UNK N   1      35.300  17.200  10.372  0.00  0.00     0.037 A 
HETATM    5  C   UNK N   1      34.408  14.693   9.518  0.00  0.00     0.016 A 
HETATM    6  C   UNK N   1      35.324  16.119  11.249  0.00  0.00     0.016 A 
ENDROOT
BRANCH   2   7
HETATM    7  C   UNK N   1      34.905  13.731  11.752  0.00  0.00     0.059 A 
HETATM    8  N   UNK N   1      34.320  12.549  11.508  0.00  0.00    -0.300 N 
HETATM    9  N   UNK N   1      34.537  11.760  12.545  0.00  0.00    -0.311 N 
ATOM     10  HN  UNK N   1      33.798  12.302  10.667  1.00  0.00     0.187 HD
HETATM   11  C   UNK N   1      35.263  12.431  13.463  0.00  0.00     0.109 A 
HETATM   12  H   UNK N   1      34.220  10.833  12.635  0.00  0.00     0.186 HD
HETATM   13  C   UNK N   1      35.519  13.703  12.986  0.00  0.00     0.050 A 
ENDBRANCH   2   7
BRANCH   1  14
HETATM   14  N   UNK N   1      34.809  18.140   8.171  0.00  0.00    -0.116 N 
HETATM   15  O   UNK N   1      35.311  19.299   8.545  0.00  0.00    -0.532 OA
HETATM   16  O   UNK N   1      34.337  18.028   7.081  0.00  0.00    -0.532 OA
ENDBRANCH   1  14
TORSDOF 2
ENDMDL
MODEL 3
REMARK VINA RESULT:      -5.5      9.849     12.390
REMARK  2 active torsions:
REMARK  status: ('A' for Active; 'I' for Inactive)
REMARK    1  A    between atoms: N_1  and  C_6 
REMARK    2  A    between atoms: C_4  and  C_10 
ROOT
HETATM    1  C   UNK N   1      35.522  13.435  13.844  0.00  0.00     0.102 A 
HETATM    2  C   UNK N   1      35.418  12.843  16.579  0.00  0.00    -0.008 A 
HETATM    3  C   UNK N   1      34.648  12.445  14.320  0.00  0.00     0.037 A 
HETATM    4  C   UNK N   1      36.341  14.124  14.748  0.00  0.00     0.037 A 
HETATM    5  C   UNK N   1      34.597  12.151  15.682  0.00  0.00     0.016 A 
HETATM    6  C   UNK N   1      36.290  13.830  16.108  0.00  0.00     0.016 A 
ENDROOT
BRANCH   2   7
HETATM    7  C   UNK N   1      35.368  12.539  18.009  0.00  0.00     0.059 A 
HETATM    8  N   UNK N   1      35.239  13.467  18.969  0.00  0.00    -0.300 N 
HETATM    9  N   UNK N   1      35.230  12.852  20.138  0.00  0.00    -0.311 N 
ATOM     10  HN  UNK N   1      35.162  14.474  18.821  1.00  0.00     0.187 HD
HETATM   11  C   UNK N   1      35.352  11.524  19.937  0.00  0.00     0.109 A 
HETATM   12  H   UNK N   1      35.146  13.292  21.014  0.00  0.00     0.186 HD
HETATM   13  C   UNK N   1      35.444  11.286  18.579  0.00  0.00     0.050 A 
ENDBRANCH   2   7
BRANCH   1  14
HETATM   14  N   UNK N   1      35.577  13.737  12.460  0.00  0.00    -0.116 N 
HETATM   15  O   UNK N   1      36.639  13.404  11.755  0.00  0.00    -0.532 OA
HETATM   16  O   UNK N   1      34.668  14.294  11.926  0.00  0.00    -0.532 OA
ENDBRANCH   1  14
TORSDOF 2
ENDMDL
MODEL 4
REMARK VINA RESULT:      -5.5     16.396     17.016
REMARK  2 active torsions:
REMARK  status: ('A' for Active; 'I' for Inactive)
REMARK    1  A    between atoms: N_1  and  C_6 
REMARK    2  A    between atoms: C_4  and  C_10 
ROOT
HETATM    1  C   UNK N   1      26.367  28.674  -4.632  0.00  0.00     0.102 A 
HETATM    2  C   UNK N   1      25.926  26.682  -6.549  0.00  0.00    -0.008 A 
HETATM    3  C   UNK N   1      27.230  28.549  -5.732  0.00  0.00     0.037 A 
HETATM    4  C   UNK N   1      25.284  27.795  -4.501  0.00  0.00     0.037 A 
HETATM    5  C   UNK N   1      27.010  27.557  -6.686  0.00  0.00     0.016 A 
HETATM    6  C   UNK N   1      25.065  26.804  -5.454  0.00  0.00     0.016 A 
ENDROOT
BRANCH   2   7
HETATM    7  C   UNK N   1      25.691  25.639  -7.548  0.00  0.00     0.059 A 
HETATM    8  N   UNK N   1      25.377  24.370  -7.246  0.00  0.00    -0.300 N 
HETATM    9  N   UNK N   1      25.235  23.701  -8.376  0.00  0.00    -0.311 N 
ATOM     10  HN  UNK N   1      25.266  23.988  -6.306  1.00  0.00     0.187 HD
HETATM   11  C   UNK N   1      25.457  24.536  -9.411  0.00  0.00     0.109 A 
HETATM   12  H   UNK N   1      25.004  22.748  -8.450  0.00  0.00     0.186 HD
HETATM   13  C   UNK N   1      25.753  25.792  -8.916  0.00  0.00     0.050 A 
ENDBRANCH   2   7
BRANCH   1  14
HETATM   14  N   UNK N   1      26.586  29.682  -3.659  0.00  0.00    -0.116 N 
HETATM   15  O   UNK N   1      26.323  30.941  -3.943  0.00  0.00    -0.532 OA
HETATM   16  O   UNK N   1      27.009  29.399  -2.580  0.00  0.00    -0.532 OA
ENDBRANCH   1  14
TORSDOF 2
ENDMDL
MODEL 5
REMARK VINA RESULT:      -5.4     12.120     14.500
REMARK  2 active torsions:
REMARK  status: ('A' for Active; 'I' for Inactive)
REMARK    1  A    between atoms: N_1  and  C_6 
REMARK    2  A    between atoms: C_4  and  C_10 
ROOT
HETATM    1  C   UNK N   1      35.597  12.854  16.220  0.00  0.00     0.102 A 
HETATM    2  C   UNK N   1      35.454  11.554  18.697  0.00  0.00    -0.008 A 
HETATM    3  C   UNK N   1      35.236  13.568  17.374  0.00  0.00     0.037 A 
HETATM    4  C   UNK N   1      35.885  11.486  16.319  0.00  0.00     0.037 A 
HETATM    5  C   UNK N   1      35.165  12.921  18.606  0.00  0.00     0.016 A 
HETATM    6  C   UNK N   1      35.814  10.840  17.550  0.00  0.00     0.016 A 
ENDROOT
BRANCH   2   7
HETATM    7  C   UNK N   1      35.381  10.869  19.987  0.00  0.00     0.059 A 
HETATM    8  N   UNK N   1      36.317  10.969  20.943  0.00  0.00    -0.300 N 
HETATM    9  N   UNK N   1      35.939  10.229  21.969  0.00  0.00    -0.311 N 
ATOM     10  HN  UNK N   1      37.174  11.522  20.886  1.00  0.00     0.187 HD
HETATM   11  C   UNK N   1      34.757   9.648  21.680  0.00  0.00     0.109 A 
HETATM   12  H   UNK N   1      36.440  10.119  22.809  0.00  0.00     0.186 HD
HETATM   13  C   UNK N   1      34.367  10.038  20.412  0.00  0.00     0.050 A 
ENDBRANCH   2   7
BRANCH   1  14
HETATM   14  N   UNK N   1      35.671  13.508  14.965  0.00  0.00    -0.116 N 
HETATM   15  O   UNK N   1      34.745  13.291  14.053  0.00  0.00    -0.532 OA
HETATM   16  O   UNK N   1      36.568  14.257  14.725  0.00  0.00    -0.532 OA
ENDBRANCH   1  14
TORSDOF 2
ENDMDL
MODEL 6
REMARK VINA RESULT:      -5.4     15.526     16.944
REMARK  2 active torsions:
REMARK  status: ('A' for Active; 'I' for Inactive)
REMARK    1  A    between atoms: N_1  and  C_6 
REMARK    2  A    between atoms: C_4  and  C_10 
ROOT
HETATM    1  C   UNK N   1      25.683  24.120  -6.922  0.00  0.00     0.102 A 
HETATM    2  C   UNK N   1      26.018  26.576  -5.620  0.00  0.00    -0.008 A 
HETATM    3  C   UNK N   1      25.754  25.309  -7.665  0.00  0.00     0.037 A 
HETATM    4  C   UNK N   1      25.782  24.172  -5.525  0.00  0.00     0.037 A 
HETATM    5  C   UNK N   1      25.920  26.531  -7.016  0.00  0.00     0.016 A 
HETATM    6  C   UNK N   1      25.948  25.393  -4.878  0.00  0.00     0.016 A 
ENDROOT
BRANCH   2   7
HETATM    7  C   UNK N   1      26.193  27.856  -4.934  0.00  0.00     0.059 A 
HETATM    8  N   UNK N   1      25.514  28.216  -3.835  0.00  0.00    -0.300 N 
HETATM    9  N   UNK N   1      25.914  29.424  -3.480  0.00  0.00    -0.311 N 
ATOM     10  HN  UNK N   1      24.810  27.654  -3.355  1.00  0.00     0.187 HD
HETATM   11  C   UNK N   1      26.853  29.848  -4.350  0.00  0.00     0.109 A 
HETATM   12  H   UNK N   1      25.581  29.932  -2.706  0.00  0.00     0.186 HD
HETATM   13  C   UNK N   1      27.058  28.865  -5.299  0.00  0.00     0.050 A 
ENDBRANCH   2   7
BRANCH   1  14
HETATM   14  N   UNK N   1      25.514  22.874  -7.577  0.00  0.00    -0.116 N 
HETATM   15  O   UNK N   1      24.429  22.646  -8.289  0.00  0.00    -0.532 OA
HETATM   16  O   UNK N   1      26.348  22.026  -7.490  0.00  0.00    -0.532 OA
ENDBRANCH   1  14
TORSDOF 2
ENDMDL
MODEL 7
REMARK VINA RESULT:      -5.4     10.934     12.276
REMARK  2 active torsions:
REMARK  status: ('A' for Active; 'I' for Inactive)
REMARK    1  A    between atoms: N_1  and  C_6 
REMARK    2  A    between atoms: C_4  and  C_10 
ROOT
HETATM    1  C   UNK N   1      20.677  15.259   7.361  0.00  0.00     0.102 A 
HETATM    2  C   UNK N   1      22.263  13.846   9.187  0.00  0.00    -0.008 A 
HETATM    3  C   UNK N   1      20.234  15.065   8.680  0.00  0.00     0.037 A 
HETATM    4  C   UNK N   1      21.918  14.741   6.967  0.00  0.00     0.037 A 
HETATM    5  C   UNK N   1      21.024  14.361   9.587  0.00  0.00     0.016 A 
HETATM    6  C   UNK N   1      22.706  14.039   7.874  0.00  0.00     0.016 A 
ENDROOT
BRANCH   2   7
HETATM    7  C   UNK N   1      23.095  13.107  10.135  0.00  0.00     0.059 A 
HETATM    8  N   UNK N   1      24.436  13.152  10.149  0.00  0.00    -0.300 N 
HETATM    9  N   UNK N   1      24.864  12.373  11.126  0.00  0.00    -0.311 N 
ATOM     10  HN  UNK N   1      25.023  13.694   9.514  1.00  0.00     0.187 HD
HETATM   11  C   UNK N   1      23.801  11.823  11.747  0.00  0.00     0.109 A 
HETATM   12  H   UNK N   1      25.807  12.219  11.363  0.00  0.00     0.186 HD
HETATM   13  C   UNK N   1      22.646  12.273  11.136  0.00  0.00     0.050 A 
ENDBRANCH   2   7
BRANCH   1  14
HETATM   14  N   UNK N   1      19.878  15.974   6.434  0.00  0.00    -0.116 N 
HETATM   15  O   UNK N   1      18.575  15.778   6.398  0.00  0.00    -0.532 OA
HETATM   16  O   UNK N   1      20.375  16.755   5.683  0.00  0.00    -0.532 OA
ENDBRANCH   1  14
TORSDOF 2
ENDMDL
MODEL 8
REMARK VINA RESULT:      -5.4     10.648     12.667
REMARK  2 active torsions:
REMARK  status: ('A' for Active; 'I' for Inactive)
REMARK    1  A    between atoms: N_1  and  C_6 
REMARK    2  A    between atoms: C_4  and  C_10 
ROOT
HETATM    1  C   UNK N   1      35.387  11.348  18.558  0.00  0.00     0.102 A 
HETATM    2  C   UNK N   1      35.768  12.742  16.159  0.00  0.00    -0.008 A 
HETATM    3  C   UNK N   1      35.137  12.729  18.495  0.00  0.00     0.037 A 
HETATM    4  C   UNK N   1      35.829  10.674  17.411  0.00  0.00     0.037 A 
HETATM    5  C   UNK N   1      35.327  13.421  17.300  0.00  0.00     0.016 A 
HETATM    6  C   UNK N   1      36.018  11.367  16.219  0.00  0.00     0.016 A 
ENDROOT
BRANCH   2   7
HETATM    7  C   UNK N   1      35.968  13.464  14.903  0.00  0.00     0.059 A 
HETATM    8  N   UNK N   1      36.848  14.464  14.746  0.00  0.00    -0.300 N 
HETATM    9  N   UNK N   1      36.771  14.888  13.497  0.00  0.00    -0.311 N 
ATOM     10  HN  UNK N   1      37.469  14.834  15.467  1.00  0.00     0.187 HD
HETATM   11  C   UNK N   1      35.842  14.163  12.843  0.00  0.00     0.109 A 
HETATM   12  H   UNK N   1      37.306  15.616  13.107  0.00  0.00     0.186 HD
HETATM   13  C   UNK N   1      35.304  13.236  13.717  0.00  0.00     0.050 A 
ENDBRANCH   2   7
BRANCH   1  14
HETATM   14  N   UNK N   1      35.196  10.639  19.771  0.00  0.00    -0.116 N 
HETATM   15  O   UNK N   1      34.181   9.809  19.895  0.00  0.00    -0.532 OA
HETATM   16  O   UNK N   1      35.949  10.789  20.683  0.00  0.00    -0.532 OA
ENDBRANCH   1  14
TORSDOF 2
ENDMDL
MODEL 9
REMARK VINA RESULT:      -5.4      6.280      7.838
REMARK  2 active torsions:
REMARK  status: ('A' for Active; 'I' for Inactive)
REMARK    1  A    between atoms: N_1  and  C_6 
REMARK    2  A    between atoms: C_4  and  C_10 
ROOT
HETATM    1  C   UNK N   1      25.918  20.084   4.292  0.00  0.00     0.102 A 
HETATM    2  C   UNK N   1      27.432  19.092   6.429  0.00  0.00    -0.008 A 
HETATM    3  C   UNK N   1      26.402  20.956   5.281  0.00  0.00     0.037 A 
HETATM    4  C   UNK N   1      26.200  18.714   4.383  0.00  0.00     0.037 A 
HETATM    5  C   UNK N   1      27.154  20.461   6.344  0.00  0.00     0.016 A 
HETATM    6  C   UNK N   1      26.952  18.221   5.445  0.00  0.00     0.016 A 
ENDROOT
BRANCH   2   7
HETATM    7  C   UNK N   1      28.222  18.567   7.543  0.00  0.00     0.059 A 
HETATM    8  N   UNK N   1      27.884  18.709   8.833  0.00  0.00    -0.300 N 
HETATM    9  N   UNK N   1      28.809  18.121   9.568  0.00  0.00    -0.311 N 
ATOM     10  HN  UNK N   1      27.054  19.188   9.185  1.00  0.00     0.187 HD
HETATM   11  C   UNK N   1      29.749  17.597   8.755  0.00  0.00     0.109 A 
HETATM   12  H   UNK N   1      28.814  18.072  10.551  0.00  0.00     0.186 HD
HETATM   13  C   UNK N   1      29.404  17.865   7.444  0.00  0.00     0.050 A 
ENDBRANCH   2   7
BRANCH   1  14
HETATM   14  N   UNK N   1      25.152  20.583   3.208  0.00  0.00    -0.116 N 
HETATM   15  O   UNK N   1      23.850  20.738   3.338  0.00  0.00    -0.532 OA
HETATM   16  O   UNK N   1      25.677  20.864   2.175  0.00  0.00    -0.532 OA
ENDBRANCH   1  14
TORSDOF 2
ENDMDL
