REMARK  7 active torsions:
REMARK  status: ('A' for Active; 'I' for Inactive)
REMARK    1  A    between atoms: N_1  and  C_7 
REMARK    2  A    between atoms: C_12  and  N_13 
REMARK       I    between atoms: N_13  and  C_14 
REMARK    3  A    between atoms: C_14  and  C_16 
REMARK    4  A    between atoms: C_20  and  O_21 
REMARK    5  A    between atoms: O_21  and  C_22 
REMARK    6  A    between atoms: C_22  and  C_23 
REMARK    7  A    between atoms: C_23  and  N_24 
ROOT
HETATM    1  N   UNK N   1      14.005   6.562   0.739  0.00  0.00    -0.323 N 
HETATM    2  C   UNK N   1      15.199   7.162   0.551  0.00  0.00     0.256 C 
HETATM    3  O   UNK N   1      15.287   8.372   0.377  0.00  0.00    -0.267 OA
HETATM    4  H   UNK N   1      14.045   5.613   0.995  0.00  0.00     0.169 HD
ENDROOT
BRANCH   2   5
HETATM    5  C   UNK N   1      16.363   6.282   0.379  0.00  0.00     0.033 A 
HETATM    6  C   UNK N   1      17.583   6.762  -0.088  0.00  0.00     0.026 A 
HETATM    7  C   UNK N   1      18.620   5.877  -0.402  0.00  0.00    -0.027 A 
HETATM    8  C   UNK N   1      19.871   6.472  -0.950  0.00  0.00     0.051 C 
HETATM    9  C   UNK N   1      18.426   4.469  -0.245  0.00  0.00     0.080 A 
HETATM   10  C   UNK N   1      17.190   4.007   0.232  0.00  0.00    -0.027 A 
HETATM   11  C   UNK N   1      16.930   2.549   0.408  0.00  0.00     0.051 C 
HETATM   12  C   UNK N   1      16.177   4.903   0.532  0.00  0.00     0.026 A 
BRANCH   9  13
HETATM   13  O   UNK N   1      19.374   3.536  -0.542  0.00  0.00    -0.348 OA
BRANCH  13  14
HETATM   14  C   UNK N   1      20.713   3.779  -0.725  0.00  0.00     0.194 C 
BRANCH  14  15
HETATM   15  C   UNK N   1      21.364   4.009   0.625  0.00  0.00     0.137 C 
BRANCH  15  16
HETATM   16  N   UNK N   1      22.302   5.111   0.529  0.00  0.00    -0.428 N 
HETATM   17  H   UNK N   1      23.303   4.927   0.460  0.00  0.00     0.149 HD
HETATM   18  H   UNK N   1      21.960   6.072   0.529  0.00  0.00     0.149 HD
ENDBRANCH  15  16
ENDBRANCH  14  15
ENDBRANCH  13  14
ENDBRANCH   9  13
ENDBRANCH   2   5
BRANCH   1  19
HETATM   19  C   UNK N   1      12.709   7.102   0.621  0.00  0.00     0.038 A 
HETATM   20  C   UNK N   1      12.455   8.452   0.341  0.00  0.00     0.053 A 
HETATM   21  C   UNK N   1      11.138   8.870   0.106  0.00  0.00     0.038 A 
HETATM   22  C   UNK N   1      10.086   7.939   0.126  0.00  0.00     0.053 A 
HETATM   23 Cl   UNK N   1      10.814  10.547  -0.277  0.00  0.00    -0.084 Cl
HETATM   24  C   UNK N   1      10.352   6.582   0.384  0.00  0.00     0.034 A 
HETATM   25  C   UNK N   1      11.666   6.193   0.625  0.00  0.00     0.059 A 
BRANCH  24  26
HETATM   26  N   UNK N   1       9.326   5.591   0.363  0.00  0.00    -0.381 N 
HETATM   27  C   UNK N   1       9.692   4.180   0.426  0.00  0.00     0.123 C 
HETATM   28  C   UNK N   1       8.504   3.264   0.154  0.00  0.00     0.020 C 
HETATM   29  C   UNK N   1       7.741   3.782  -1.060  0.00  0.00     0.003 C 
HETATM   30  C   UNK N   1       7.214   5.208  -0.846  0.00  0.00     0.020 C 
HETATM   31  C   UNK N   1       7.929   5.970   0.275  0.00  0.00     0.123 C 
ENDBRANCH  24  26
ENDBRANCH   1  19
TORSDOF 7
