MODEL 1
REMARK VINA RESULT:      -7.4      0.000      0.000
REMARK  7 active torsions:
REMARK  status: ('A' for Active; 'I' for Inactive)
REMARK    1  A    between atoms: N_1  and  C_7 
REMARK    2  A    between atoms: C_12  and  N_13 
REMARK       I    between atoms: N_13  and  C_14 
REMARK    3  A    between atoms: C_14  and  C_16 
REMARK    4  A    between atoms: C_20  and  O_21 
REMARK    5  A    between atoms: O_21  and  C_22 
REMARK    6  A    between atoms: C_22  and  C_23 
REMARK    7  A    between atoms: C_23  and  N_24 
ROOT
HETATM    1  N   UNK N   1      33.893  14.228  10.741  0.00  0.00    -0.323 N 
HETATM    2  C   UNK N   1      35.157  14.298  11.206  0.00  0.00     0.256 C 
HETATM    3  O   UNK N   1      36.084  14.658  10.490  0.00  0.00    -0.267 OA
HETATM    4  H   UNK N   1      33.202  14.051  11.419  0.00  0.00     0.169 HD
ENDROOT
BRANCH   2   5
HETATM    5  C   UNK N   1      35.402  13.747  12.547  0.00  0.00     0.033 A 
HETATM    6  C   UNK N   1      34.732  12.619  13.010  0.00  0.00     0.026 A 
HETATM    7  C   UNK N   1      34.857  12.217  14.344  0.00  0.00    -0.027 A 
HETATM    8  C   UNK N   1      34.061  11.032  14.769  0.00  0.00     0.051 C 
HETATM    9  C   UNK N   1      35.677  12.972  15.240  0.00  0.00     0.080 A 
HETATM   10  C   UNK N   1      36.347  14.104  14.751  0.00  0.00    -0.027 A 
HETATM   11  C   UNK N   1      37.208  14.932  15.643  0.00  0.00     0.051 C 
HETATM   12  C   UNK N   1      36.203  14.484  13.427  0.00  0.00     0.026 A 
BRANCH   9  13
HETATM   13  O   UNK N   1      35.842  12.663  16.557  0.00  0.00    -0.348 OA
BRANCH  13  14
HETATM   14  C   UNK N   1      35.008  13.037  17.583  0.00  0.00     0.194 C 
BRANCH  14  15
HETATM   15  C   UNK N   1      35.321  12.198  18.806  0.00  0.00     0.137 C 
BRANCH  15  16
HETATM   16  N   UNK N   1      35.297  13.038  19.988  0.00  0.00    -0.428 N 
HETATM   17  H   UNK N   1      36.171  13.359  20.406  0.00  0.00     0.149 HD
HETATM   18  H   UNK N   1      34.405  13.309  20.402  0.00  0.00     0.149 HD
ENDBRANCH  15  16
ENDBRANCH  14  15
ENDBRANCH  13  14
ENDBRANCH   9  13
ENDBRANCH   2   5
BRANCH   1  19
HETATM   19  C   UNK N   1      33.420  14.372   9.421  0.00  0.00     0.038 A 
HETATM   20  C   UNK N   1      33.657  13.434   8.407  0.00  0.00     0.053 A 
HETATM   21  C   UNK N   1      33.033  13.594   7.163  0.00  0.00     0.038 A 
HETATM   22  C   UNK N   1      32.158  14.671   6.943  0.00  0.00     0.053 A 
HETATM   23 Cl   UNK N   1      33.296  12.410   5.900  0.00  0.00    -0.084 Cl
HETATM   24  C   UNK N   1      31.907  15.595   7.974  0.00  0.00     0.034 A 
HETATM   25  C   UNK N   1      32.546  15.421   9.197  0.00  0.00     0.059 A 
BRANCH  24  26
HETATM   26  N   UNK N   1      30.987  16.674   7.817  0.00  0.00    -0.381 N 
HETATM   27  C   UNK N   1      30.833  17.646   8.894  0.00  0.00     0.123 C 
HETATM   28  C   UNK N   1      29.652  18.581   8.662  0.00  0.00     0.020 C 
HETATM   29  C   UNK N   1      28.444  17.761   8.221  0.00  0.00     0.003 C 
HETATM   30  C   UNK N   1      28.713  16.989   6.922  0.00  0.00     0.020 C 
HETATM   31  C   UNK N   1      30.202  16.811   6.605  0.00  0.00     0.123 C 
ENDBRANCH  24  26
ENDBRANCH   1  19
TORSDOF 7
ENDMDL
MODEL 2
REMARK VINA RESULT:      -7.2      2.610      4.324
REMARK  7 active torsions:
REMARK  status: ('A' for Active; 'I' for Inactive)
REMARK    1  A    between atoms: N_1  and  C_7 
REMARK    2  A    between atoms: C_12  and  N_13 
REMARK       I    between atoms: N_13  and  C_14 
REMARK    3  A    between atoms: C_14  and  C_16 
REMARK    4  A    between atoms: C_20  and  O_21 
REMARK    5  A    between atoms: O_21  and  C_22 
REMARK    6  A    between atoms: C_22  and  C_23 
REMARK    7  A    between atoms: C_23  and  N_24 
ROOT
HETATM    1  N   UNK N   1      35.568  13.372  13.522  0.00  0.00    -0.323 N 
HETATM    2  C   UNK N   1      36.039  13.753  14.728  0.00  0.00     0.256 C 
HETATM    3  O   UNK N   1      36.816  14.693  14.844  0.00  0.00    -0.267 OA
HETATM    4  H   UNK N   1      34.856  12.693  13.542  0.00  0.00     0.169 HD
ENDROOT
BRANCH   2   5
HETATM    5  C   UNK N   1      35.726  12.879  15.868  0.00  0.00     0.033 A 
HETATM    6  C   UNK N   1      35.381  13.393  17.114  0.00  0.00     0.026 A 
HETATM    7  C   UNK N   1      35.254  12.547  18.220  0.00  0.00    -0.027 A 
HETATM    8  C   UNK N   1      34.938  13.188  19.527  0.00  0.00     0.051 C 
HETATM    9  C   UNK N   1      35.484  11.143  18.072  0.00  0.00     0.080 A 
HETATM   10  C   UNK N   1      35.826  10.645  16.806  0.00  0.00    -0.027 A 
HETATM   11  C   UNK N   1      36.084   9.191  16.595  0.00  0.00     0.051 C 
HETATM   12  C   UNK N   1      35.950  11.504  15.726  0.00  0.00     0.026 A 
BRANCH   9  13
HETATM   13  O   UNK N   1      35.399  10.249  19.097  0.00  0.00    -0.348 OA
BRANCH  13  14
HETATM   14  C   UNK N   1      34.241   9.705  19.597  0.00  0.00     0.194 C 
BRANCH  14  15
HETATM   15  C   UNK N   1      34.377   9.546  21.099  0.00  0.00     0.137 C 
BRANCH  15  16
HETATM   16  N   UNK N   1      33.799  10.700  21.762  0.00  0.00    -0.428 N 
HETATM   17  H   UNK N   1      34.272  11.121  22.562  0.00  0.00     0.149 HD
HETATM   18  H   UNK N   1      32.919  11.092  21.427  0.00  0.00     0.149 HD
ENDBRANCH  15  16
ENDBRANCH  14  15
ENDBRANCH  13  14
ENDBRANCH   9  13
ENDBRANCH   2   5
BRANCH   1  19
HETATM   19  C   UNK N   1      35.952  13.808  12.239  0.00  0.00     0.038 A 
HETATM   20  C   UNK N   1      37.088  13.335  11.567  0.00  0.00     0.053 A 
HETATM   21  C   UNK N   1      37.314  13.724  10.240  0.00  0.00     0.038 A 
HETATM   22  C   UNK N   1      36.397  14.560   9.581  0.00  0.00     0.053 A 
HETATM   23 Cl   UNK N   1      38.712  13.112   9.382  0.00  0.00    -0.084 Cl
HETATM   24  C   UNK N   1      35.247  15.011  10.254  0.00  0.00     0.034 A 
HETATM   25  C   UNK N   1      35.050  14.620  11.575  0.00  0.00     0.059 A 
BRANCH  24  26
HETATM   26  N   UNK N   1      34.260  15.817   9.612  0.00  0.00    -0.381 N 
HETATM   27  C   UNK N   1      32.943  15.253   9.338  0.00  0.00     0.123 C 
HETATM   28  C   UNK N   1      32.103  16.159   8.445  0.00  0.00     0.020 C 
HETATM   29  C   UNK N   1      32.960  16.650   7.283  0.00  0.00     0.003 C 
HETATM   30  C   UNK N   1      34.185  17.442   7.763  0.00  0.00     0.020 C 
HETATM   31  C   UNK N   1      34.554  17.184   9.228  0.00  0.00     0.123 C 
ENDBRANCH  24  26
ENDBRANCH   1  19
TORSDOF 7
ENDMDL
MODEL 3
REMARK VINA RESULT:      -7.1      2.900      9.611
REMARK  7 active torsions:
REMARK  status: ('A' for Active; 'I' for Inactive)
REMARK    1  A    between atoms: N_1  and  C_7 
REMARK    2  A    between atoms: C_12  and  N_13 
REMARK       I    between atoms: N_13  and  C_14 
REMARK    3  A    between atoms: C_14  and  C_16 
REMARK    4  A    between atoms: C_20  and  O_21 
REMARK    5  A    between atoms: O_21  and  C_22 
REMARK    6  A    between atoms: C_22  and  C_23 
REMARK    7  A    between atoms: C_23  and  N_24 
ROOT
HETATM    1  N   UNK N   1      33.589  15.373   9.885  0.00  0.00    -0.323 N 
HETATM    2  C   UNK N   1      32.564  14.923   9.130  0.00  0.00     0.256 C 
HETATM    3  O   UNK N   1      32.465  13.741   8.824  0.00  0.00    -0.267 OA
HETATM    4  H   UNK N   1      33.516  16.307  10.183  0.00  0.00     0.169 HD
ENDROOT
BRANCH   2   5
HETATM    5  C   UNK N   1      31.681  15.938   8.540  0.00  0.00     0.033 A 
HETATM    6  C   UNK N   1      30.688  16.569   9.284  0.00  0.00     0.026 A 
HETATM    7  C   UNK N   1      29.755  17.403   8.659  0.00  0.00    -0.027 A 
HETATM    8  C   UNK N   1      28.692  17.991   9.522  0.00  0.00     0.051 C 
HETATM    9  C   UNK N   1      29.820  17.609   7.246  0.00  0.00     0.080 A 
HETATM   10  C   UNK N   1      30.832  16.968   6.516  0.00  0.00    -0.027 A 
HETATM   11  C   UNK N   1      30.942  17.141   5.038  0.00  0.00     0.051 C 
HETATM   12  C   UNK N   1      31.741  16.143   7.157  0.00  0.00     0.026 A 
BRANCH   9  13
HETATM   13  O   UNK N   1      28.944  18.391   6.554  0.00  0.00    -0.348 OA
BRANCH  13  14
HETATM   14  C   UNK N   1      27.728  17.991   6.056  0.00  0.00     0.194 C 
BRANCH  14  15
HETATM   15  C   UNK N   1      27.190  19.070   5.137  0.00  0.00     0.137 C 
BRANCH  15  16
HETATM   16  N   UNK N   1      28.158  19.345   4.093  0.00  0.00    -0.428 N 
HETATM   17  H   UNK N   1      29.123  19.029   4.193  0.00  0.00     0.149 HD
HETATM   18  H   UNK N   1      27.873  19.854   3.256  0.00  0.00     0.149 HD
ENDBRANCH  15  16
ENDBRANCH  14  15
ENDBRANCH  13  14
ENDBRANCH   9  13
ENDBRANCH   2   5
BRANCH   1  19
HETATM   19  C   UNK N   1      34.749  14.693  10.307  0.00  0.00     0.038 A 
HETATM   20  C   UNK N   1      35.980  14.774   9.640  0.00  0.00     0.053 A 
HETATM   21  C   UNK N   1      37.111  14.174  10.210  0.00  0.00     0.038 A 
HETATM   22  C   UNK N   1      37.017  13.520  11.450  0.00  0.00     0.053 A 
HETATM   23 Cl   UNK N   1      38.659  14.297   9.402  0.00  0.00    -0.084 Cl
HETATM   24  C   UNK N   1      35.784  13.464  12.124  0.00  0.00     0.034 A 
HETATM   25  C   UNK N   1      34.672  14.057  11.533  0.00  0.00     0.059 A 
BRANCH  24  26
HETATM   26  N   UNK N   1      35.648  12.858  13.408  0.00  0.00    -0.381 N 
HETATM   27  C   UNK N   1      34.496  12.006  13.680  0.00  0.00     0.123 C 
HETATM   28  C   UNK N   1      34.385  11.640  15.156  0.00  0.00     0.020 C 
HETATM   29  C   UNK N   1      34.601  12.892  15.999  0.00  0.00     0.003 C 
HETATM   30  C   UNK N   1      35.981  13.520  15.758  0.00  0.00     0.020 C 
HETATM   31  C   UNK N   1      36.638  13.084  14.444  0.00  0.00     0.123 C 
ENDBRANCH  24  26
ENDBRANCH   1  19
TORSDOF 7
ENDMDL
MODEL 4
REMARK VINA RESULT:      -6.8      6.075     12.533
REMARK  7 active torsions:
REMARK  status: ('A' for Active; 'I' for Inactive)
REMARK    1  A    between atoms: N_1  and  C_7 
REMARK    2  A    between atoms: C_12  and  N_13 
REMARK       I    between atoms: N_13  and  C_14 
REMARK    3  A    between atoms: C_14  and  C_16 
REMARK    4  A    between atoms: C_20  and  O_21 
REMARK    5  A    between atoms: O_21  and  C_22 
REMARK    6  A    between atoms: C_22  and  C_23 
REMARK    7  A    between atoms: C_23  and  N_24 
ROOT
HETATM    1  N   UNK N   1      33.379   8.867  18.955  0.00  0.00    -0.323 N 
HETATM    2  C   UNK N   1      34.647   9.291  18.774  0.00  0.00     0.256 C 
HETATM    3  O   UNK N   1      35.555   8.929  19.514  0.00  0.00    -0.267 OA
HETATM    4  H   UNK N   1      32.747   9.108  18.240  0.00  0.00     0.169 HD
ENDROOT
BRANCH   2   5
HETATM    5  C   UNK N   1      34.857  10.344  17.771  0.00  0.00     0.033 A 
HETATM    6  C   UNK N   1      35.196  11.644  18.132  0.00  0.00     0.026 A 
HETATM    7  C   UNK N   1      35.224  12.663  17.173  0.00  0.00    -0.027 A 
HETATM    8  C   UNK N   1      35.539  14.036  17.658  0.00  0.00     0.051 C 
HETATM    9  C   UNK N   1      34.901  12.367  15.812  0.00  0.00     0.080 A 
HETATM   10  C   UNK N   1      34.568  11.048  15.468  0.00  0.00    -0.027 A 
HETATM   11  C   UNK N   1      34.215  10.685  14.066  0.00  0.00     0.051 C 
HETATM   12  C   UNK N   1      34.543  10.058  16.437  0.00  0.00     0.026 A 
BRANCH   9  13
HETATM   13  O   UNK N   1      34.887  13.299  14.818  0.00  0.00    -0.348 OA
BRANCH  13  14
HETATM   14  C   UNK N   1      35.991  13.865  14.229  0.00  0.00     0.194 C 
BRANCH  14  15
HETATM   15  C   UNK N   1      35.845  13.784  12.722  0.00  0.00     0.137 C 
BRANCH  15  16
HETATM   16  N   UNK N   1      37.157  13.659  12.115  0.00  0.00    -0.428 N 
HETATM   17  H   UNK N   1      37.523  12.738  11.874  0.00  0.00     0.149 HD
HETATM   18  H   UNK N   1      37.712  14.493  11.927  0.00  0.00     0.149 HD
ENDBRANCH  15  16
ENDBRANCH  14  15
ENDBRANCH  13  14
ENDBRANCH   9  13
ENDBRANCH   2   5
BRANCH   1  19
HETATM   19  C   UNK N   1      32.831   8.129  20.022  0.00  0.00     0.038 A 
HETATM   20  C   UNK N   1      32.615   6.744  19.976  0.00  0.00     0.053 A 
HETATM   21  C   UNK N   1      32.195   6.074  21.133  0.00  0.00     0.038 A 
HETATM   22  C   UNK N   1      32.016   6.781  22.334  0.00  0.00     0.053 A 
HETATM   23 Cl   UNK N   1      31.955   4.341  21.094  0.00  0.00    -0.084 Cl
HETATM   24  C   UNK N   1      32.257   8.166  22.378  0.00  0.00     0.034 A 
HETATM   25  C   UNK N   1      32.663   8.811  21.214  0.00  0.00     0.059 A 
BRANCH  24  26
HETATM   26  N   UNK N   1      32.140   8.917  23.585  0.00  0.00    -0.381 N 
HETATM   27  C   UNK N   1      32.710  10.259  23.651  0.00  0.00     0.123 C 
HETATM   28  C   UNK N   1      32.706  10.817  25.070  0.00  0.00     0.020 C 
HETATM   29  C   UNK N   1      33.210   9.746  26.030  0.00  0.00     0.003 C 
HETATM   30  C   UNK N   1      32.333   8.486  26.003  0.00  0.00     0.020 C 
HETATM   31  C   UNK N   1      31.468   8.362  24.744  0.00  0.00     0.123 C 
ENDBRANCH  24  26
ENDBRANCH   1  19
TORSDOF 7
ENDMDL
MODEL 5
REMARK VINA RESULT:      -6.8      2.580      3.870
REMARK  7 active torsions:
REMARK  status: ('A' for Active; 'I' for Inactive)
REMARK    1  A    between atoms: N_1  and  C_7 
REMARK    2  A    between atoms: C_12  and  N_13 
REMARK       I    between atoms: N_13  and  C_14 
REMARK    3  A    between atoms: C_14  and  C_16 
REMARK    4  A    between atoms: C_20  and  O_21 
REMARK    5  A    between atoms: O_21  and  C_22 
REMARK    6  A    between atoms: C_22  and  C_23 
REMARK    7  A    between atoms: C_23  and  N_24 
ROOT
HETATM    1  N   UNK N   1      35.784  13.351  13.112  0.00  0.00    -0.323 N 
HETATM    2  C   UNK N   1      36.195  13.816  14.310  0.00  0.00     0.256 C 
HETATM    3  O   UNK N   1      36.744  14.907  14.419  0.00  0.00    -0.267 OA
HETATM    4  H   UNK N   1      35.244  12.529  13.141  0.00  0.00     0.169 HD
ENDROOT
BRANCH   2   5
HETATM    5  C   UNK N   1      36.124  12.883  15.443  0.00  0.00     0.033 A 
HETATM    6  C   UNK N   1      36.316  11.515  15.279  0.00  0.00     0.026 A 
HETATM    7  C   UNK N   1      36.077  10.634  16.339  0.00  0.00    -0.027 A 
HETATM    8  C   UNK N   1      36.252   9.181  16.060  0.00  0.00     0.051 C 
HETATM    9  C   UNK N   1      35.631  11.141  17.600  0.00  0.00     0.080 A 
HETATM   10  C   UNK N   1      35.449  12.524  17.744  0.00  0.00    -0.027 A 
HETATM   11  C   UNK N   1      34.977  13.108  19.033  0.00  0.00     0.051 C 
HETATM   12  C   UNK N   1      35.688  13.376  16.678  0.00  0.00     0.026 A 
BRANCH   9  13
HETATM   13  O   UNK N   1      35.358  10.355  18.679  0.00  0.00    -0.348 OA
BRANCH  13  14
HETATM   14  C   UNK N   1      34.278   9.517  18.813  0.00  0.00     0.194 C 
BRANCH  14  15
HETATM   15  C   UNK N   1      33.893   9.436  20.277  0.00  0.00     0.137 C 
BRANCH  15  16
HETATM   16  N   UNK N   1      34.705   8.431  20.937  0.00  0.00    -0.428 N 
HETATM   17  H   UNK N   1      35.187   7.720  20.387  0.00  0.00     0.149 HD
HETATM   18  H   UNK N   1      34.796   8.437  21.953  0.00  0.00     0.149 HD
ENDBRANCH  15  16
ENDBRANCH  14  15
ENDBRANCH  13  14
ENDBRANCH   9  13
ENDBRANCH   2   5
BRANCH   1  19
HETATM   19  C   UNK N   1      36.017  13.875  11.825  0.00  0.00     0.038 A 
HETATM   20  C   UNK N   1      37.119  13.522  11.033  0.00  0.00     0.053 A 
HETATM   21  C   UNK N   1      37.196  13.988   9.714  0.00  0.00     0.038 A 
HETATM   22  C   UNK N   1      36.165  14.782   9.183  0.00  0.00     0.053 A 
HETATM   23 Cl   UNK N   1      38.550  13.526   8.706  0.00  0.00    -0.084 Cl
HETATM   24  C   UNK N   1      35.051  15.112   9.976  0.00  0.00     0.034 A 
HETATM   25  C   UNK N   1      35.003  14.646  11.286  0.00  0.00     0.059 A 
BRANCH  24  26
HETATM   26  N   UNK N   1      33.956  15.870   9.467  0.00  0.00    -0.381 N 
HETATM   27  C   UNK N   1      32.654  15.230   9.308  0.00  0.00     0.123 C 
HETATM   28  C   UNK N   1      31.672  16.105   8.537  0.00  0.00     0.020 C 
HETATM   29  C   UNK N   1      32.372  16.682   7.312  0.00  0.00     0.003 C 
HETATM   30  C   UNK N   1      33.588  17.539   7.692  0.00  0.00     0.020 C 
HETATM   31  C   UNK N   1      34.122  17.264   9.102  0.00  0.00     0.123 C 
ENDBRANCH  24  26
ENDBRANCH   1  19
TORSDOF 7
ENDMDL
MODEL 6
REMARK VINA RESULT:      -6.7      8.422     13.798
REMARK  7 active torsions:
REMARK  status: ('A' for Active; 'I' for Inactive)
REMARK    1  A    between atoms: N_1  and  C_7 
REMARK    2  A    between atoms: C_12  and  N_13 
REMARK       I    between atoms: N_13  and  C_14 
REMARK    3  A    between atoms: C_14  and  C_16 
REMARK    4  A    between atoms: C_20  and  O_21 
REMARK    5  A    between atoms: O_21  and  C_22 
REMARK    6  A    between atoms: C_22  and  C_23 
REMARK    7  A    between atoms: C_23  and  N_24 
ROOT
HETATM    1  N   UNK N   1      26.867  17.816   5.065  0.00  0.00    -0.323 N 
HETATM    2  C   UNK N   1      26.206  18.904   4.617  0.00  0.00     0.256 C 
HETATM    3  O   UNK N   1      26.672  20.031   4.738  0.00  0.00    -0.267 OA
HETATM    4  H   UNK N   1      26.475  16.950   4.812  0.00  0.00     0.169 HD
ENDROOT
BRANCH   2   5
HETATM    5  C   UNK N   1      24.829  18.696   4.149  0.00  0.00     0.033 A 
HETATM    6  C   UNK N   1      24.079  19.729   3.594  0.00  0.00     0.026 A 
HETATM    7  C   UNK N   1      22.720  19.548   3.314  0.00  0.00    -0.027 A 
HETATM    8  C   UNK N   1      21.980  20.723   2.776  0.00  0.00     0.051 C 
HETATM    9  C   UNK N   1      22.096  18.294   3.602  0.00  0.00     0.080 A 
HETATM   10  C   UNK N   1      22.871  17.265   4.156  0.00  0.00    -0.027 A 
HETATM   11  C   UNK N   1      22.270  15.939   4.483  0.00  0.00     0.051 C 
HETATM   12  C   UNK N   1      24.214  17.470   4.429  0.00  0.00     0.026 A 
BRANCH   9  13
HETATM   13  O   UNK N   1      20.776  18.036   3.377  0.00  0.00    -0.348 OA
BRANCH  13  14
HETATM   14  C   UNK N   1      20.122  18.171   2.178  0.00  0.00     0.194 C 
BRANCH  14  15
HETATM   15  C   UNK N   1      20.082  16.826   1.480  0.00  0.00     0.137 C 
BRANCH  15  16
HETATM   16  N   UNK N   1      19.146  16.881   0.374  0.00  0.00    -0.428 N 
HETATM   17  H   UNK N   1      19.209  16.203  -0.386  0.00  0.00     0.149 HD
HETATM   18  H   UNK N   1      18.421  17.599   0.356  0.00  0.00     0.149 HD
ENDBRANCH  15  16
ENDBRANCH  14  15
ENDBRANCH  13  14
ENDBRANCH   9  13
ENDBRANCH   2   5
BRANCH   1  19
HETATM   19  C   UNK N   1      28.039  17.745   5.845  0.00  0.00     0.038 A 
HETATM   20  C   UNK N   1      28.034  17.639   7.243  0.00  0.00     0.053 A 
HETATM   21  C   UNK N   1      29.243  17.436   7.922  0.00  0.00     0.038 A 
HETATM   22  C   UNK N   1      30.445  17.313   7.205  0.00  0.00     0.053 A 
HETATM   23 Cl   UNK N   1      29.243  17.270   9.664  0.00  0.00    -0.084 Cl
HETATM   24  C   UNK N   1      30.438  17.396   5.800  0.00  0.00     0.034 A 
HETATM   25  C   UNK N   1      29.227  17.610   5.150  0.00  0.00     0.059 A 
BRANCH  24  26
HETATM   26  N   UNK N   1      31.624  17.226   5.025  0.00  0.00    -0.381 N 
HETATM   27  C   UNK N   1      31.512  16.872   3.614  0.00  0.00     0.123 C 
HETATM   28  C   UNK N   1      32.859  16.498   3.006  0.00  0.00     0.020 C 
HETATM   29  C   UNK N   1      33.592  15.557   3.954  0.00  0.00     0.003 C 
HETATM   30  C   UNK N   1      33.842  16.198   5.326  0.00  0.00     0.020 C 
HETATM   31  C   UNK N   1      32.934  17.395   5.624  0.00  0.00     0.123 C 
ENDBRANCH  24  26
ENDBRANCH   1  19
TORSDOF 7
ENDMDL
MODEL 7
REMARK VINA RESULT:      -6.6      3.114      9.280
REMARK  7 active torsions:
REMARK  status: ('A' for Active; 'I' for Inactive)
REMARK    1  A    between atoms: N_1  and  C_7 
REMARK    2  A    between atoms: C_12  and  N_13 
REMARK       I    between atoms: N_13  and  C_14 
REMARK    3  A    between atoms: C_14  and  C_16 
REMARK    4  A    between atoms: C_20  and  O_21 
REMARK    5  A    between atoms: O_21  and  C_22 
REMARK    6  A    between atoms: C_22  and  C_23 
REMARK    7  A    between atoms: C_23  and  N_24 
ROOT
HETATM    1  N   UNK N   1      34.999  15.128   8.728  0.00  0.00    -0.323 N 
HETATM    2  C   UNK N   1      34.647  16.421   8.885  0.00  0.00     0.256 C 
HETATM    3  O   UNK N   1      35.200  17.139   9.710  0.00  0.00    -0.267 OA
HETATM    4  H   UNK N   1      34.590  14.669   7.959  0.00  0.00     0.169 HD
ENDROOT
BRANCH   2   5
HETATM    5  C   UNK N   1      33.454  16.876   8.158  0.00  0.00     0.033 A 
HETATM    6  C   UNK N   1      32.224  17.028   8.790  0.00  0.00     0.026 A 
HETATM    7  C   UNK N   1      31.072  17.298   8.044  0.00  0.00    -0.027 A 
HETATM    8  C   UNK N   1      29.788  17.388   8.795  0.00  0.00     0.051 C 
HETATM    9  C   UNK N   1      31.157  17.417   6.622  0.00  0.00     0.080 A 
HETATM   10  C   UNK N   1      32.408  17.266   6.005  0.00  0.00    -0.027 A 
HETATM   11  C   UNK N   1      32.554  17.372   4.525  0.00  0.00     0.051 C 
HETATM   12  C   UNK N   1      33.534  16.994   6.766  0.00  0.00     0.026 A 
BRANCH   9  13
HETATM   13  O   UNK N   1      30.085  17.662   5.816  0.00  0.00    -0.348 OA
BRANCH  13  14
HETATM   14  C   UNK N   1      29.100  16.763   5.492  0.00  0.00     0.194 C 
BRANCH  14  15
HETATM   15  C   UNK N   1      27.757  17.467   5.518  0.00  0.00     0.137 C 
BRANCH  15  16
HETATM   16  N   UNK N   1      26.971  16.969   6.630  0.00  0.00    -0.428 N 
HETATM   17  H   UNK N   1      26.747  17.583   7.414  0.00  0.00     0.149 HD
HETATM   18  H   UNK N   1      26.639  16.005   6.628  0.00  0.00     0.149 HD
ENDBRANCH  15  16
ENDBRANCH  14  15
ENDBRANCH  13  14
ENDBRANCH   9  13
ENDBRANCH   2   5
BRANCH   1  19
HETATM   19  C   UNK N   1      35.869  14.341   9.508  0.00  0.00     0.038 A 
HETATM   20  C   UNK N   1      37.141  13.936   9.079  0.00  0.00     0.053 A 
HETATM   21  C   UNK N   1      37.990  13.272   9.975  0.00  0.00     0.038 A 
HETATM   22  C   UNK N   1      37.578  13.037  11.298  0.00  0.00     0.053 A 
HETATM   23 Cl   UNK N   1      39.593  12.792   9.461  0.00  0.00    -0.084 Cl
HETATM   24  C   UNK N   1      36.310  13.467  11.727  0.00  0.00     0.034 A 
HETATM   25  C   UNK N   1      35.481  14.115  10.816  0.00  0.00     0.059 A 
BRANCH  24  26
HETATM   26  N   UNK N   1      35.867  13.299  13.073  0.00  0.00    -0.381 N 
HETATM   27  C   UNK N   1      36.481  14.091  14.133  0.00  0.00     0.123 C 
HETATM   28  C   UNK N   1      36.063  13.619  15.521  0.00  0.00     0.020 C 
HETATM   29  C   UNK N   1      36.154  12.098  15.580  0.00  0.00     0.003 C 
HETATM   30  C   UNK N   1      35.243  11.424  14.544  0.00  0.00     0.020 C 
HETATM   31  C   UNK N   1      34.821  12.348  13.397  0.00  0.00     0.123 C 
ENDBRANCH  24  26
ENDBRANCH   1  19
TORSDOF 7
ENDMDL
MODEL 8
REMARK VINA RESULT:      -6.5      6.578     12.833
REMARK  7 active torsions:
REMARK  status: ('A' for Active; 'I' for Inactive)
REMARK    1  A    between atoms: N_1  and  C_7 
REMARK    2  A    between atoms: C_12  and  N_13 
REMARK       I    between atoms: N_13  and  C_14 
REMARK    3  A    between atoms: C_14  and  C_16 
REMARK    4  A    between atoms: C_20  and  O_21 
REMARK    5  A    between atoms: O_21  and  C_22 
REMARK    6  A    between atoms: C_22  and  C_23 
REMARK    7  A    between atoms: C_23  and  N_24 
ROOT
HETATM    1  N   UNK N   1      33.461   9.472  19.762  0.00  0.00    -0.323 N 
HETATM    2  C   UNK N   1      34.708   9.570  19.255  0.00  0.00     0.256 C 
HETATM    3  O   UNK N   1      35.664   9.026  19.797  0.00  0.00    -0.267 OA
HETATM    4  H   UNK N   1      32.744   9.833  19.194  0.00  0.00     0.169 HD
ENDROOT
BRANCH   2   5
HETATM    5  C   UNK N   1      34.897  10.506  18.138  0.00  0.00     0.033 A 
HETATM    6  C   UNK N   1      35.218  11.844  18.348  0.00  0.00     0.026 A 
HETATM    7  C   UNK N   1      35.226  12.747  17.280  0.00  0.00    -0.027 A 
HETATM    8  C   UNK N   1      35.524  14.170  17.604  0.00  0.00     0.051 C 
HETATM    9  C   UNK N   1      34.899  12.295  15.964  0.00  0.00     0.080 A 
HETATM   10  C   UNK N   1      34.583  10.941  15.774  0.00  0.00    -0.027 A 
HETATM   11  C   UNK N   1      34.227  10.417  14.423  0.00  0.00     0.051 C 
HETATM   12  C   UNK N   1      34.578  10.067  16.848  0.00  0.00     0.026 A 
BRANCH   9  13
HETATM   13  O   UNK N   1      34.866  13.108  14.870  0.00  0.00    -0.348 OA
BRANCH  13  14
HETATM   14  C   UNK N   1      35.953  13.685  14.262  0.00  0.00     0.194 C 
BRANCH  14  15
HETATM   15  C   UNK N   1      35.896  13.404  12.773  0.00  0.00     0.137 C 
BRANCH  15  16
HETATM   16  N   UNK N   1      37.223  13.537  12.203  0.00  0.00    -0.428 N 
HETATM   17  H   UNK N   1      37.563  14.452  11.905  0.00  0.00     0.149 HD
HETATM   18  H   UNK N   1      37.818  12.715  12.102  0.00  0.00     0.149 HD
ENDBRANCH  15  16
ENDBRANCH  14  15
ENDBRANCH  13  14
ENDBRANCH   9  13
ENDBRANCH   2   5
BRANCH   1  19
HETATM   19  C   UNK N   1      33.040   8.924  20.991  0.00  0.00     0.038 A 
HETATM   20  C   UNK N   1      32.899   9.676  22.166  0.00  0.00     0.053 A 
HETATM   21  C   UNK N   1      32.344   9.076  23.304  0.00  0.00     0.038 A 
HETATM   22  C   UNK N   1      31.910   7.741  23.259  0.00  0.00     0.053 A 
HETATM   23 Cl   UNK N   1      32.133  10.016  24.766  0.00  0.00    -0.084 Cl
HETATM   24  C   UNK N   1      32.033   7.000  22.070  0.00  0.00     0.034 A 
HETATM   25  C   UNK N   1      32.597   7.614  20.956  0.00  0.00     0.059 A 
BRANCH  24  26
HETATM   26  N   UNK N   1      31.559   5.659  21.959  0.00  0.00    -0.381 N 
HETATM   27  C   UNK N   1      31.314   5.093  20.637  0.00  0.00     0.123 C 
HETATM   28  C   UNK N   1      30.593   3.752  20.709  0.00  0.00     0.020 C 
HETATM   29  C   UNK N   1      29.438   3.858  21.699  0.00  0.00     0.003 C 
HETATM   30  C   UNK N   1      29.919   4.226  23.110  0.00  0.00     0.020 C 
HETATM   31  C   UNK N   1      31.315   4.858  23.143  0.00  0.00     0.123 C 
ENDBRANCH  24  26
ENDBRANCH   1  19
TORSDOF 7
ENDMDL
MODEL 9
REMARK VINA RESULT:      -6.5      6.418     10.366
REMARK  7 active torsions:
REMARK  status: ('A' for Active; 'I' for Inactive)
REMARK    1  A    between atoms: N_1  and  C_7 
REMARK    2  A    between atoms: C_12  and  N_13 
REMARK       I    between atoms: N_13  and  C_14 
REMARK    3  A    between atoms: C_14  and  C_16 
REMARK    4  A    between atoms: C_20  and  O_21 
REMARK    5  A    between atoms: O_21  and  C_22 
REMARK    6  A    between atoms: C_22  and  C_23 
REMARK    7  A    between atoms: C_23  and  N_24 
ROOT
HETATM    1  N   UNK N   1      25.659  16.332   6.328  0.00  0.00    -0.323 N 
HETATM    2  C   UNK N   1      26.739  16.439   5.527  0.00  0.00     0.256 C 
HETATM    3  O   UNK N   1      26.672  16.202   4.326  0.00  0.00    -0.267 OA
HETATM    4  H   UNK N   1      25.780  16.662   7.247  0.00  0.00     0.169 HD
ENDROOT
BRANCH   2   5
HETATM    5  C   UNK N   1      28.033  16.670   6.185  0.00  0.00     0.033 A 
HETATM    6  C   UNK N   1      29.197  16.040   5.756  0.00  0.00     0.026 A 
HETATM    7  C   UNK N   1      30.376  16.145   6.501  0.00  0.00    -0.027 A 
HETATM    8  C   UNK N   1      31.560  15.393   5.999  0.00  0.00     0.051 C 
HETATM    9  C   UNK N   1      30.386  16.902   7.714  0.00  0.00     0.080 A 
HETATM   10  C   UNK N   1      29.202  17.532   8.127  0.00  0.00    -0.027 A 
HETATM   11  C   UNK N   1      29.154  18.328   9.387  0.00  0.00     0.051 C 
HETATM   12  C   UNK N   1      28.046  17.410   7.373  0.00  0.00     0.026 A 
BRANCH   9  13
HETATM   13  O   UNK N   1      31.484  17.043   8.510  0.00  0.00    -0.348 OA
BRANCH  13  14
HETATM   14  C   UNK N   1      32.510  17.935   8.316  0.00  0.00     0.194 C 
BRANCH  14  15
HETATM   15  C   UNK N   1      33.832  17.201   8.429  0.00  0.00     0.137 C 
BRANCH  15  16
HETATM   16  N   UNK N   1      34.261  17.187   9.815  0.00  0.00    -0.428 N 
HETATM   17  H   UNK N   1      33.571  17.226  10.565  0.00  0.00     0.149 HD
HETATM   18  H   UNK N   1      35.255  17.137  10.039  0.00  0.00     0.149 HD
ENDBRANCH  15  16
ENDBRANCH  14  15
ENDBRANCH  13  14
ENDBRANCH   9  13
ENDBRANCH   2   5
BRANCH   1  19
HETATM   19  C   UNK N   1      24.382  15.814   6.036  0.00  0.00     0.038 A 
HETATM   20  C   UNK N   1      23.934  14.562   6.481  0.00  0.00     0.053 A 
HETATM   21  C   UNK N   1      22.601  14.189   6.257  0.00  0.00     0.038 A 
HETATM   22  C   UNK N   1      21.717  15.073   5.616  0.00  0.00     0.053 A 
HETATM   23 Cl   UNK N   1      22.023  12.642   6.838  0.00  0.00    -0.084 Cl
HETATM   24  C   UNK N   1      22.168  16.337   5.194  0.00  0.00     0.034 A 
HETATM   25  C   UNK N   1      23.498  16.680   5.417  0.00  0.00     0.059 A 
BRANCH  24  26
HETATM   26  N   UNK N   1      21.297  17.289   4.587  0.00  0.00    -0.381 N 
HETATM   27  C   UNK N   1      20.231  16.824   3.706  0.00  0.00     0.123 C 
HETATM   28  C   UNK N   1      19.555  17.972   2.963  0.00  0.00     0.020 C 
HETATM   29  C   UNK N   1      20.625  18.907   2.409  0.00  0.00     0.003 C 
HETATM   30  C   UNK N   1      21.505  19.499   3.519  0.00  0.00     0.020 C 
HETATM   31  C   UNK N   1      21.462  18.709   4.831  0.00  0.00     0.123 C 
ENDBRANCH  24  26
ENDBRANCH   1  19
TORSDOF 7
ENDMDL
