MODEL 1
REMARK VINA RESULT:      -7.5      0.000      0.000
REMARK  4 active torsions:
REMARK  status: ('A' for Active; 'I' for Inactive)
REMARK    1  A    between atoms: C_3  and  N_15 
REMARK    2  A    between atoms: C_4  and  C_24 
REMARK    3  A    between atoms: C_5  and  C_14 
REMARK    4  A    between atoms: C_17  and  O_29 
ROOT
HETATM    1  N   UNK N   1      30.023  15.251   3.162  0.00  0.00    -0.343 N 
ATOM      2  HN  UNK N   1      30.134  14.321   2.758  1.00  0.00     0.167 HD
HETATM    3  C   UNK N   1      31.135  15.692   3.622  0.00  0.00     0.108 C 
HETATM    4  C   UNK N   1      31.330  17.066   4.263  0.00  0.00     0.190 C 
HETATM    5  C   UNK N   1      28.905  17.891   4.445  0.00  0.00     0.051 C 
HETATM    6  N   UNK N   1      30.184  17.878   4.601  0.00  0.00    -0.373 N 
ATOM      7  HN  UNK N   1      30.480  18.699   5.128  1.00  0.00     0.161 HD
HETATM    8  C   UNK N   1      28.146  16.878   3.626  0.00  0.00     0.018 A 
HETATM    9  C   UNK N   1      28.688  15.694   3.061  0.00  0.00     0.046 A 
HETATM   10  C   UNK N   1      27.853  14.838   2.325  0.00  0.00     0.030 A 
HETATM   11  C   UNK N   1      26.508  15.109   2.129  0.00  0.00     0.002 A 
HETATM   12  C   UNK N   1      25.962  16.255   2.677  0.00  0.00     0.001 A 
HETATM   13  C   UNK N   1      26.771  17.114   3.411  0.00  0.00     0.016 A 
ENDROOT
BRANCH   3  14
HETATM   14  N   UNK N   1      32.282  14.870   3.357  0.00  0.00    -0.364 N 
HETATM   15  C   UNK N   1      32.744  13.866   4.245  0.00  0.00     0.157 A 
HETATM   16  C   UNK N   1      34.177  14.223   3.777  0.00  0.00     0.154 A 
HETATM   17  C   UNK N   1      33.525  15.244   2.801  0.00  0.00     0.157 A 
BRANCH  16  18
HETATM   18  O   UNK N   1      34.717  13.155   3.064  0.00  0.00    -0.392 OA
HETATM   19  H   UNK N   1      35.095  13.141   2.171  0.00  0.00     0.210 HD
ENDBRANCH  16  18
ENDBRANCH   3  14
BRANCH   4  20
HETATM   20  C   UNK N   1      32.141  17.080   5.538  0.00  0.00     0.012 A 
HETATM   21  S   UNK N   1      31.663  16.807   7.102  0.00  0.00    -0.104 SA
HETATM   22  C   UNK N   1      33.083  17.134   7.902  0.00  0.00     0.050 A 
HETATM   23  C   UNK N   1      34.005  17.509   6.917  0.00  0.00     0.008 A 
HETATM   24  C   UNK N   1      33.477  17.494   5.596  0.00  0.00     0.017 A 
ENDBRANCH   4  20
BRANCH   5  25
HETATM   25  C   UNK N   1      28.198  19.008   5.187  0.00  0.00    -0.009 A 
HETATM   26  C   UNK N   1      28.055  18.905   6.585  0.00  0.00     0.014 A 
HETATM   27  C   UNK N   1      27.364  19.876   7.315  0.00  0.00     0.001 A 
HETATM   28  C   UNK N   1      26.811  20.977   6.662  0.00  0.00     0.000 A 
HETATM   29  C   UNK N   1      26.948  21.105   5.280  0.00  0.00     0.001 A 
HETATM   30  C   UNK N   1      27.626  20.125   4.551  0.00  0.00     0.014 A 
ENDBRANCH   5  25
TORSDOF 4
ENDMDL
MODEL 2
REMARK VINA RESULT:      -7.1      8.183     11.948
REMARK  4 active torsions:
REMARK  status: ('A' for Active; 'I' for Inactive)
REMARK    1  A    between atoms: C_3  and  N_15 
REMARK    2  A    between atoms: C_4  and  C_24 
REMARK    3  A    between atoms: C_5  and  C_14 
REMARK    4  A    between atoms: C_17  and  O_29 
ROOT
HETATM    1  N   UNK N   1      36.490  11.112  11.455  0.00  0.00    -0.343 N 
ATOM      2  HN  UNK N   1      36.845  10.498  10.722  1.00  0.00     0.167 HD
HETATM    3  C   UNK N   1      35.667  11.971  10.980  0.00  0.00     0.108 C 
HETATM    4  C   UNK N   1      34.925  13.019  11.811  0.00  0.00     0.190 C 
HETATM    5  C   UNK N   1      36.065  12.758  14.097  0.00  0.00     0.051 C 
HETATM    6  N   UNK N   1      35.297  13.251  13.187  0.00  0.00    -0.373 N 
ATOM      7  HN  UNK N   1      34.794  14.059  13.554  1.00  0.00     0.161 HD
HETATM    8  C   UNK N   1      36.876  11.499  13.922  0.00  0.00     0.018 A 
HETATM    9  C   UNK N   1      37.043  10.781  12.709  0.00  0.00     0.046 A 
HETATM   10  C   UNK N   1      37.838   9.623  12.699  0.00  0.00     0.030 A 
HETATM   11  C   UNK N   1      38.469   9.151  13.840  0.00  0.00     0.002 A 
HETATM   12  C   UNK N   1      38.320   9.840  15.029  0.00  0.00     0.001 A 
HETATM   13  C   UNK N   1      37.540  10.990  15.060  0.00  0.00     0.016 A 
ENDROOT
BRANCH   3  14
HETATM   14  N   UNK N   1      35.329  11.803   9.596  0.00  0.00    -0.364 N 
HETATM   15  C   UNK N   1      34.668  10.657   9.088  0.00  0.00     0.157 A 
HETATM   16  C   UNK N   1      35.505  10.842   7.797  0.00  0.00     0.154 A 
HETATM   17  C   UNK N   1      36.100  12.120   8.455  0.00  0.00     0.157 A 
BRANCH  16  18
HETATM   18  O   UNK N   1      34.666  11.193   6.742  0.00  0.00    -0.392 OA
HETATM   19  H   UNK N   1      33.713  11.376   6.749  0.00  0.00     0.210 HD
ENDBRANCH  16  18
ENDBRANCH   3  14
BRANCH   4  20
HETATM   20  C   UNK N   1      34.901  14.414  11.228  0.00  0.00     0.012 A 
HETATM   21  S   UNK N   1      33.925  15.054  10.051  0.00  0.00    -0.104 SA
HETATM   22  C   UNK N   1      34.608  16.561   9.896  0.00  0.00     0.050 A 
HETATM   23  C   UNK N   1      35.686  16.593  10.788  0.00  0.00     0.008 A 
HETATM   24  C   UNK N   1      35.862  15.388  11.523  0.00  0.00     0.017 A 
ENDBRANCH   4  20
BRANCH   5  25
HETATM   25  C   UNK N   1      36.120  13.571  15.374  0.00  0.00    -0.009 A 
HETATM   26  C   UNK N   1      37.036  14.639  15.457  0.00  0.00     0.014 A 
HETATM   27  C   UNK N   1      37.170  15.388  16.629  0.00  0.00     0.001 A 
HETATM   28  C   UNK N   1      36.382  15.091  17.740  0.00  0.00     0.000 A 
HETATM   29  C   UNK N   1      35.462  14.045  17.679  0.00  0.00     0.001 A 
HETATM   30  C   UNK N   1      35.340  13.288  16.511  0.00  0.00     0.014 A 
ENDBRANCH   5  25
TORSDOF 4
ENDMDL
MODEL 3
REMARK VINA RESULT:      -7.1      8.494     11.377
REMARK  4 active torsions:
REMARK  status: ('A' for Active; 'I' for Inactive)
REMARK    1  A    between atoms: C_3  and  N_15 
REMARK    2  A    between atoms: C_4  and  C_24 
REMARK    3  A    between atoms: C_5  and  C_14 
REMARK    4  A    between atoms: C_17  and  O_29 
ROOT
HETATM    1  N   UNK N   1      20.617  14.800   9.092  0.00  0.00    -0.343 N 
ATOM      2  HN  UNK N   1      19.832  14.653   9.726  1.00  0.00     0.167 HD
HETATM    3  C   UNK N   1      20.421  15.822   8.343  0.00  0.00     0.108 C 
HETATM    4  C   UNK N   1      21.414  16.344   7.304  0.00  0.00     0.190 C 
HETATM    5  C   UNK N   1      23.175  14.474   7.298  0.00  0.00     0.051 C 
HETATM    6  N   UNK N   1      22.566  15.553   6.940  0.00  0.00    -0.373 N 
ATOM      7  HN  UNK N   1      23.052  15.983   6.153  1.00  0.00     0.161 HD
HETATM    8  C   UNK N   1      22.782  13.644   8.493  0.00  0.00     0.018 A 
HETATM    9  C   UNK N   1      21.616  13.823   9.282  0.00  0.00     0.046 A 
HETATM   10  C   UNK N   1      21.379  12.962  10.365  0.00  0.00     0.030 A 
HETATM   11  C   UNK N   1      22.250  11.936  10.696  0.00  0.00     0.002 A 
HETATM   12  C   UNK N   1      23.389  11.744   9.937  0.00  0.00     0.001 A 
HETATM   13  C   UNK N   1      23.640  12.584   8.858  0.00  0.00     0.016 A 
ENDROOT
BRANCH   3  14
HETATM   14  N   UNK N   1      19.245  16.589   8.641  0.00  0.00    -0.364 N 
HETATM   15  C   UNK N   1      19.282  17.947   9.047  0.00  0.00     0.157 A 
HETATM   16  C   UNK N   1      18.049  17.634   9.931  0.00  0.00     0.154 A 
HETATM   17  C   UNK N   1      18.089  16.192   9.349  0.00  0.00     0.157 A 
BRANCH  16  18
HETATM   18  O   UNK N   1      16.938  18.318   9.442  0.00  0.00    -0.392 OA
HETATM   19  H   UNK N   1      16.606  18.381   8.533  0.00  0.00     0.210 HD
ENDBRANCH  16  18
ENDBRANCH   3  14
BRANCH   4  20
HETATM   20  C   UNK N   1      20.820  16.710   5.963  0.00  0.00     0.012 A 
HETATM   21  S   UNK N   1      19.708  15.899   5.039  0.00  0.00    -0.104 SA
HETATM   22  C   UNK N   1      19.689  16.868   3.689  0.00  0.00     0.050 A 
HETATM   23  C   UNK N   1      20.618  17.888   3.930  0.00  0.00     0.008 A 
HETATM   24  C   UNK N   1      21.262  17.793   5.195  0.00  0.00     0.017 A 
ENDBRANCH   4  20
BRANCH   5  25
HETATM   25  C   UNK N   1      24.322  14.076   6.391  0.00  0.00    -0.009 A 
HETATM   26  C   UNK N   1      25.587  14.657   6.608  0.00  0.00     0.014 A 
HETATM   27  C   UNK N   1      26.668  14.370   5.770  0.00  0.00     0.001 A 
HETATM   28  C   UNK N   1      26.508  13.488   4.702  0.00  0.00     0.000 A 
HETATM   29  C   UNK N   1      25.267  12.894   4.473  0.00  0.00     0.001 A 
HETATM   30  C   UNK N   1      24.185  13.193   5.303  0.00  0.00     0.014 A 
ENDBRANCH   5  25
TORSDOF 4
ENDMDL
MODEL 4
REMARK VINA RESULT:      -7.0      9.259     13.450
REMARK  4 active torsions:
REMARK  status: ('A' for Active; 'I' for Inactive)
REMARK    1  A    between atoms: C_3  and  N_15 
REMARK    2  A    between atoms: C_4  and  C_24 
REMARK    3  A    between atoms: C_5  and  C_14 
REMARK    4  A    between atoms: C_17  and  O_29 
ROOT
HETATM    1  N   UNK N   1      35.428  13.665  13.797  0.00  0.00    -0.343 N 
ATOM      2  HN  UNK N   1      34.691  14.350  13.966  1.00  0.00     0.167 HD
HETATM    3  C   UNK N   1      35.920  13.795  12.621  0.00  0.00     0.108 C 
HETATM    4  C   UNK N   1      37.063  12.952  12.056  0.00  0.00     0.190 C 
HETATM    5  C   UNK N   1      37.329  11.165  13.882  0.00  0.00     0.051 C 
HETATM    6  N   UNK N   1      37.513  11.774  12.761  0.00  0.00    -0.373 N 
ATOM      7  HN  UNK N   1      38.189  11.263  12.193  1.00  0.00     0.161 HD
HETATM    8  C   UNK N   1      36.469  11.701  14.999  0.00  0.00     0.018 A 
HETATM    9  C   UNK N   1      35.622  12.837  14.922  0.00  0.00     0.046 A 
HETATM   10  C   UNK N   1      34.871  13.213  16.048  0.00  0.00     0.030 A 
HETATM   11  C   UNK N   1      34.929  12.509  17.241  0.00  0.00     0.002 A 
HETATM   12  C   UNK N   1      35.745  11.397  17.332  0.00  0.00     0.001 A 
HETATM   13  C   UNK N   1      36.494  11.007  16.228  0.00  0.00     0.016 A 
ENDROOT
BRANCH   3  14
HETATM   14  N   UNK N   1      35.440  14.922  11.873  0.00  0.00    -0.364 N 
HETATM   15  C   UNK N   1      34.307  14.868  11.023  0.00  0.00     0.157 A 
HETATM   16  C   UNK N   1      35.041  15.882  10.110  0.00  0.00     0.154 A 
HETATM   17  C   UNK N   1      36.184  15.892  11.165  0.00  0.00     0.157 A 
BRANCH  16  18
HETATM   18  O   UNK N   1      34.364  17.100  10.125  0.00  0.00    -0.392 OA
HETATM   19  H   UNK N   1      34.650  17.958  10.478  0.00  0.00     0.210 HD
ENDBRANCH  16  18
ENDBRANCH   3  14
BRANCH   4  20
HETATM   20  C   UNK N   1      36.863  12.445  10.646  0.00  0.00     0.012 A 
HETATM   21  S   UNK N   1      37.530  12.976   9.224  0.00  0.00    -0.104 SA
HETATM   22  C   UNK N   1      36.718  12.010   8.143  0.00  0.00     0.050 A 
HETATM   23  C   UNK N   1      35.842  11.227   8.905  0.00  0.00     0.008 A 
HETATM   24  C   UNK N   1      35.910  11.479  10.303  0.00  0.00     0.017 A 
ENDBRANCH   4  20
BRANCH   5  25
HETATM   25  C   UNK N   1      38.032   9.827  13.988  0.00  0.00    -0.009 A 
HETATM   26  C   UNK N   1      37.405   8.690  13.439  0.00  0.00     0.014 A 
HETATM   27  C   UNK N   1      37.979   7.421  13.555  0.00  0.00     0.001 A 
HETATM   28  C   UNK N   1      39.198   7.265  14.214  0.00  0.00     0.000 A 
HETATM   29  C   UNK N   1      39.841   8.377  14.757  0.00  0.00     0.001 A 
HETATM   30  C   UNK N   1      39.258   9.642  14.652  0.00  0.00     0.014 A 
ENDBRANCH   5  25
TORSDOF 4
ENDMDL
MODEL 5
REMARK VINA RESULT:      -6.9      3.424      5.887
REMARK  4 active torsions:
REMARK  status: ('A' for Active; 'I' for Inactive)
REMARK    1  A    between atoms: C_3  and  N_15 
REMARK    2  A    between atoms: C_4  and  C_24 
REMARK    3  A    between atoms: C_5  and  C_14 
REMARK    4  A    between atoms: C_17  and  O_29 
ROOT
HETATM    1  N   UNK N   1      32.030  16.873   9.047  0.00  0.00    -0.343 N 
ATOM      2  HN  UNK N   1      32.334  17.466   9.819  1.00  0.00     0.167 HD
HETATM    3  C   UNK N   1      32.852  15.911   8.850  0.00  0.00     0.108 C 
HETATM    4  C   UNK N   1      32.680  14.820   7.792  0.00  0.00     0.190 C 
HETATM    5  C   UNK N   1      30.667  15.707   6.468  0.00  0.00     0.051 C 
HETATM    6  N   UNK N   1      31.662  14.949   6.776  0.00  0.00    -0.373 N 
ATOM      7  HN  UNK N   1      31.763  14.206   6.084  1.00  0.00     0.161 HD
HETATM    8  C   UNK N   1      30.176  16.842   7.330  0.00  0.00     0.018 A 
HETATM    9  C   UNK N   1      30.821  17.341   8.492  0.00  0.00     0.046 A 
HETATM   10  C   UNK N   1      30.245  18.414   9.191  0.00  0.00     0.030 A 
HETATM   11  C   UNK N   1      29.060  19.008   8.785  0.00  0.00     0.002 A 
HETATM   12  C   UNK N   1      28.420  18.538   7.653  0.00  0.00     0.001 A 
HETATM   13  C   UNK N   1      28.976  17.479   6.946  0.00  0.00     0.016 A 
ENDROOT
BRANCH   3  14
HETATM   14  N   UNK N   1      33.913  15.800   9.810  0.00  0.00    -0.364 N 
HETATM   15  C   UNK N   1      35.083  16.599   9.775  0.00  0.00     0.157 A 
HETATM   16  C   UNK N   1      35.847  15.368  10.324  0.00  0.00     0.154 A 
HETATM   17  C   UNK N   1      34.477  14.632  10.370  0.00  0.00     0.157 A 
BRANCH  16  18
HETATM   18  O   UNK N   1      36.293  15.632  11.617  0.00  0.00    -0.392 OA
HETATM   19  H   UNK N   1      36.516  16.482  12.029  0.00  0.00     0.210 HD
ENDBRANCH  16  18
ENDBRANCH   3  14
BRANCH   4  20
HETATM   20  C   UNK N   1      33.918  14.490   6.990  0.00  0.00     0.012 A 
HETATM   21  S   UNK N   1      34.779  13.076   6.903  0.00  0.00    -0.104 SA
HETATM   22  C   UNK N   1      36.041  13.563   5.937  0.00  0.00     0.050 A 
HETATM   23  C   UNK N   1      35.821  14.919   5.666  0.00  0.00     0.008 A 
HETATM   24  C   UNK N   1      34.643  15.444   6.266  0.00  0.00     0.017 A 
ENDBRANCH   4  20
BRANCH   5  25
HETATM   25  C   UNK N   1      30.029  15.387   5.131  0.00  0.00    -0.009 A 
HETATM   26  C   UNK N   1      30.372  16.173   4.013  0.00  0.00     0.014 A 
HETATM   27  C   UNK N   1      29.775  15.960   2.768  0.00  0.00     0.001 A 
HETATM   28  C   UNK N   1      28.829  14.948   2.613  0.00  0.00     0.000 A 
HETATM   29  C   UNK N   1      28.479  14.151   3.703  0.00  0.00     0.001 A 
HETATM   30  C   UNK N   1      29.067  14.375   4.949  0.00  0.00     0.014 A 
ENDBRANCH   5  25
TORSDOF 4
ENDMDL
MODEL 6
REMARK VINA RESULT:      -6.8      2.237      4.945
REMARK  4 active torsions:
REMARK  status: ('A' for Active; 'I' for Inactive)
REMARK    1  A    between atoms: C_3  and  N_15 
REMARK    2  A    between atoms: C_4  and  C_24 
REMARK    3  A    between atoms: C_5  and  C_14 
REMARK    4  A    between atoms: C_17  and  O_29 
ROOT
HETATM    1  N   UNK N   1      29.256  18.277   4.572  0.00  0.00    -0.343 N 
ATOM      2  HN  UNK N   1      29.824  19.123   4.606  1.00  0.00     0.167 HD
HETATM    3  C   UNK N   1      29.943  17.245   4.893  0.00  0.00     0.108 C 
HETATM    4  C   UNK N   1      29.391  15.821   4.978  0.00  0.00     0.190 C 
HETATM    5  C   UNK N   1      27.041  16.127   3.987  0.00  0.00     0.051 C 
HETATM    6  N   UNK N   1      28.075  15.522   4.464  0.00  0.00    -0.373 N 
ATOM      7  HN  UNK N   1      27.912  14.515   4.484  1.00  0.00     0.161 HD
HETATM    8  C   UNK N   1      26.905  17.626   3.911  0.00  0.00     0.018 A 
HETATM    9  C   UNK N   1      27.931  18.568   4.185  0.00  0.00     0.046 A 
HETATM   10  C   UNK N   1      27.657  19.939   4.063  0.00  0.00     0.030 A 
HETATM   11  C   UNK N   1      26.409  20.411   3.682  0.00  0.00     0.002 A 
HETATM   12  C   UNK N   1      25.400  19.508   3.408  0.00  0.00     0.001 A 
HETATM   13  C   UNK N   1      25.652  18.146   3.519  0.00  0.00     0.016 A 
ENDROOT
BRANCH   3  14
HETATM   14  N   UNK N   1      31.279  17.509   5.346  0.00  0.00    -0.364 N 
HETATM   15  C   UNK N   1      32.409  17.499   4.490  0.00  0.00     0.157 A 
HETATM   16  C   UNK N   1      33.215  16.943   5.690  0.00  0.00     0.154 A 
HETATM   17  C   UNK N   1      31.912  17.071   6.530  0.00  0.00     0.157 A 
BRANCH  16  18
HETATM   18  O   UNK N   1      34.148  17.891   6.106  0.00  0.00    -0.392 OA
HETATM   19  H   UNK N   1      34.003  18.760   6.512  0.00  0.00     0.210 HD
ENDBRANCH  16  18
ENDBRANCH   3  14
BRANCH   4  20
HETATM   20  C   UNK N   1      30.251  14.751   4.346  0.00  0.00     0.012 A 
HETATM   21  S   UNK N   1      31.289  13.670   5.055  0.00  0.00    -0.104 SA
HETATM   22  C   UNK N   1      31.931  12.951   3.701  0.00  0.00     0.050 A 
HETATM   23  C   UNK N   1      31.337  13.590   2.605  0.00  0.00     0.008 A 
HETATM   24  C   UNK N   1      30.409  14.607   2.963  0.00  0.00     0.017 A 
ENDBRANCH   4  20
BRANCH   5  25
HETATM   25  C   UNK N   1      25.960  15.200   3.470  0.00  0.00    -0.009 A 
HETATM   26  C   UNK N   1      25.894  14.946   2.086  0.00  0.00     0.014 A 
HETATM   27  C   UNK N   1      24.885  14.144   1.545  0.00  0.00     0.001 A 
HETATM   28  C   UNK N   1      23.927  13.571   2.380  0.00  0.00     0.000 A 
HETATM   29  C   UNK N   1      23.977  13.801   3.754  0.00  0.00     0.001 A 
HETATM   30  C   UNK N   1      24.978  14.614   4.291  0.00  0.00     0.014 A 
ENDBRANCH   5  25
TORSDOF 4
ENDMDL
MODEL 7
REMARK VINA RESULT:      -6.7     11.642     13.411
REMARK  4 active torsions:
REMARK  status: ('A' for Active; 'I' for Inactive)
REMARK    1  A    between atoms: C_3  and  N_15 
REMARK    2  A    between atoms: C_4  and  C_24 
REMARK    3  A    between atoms: C_5  and  C_14 
REMARK    4  A    between atoms: C_17  and  O_29 
ROOT
HETATM    1  N   UNK N   1      28.068  23.364  -6.413  0.00  0.00    -0.343 N 
ATOM      2  HN  UNK N   1      27.267  23.500  -7.029  1.00  0.00     0.167 HD
HETATM    3  C   UNK N   1      28.224  24.366  -5.628  0.00  0.00     0.108 C 
HETATM    4  C   UNK N   1      29.308  24.472  -4.556  0.00  0.00     0.190 C 
HETATM    5  C   UNK N   1      30.754  22.418  -5.087  0.00  0.00     0.051 C 
HETATM    6  N   UNK N   1      30.390  23.517  -4.521  0.00  0.00    -0.373 N 
ATOM      7  HN  UNK N   1      31.086  23.802  -3.831  1.00  0.00     0.161 HD
HETATM    8  C   UNK N   1      29.910  21.666  -6.084  0.00  0.00     0.018 A 
HETATM    9  C   UNK N   1      28.698  22.127  -6.661  0.00  0.00     0.046 A 
HETATM   10  C   UNK N   1      28.023  21.315  -7.586  0.00  0.00     0.030 A 
HETATM   11  C   UNK N   1      28.500  20.067  -7.958  0.00  0.00     0.002 A 
HETATM   12  C   UNK N   1      29.681  19.603  -7.409  0.00  0.00     0.001 A 
HETATM   13  C   UNK N   1      30.366  20.394  -6.494  0.00  0.00     0.016 A 
ENDROOT
BRANCH   3  14
HETATM   14  N   UNK N   1      27.194  25.364  -5.690  0.00  0.00    -0.364 N 
HETATM   15  C   UNK N   1      26.341  25.673  -4.601  0.00  0.00     0.157 A 
HETATM   16  C   UNK N   1      25.231  25.939  -5.648  0.00  0.00     0.154 A 
HETATM   17  C   UNK N   1      26.293  25.637  -6.743  0.00  0.00     0.157 A 
BRANCH  16  18
HETATM   18  O   UNK N   1      24.908  27.294  -5.654  0.00  0.00    -0.392 OA
HETATM   19  H   UNK N   1      25.489  28.064  -5.754  0.00  0.00     0.210 HD
ENDBRANCH  16  18
ENDBRANCH   3  14
BRANCH   4  20
HETATM   20  C   UNK N   1      30.028  25.800  -4.488  0.00  0.00     0.012 A 
HETATM   21  S   UNK N   1      30.279  26.931  -5.674  0.00  0.00    -0.104 SA
HETATM   22  C   UNK N   1      31.243  28.006  -4.850  0.00  0.00     0.050 A 
HETATM   23  C   UNK N   1      31.421  27.466  -3.571  0.00  0.00     0.008 A 
HETATM   24  C   UNK N   1      30.756  26.225  -3.370  0.00  0.00     0.017 A 
ENDBRANCH   4  20
BRANCH   5  25
HETATM   25  C   UNK N   1      32.137  21.941  -4.692  0.00  0.00    -0.009 A 
HETATM   26  C   UNK N   1      32.297  21.285  -3.454  0.00  0.00     0.014 A 
HETATM   27  C   UNK N   1      33.556  20.872  -3.012  0.00  0.00     0.001 A 
HETATM   28  C   UNK N   1      34.682  21.099  -3.802  0.00  0.00     0.000 A 
HETATM   29  C   UNK N   1      34.547  21.738  -5.035  0.00  0.00     0.001 A 
HETATM   30  C   UNK N   1      33.289  22.162  -5.468  0.00  0.00     0.014 A 
ENDBRANCH   5  25
TORSDOF 4
ENDMDL
MODEL 8
REMARK VINA RESULT:      -6.7      4.330      6.780
REMARK  4 active torsions:
REMARK  status: ('A' for Active; 'I' for Inactive)
REMARK    1  A    between atoms: C_3  and  N_15 
REMARK    2  A    between atoms: C_4  and  C_24 
REMARK    3  A    between atoms: C_5  and  C_14 
REMARK    4  A    between atoms: C_17  and  O_29 
ROOT
HETATM    1  N   UNK N   1      25.283  16.914   3.804  0.00  0.00    -0.343 N 
ATOM      2  HN  UNK N   1      24.529  17.119   3.148  1.00  0.00     0.167 HD
HETATM    3  C   UNK N   1      25.279  15.679   4.144  0.00  0.00     0.108 C 
HETATM    4  C   UNK N   1      26.293  15.031   5.087  0.00  0.00     0.190 C 
HETATM    5  C   UNK N   1      27.571  17.085   5.950  0.00  0.00     0.051 C 
HETATM    6  N   UNK N   1      27.205  15.853   5.847  0.00  0.00    -0.373 N 
ATOM      7  HN  UNK N   1      27.723  15.278   6.512  1.00  0.00     0.161 HD
HETATM    8  C   UNK N   1      27.078  18.187   5.047  0.00  0.00     0.018 A 
HETATM    9  C   UNK N   1      26.040  18.070   4.086  0.00  0.00     0.046 A 
HETATM   10  C   UNK N   1      25.683  19.191   3.320  0.00  0.00     0.030 A 
HETATM   11  C   UNK N   1      26.315  20.417   3.468  0.00  0.00     0.002 A 
HETATM   12  C   UNK N   1      27.325  20.549   4.402  0.00  0.00     0.001 A 
HETATM   13  C   UNK N   1      27.690  19.452   5.173  0.00  0.00     0.016 A 
ENDROOT
BRANCH   3  14
HETATM   14  N   UNK N   1      24.334  14.851   3.450  0.00  0.00    -0.364 N 
HETATM   15  C   UNK N   1      24.394  14.602   2.055  0.00  0.00     0.157 A 
HETATM   16  C   UNK N   1      22.845  14.573   2.074  0.00  0.00     0.154 A 
HETATM   17  C   UNK N   1      22.933  14.783   3.613  0.00  0.00     0.157 A 
BRANCH  16  18
HETATM   18  O   UNK N   1      22.398  13.284   1.792  0.00  0.00    -0.392 OA
HETATM   19  H   UNK N   1      21.739  12.745   2.259  0.00  0.00     0.210 HD
ENDBRANCH  16  18
ENDBRANCH   3  14
BRANCH   4  20
HETATM   20  C   UNK N   1      25.711  14.112   6.137  0.00  0.00     0.012 A 
HETATM   21  S   UNK N   1      25.126  12.569   5.988  0.00  0.00    -0.104 SA
HETATM   22  C   UNK N   1      24.562  12.321   7.532  0.00  0.00     0.050 A 
HETATM   23  C   UNK N   1      24.808  13.510   8.230  0.00  0.00     0.008 A 
HETATM   24  C   UNK N   1      25.436  14.518   7.448  0.00  0.00     0.017 A 
ENDBRANCH   4  20
BRANCH   5  25
HETATM   25  C   UNK N   1      28.531  17.356   7.090  0.00  0.00    -0.009 A 
HETATM   26  C   UNK N   1      28.008  17.785   8.327  0.00  0.00     0.014 A 
HETATM   27  C   UNK N   1      28.848  18.104   9.397  0.00  0.00     0.001 A 
HETATM   28  C   UNK N   1      30.230  17.991   9.255  0.00  0.00     0.000 A 
HETATM   29  C   UNK N   1      30.771  17.561   8.044  0.00  0.00     0.001 A 
HETATM   30  C   UNK N   1      29.930  17.257   6.971  0.00  0.00     0.014 A 
ENDBRANCH   5  25
TORSDOF 4
ENDMDL
MODEL 9
REMARK VINA RESULT:      -6.5     11.102     14.969
REMARK  4 active torsions:
REMARK  status: ('A' for Active; 'I' for Inactive)
REMARK    1  A    between atoms: C_3  and  N_15 
REMARK    2  A    between atoms: C_4  and  C_24 
REMARK    3  A    between atoms: C_5  and  C_14 
REMARK    4  A    between atoms: C_17  and  O_29 
ROOT
HETATM    1  N   UNK N   1      35.616  12.825  15.175  0.00  0.00    -0.343 N 
ATOM      2  HN  UNK N   1      35.244  13.764  15.029  1.00  0.00     0.167 HD
HETATM    3  C   UNK N   1      35.985  12.296  14.068  0.00  0.00     0.108 C 
HETATM    4  C   UNK N   1      36.619  10.911  13.933  0.00  0.00     0.190 C 
HETATM    5  C   UNK N   1      36.337   9.987  16.312  0.00  0.00     0.051 C 
HETATM    6  N   UNK N   1      36.627  10.004  15.057  0.00  0.00    -0.373 N 
ATOM      7  HN  UNK N   1      36.970   9.089  14.765  1.00  0.00     0.161 HD
HETATM    8  C   UNK N   1      35.897  11.201  17.090  0.00  0.00     0.018 A 
HETATM    9  C   UNK N   1      35.580  12.470  16.540  0.00  0.00     0.046 A 
HETATM   10  C   UNK N   1      35.175  13.509  17.393  0.00  0.00     0.030 A 
HETATM   11  C   UNK N   1      35.074  13.339  18.766  0.00  0.00     0.002 A 
HETATM   12  C   UNK N   1      35.374  12.108  19.319  0.00  0.00     0.001 A 
HETATM   13  C   UNK N   1      35.774  11.066  18.490  0.00  0.00     0.016 A 
ENDROOT
BRANCH   3  14
HETATM   14  N   UNK N   1      35.924  13.157  12.922  0.00  0.00    -0.364 N 
HETATM   15  C   UNK N   1      36.218  14.543  12.971  0.00  0.00     0.157 A 
HETATM   16  C   UNK N   1      35.129  14.733  11.887  0.00  0.00     0.154 A 
HETATM   17  C   UNK N   1      34.959  13.187  11.891  0.00  0.00     0.157 A 
BRANCH  16  18
HETATM   18  O   UNK N   1      35.721  15.147  10.695  0.00  0.00    -0.392 OA
HETATM   19  H   UNK N   1      36.435  14.730  10.187  0.00  0.00     0.210 HD
ENDBRANCH  16  18
ENDBRANCH   3  14
BRANCH   4  20
HETATM   20  C   UNK N   1      36.076  10.054  12.812  0.00  0.00     0.012 A 
HETATM   21  S   UNK N   1      36.681   9.791  11.291  0.00  0.00    -0.104 SA
HETATM   22  C   UNK N   1      35.461   8.864  10.649  0.00  0.00     0.050 A 
HETATM   23  C   UNK N   1      34.489   8.753  11.651  0.00  0.00     0.008 A 
HETATM   24  C   UNK N   1      34.824   9.431  12.856  0.00  0.00     0.017 A 
ENDBRANCH   4  20
BRANCH   5  25
HETATM   25  C   UNK N   1      36.444   8.621  16.958  0.00  0.00    -0.009 A 
HETATM   26  C   UNK N   1      35.289   7.816  17.031  0.00  0.00     0.014 A 
HETATM   27  C   UNK N   1      35.314   6.570  17.664  0.00  0.00     0.001 A 
HETATM   28  C   UNK N   1      36.498   6.099  18.230  0.00  0.00     0.000 A 
HETATM   29  C   UNK N   1      37.656   6.874  18.163  0.00  0.00     0.001 A 
HETATM   30  C   UNK N   1      37.625   8.125  17.542  0.00  0.00     0.014 A 
ENDBRANCH   5  25
TORSDOF 4
ENDMDL
