MODEL 1
REMARK VINA RESULT:      -6.9      0.000      0.000
REMARK  4 active torsions:
REMARK  status: ('A' for Active; 'I' for Inactive)
REMARK    1  A    between atoms: C_2  and  N_5 
REMARK    2  A    between atoms: C_14  and  N_15 
REMARK    3  A    between atoms: C_17  and  C_18 
REMARK    4  A    between atoms: C_18  and  C_19 
ROOT
HETATM    1  N   UNK N   1      29.131  17.787   4.829  0.00  0.00    -0.267 N 
HETATM    2  N   UNK N   1      28.411  18.445   3.933  0.00  0.00    -0.299 N 
ATOM      3  HN  UNK N   1      28.471  18.324   2.922  1.00  0.00     0.187 HD
HETATM    4  C   UNK N   1      28.791  18.221   6.053  0.00  0.00     0.140 A 
HETATM    5  N   UNK N   1      29.317  17.804   7.228  0.00  0.00    -0.336 N 
ATOM      6  HN  UNK N   1      30.047  17.091   7.248  1.00  0.00     0.168 HD
HETATM    7  C   UNK N   1      28.851  18.355   8.382  0.00  0.00     0.183 A 
HETATM    8  N   UNK N   1      27.850  19.285   8.345  0.00  0.00    -0.338 N 
ATOM      9  HN  UNK N   1      27.502  19.674   9.220  1.00  0.00     0.168 HD
HETATM   10  C   UNK N   1      27.304  19.705   7.166  0.00  0.00     0.116 A 
HETATM   11  C   UNK N   1      27.807  19.170   5.964  0.00  0.00     0.077 A 
HETATM   12  C   UNK N   1      27.582  19.306   4.575  0.00  0.00     0.048 A 
ENDROOT
BRANCH  12  13
HETATM   13  C   UNK N   1      26.655  20.167   3.748  0.00  0.00     0.098 C 
BRANCH  13  14
HETATM   14  C   UNK N   1      25.202  19.866   3.667  0.00  0.00    -0.052 A 
HETATM   15  C   UNK N   1      24.634  18.842   4.436  0.00  0.00     0.014 A 
HETATM   16  C   UNK N   1      23.262  18.582   4.343  0.00  0.00    -0.061 A 
HETATM   17  C   UNK N   1      22.453  19.373   3.519  0.00  0.00     0.007 A 
HETATM   18  C   UNK N   1      22.672  17.442   5.088  0.00  0.00     0.048 C 
HETATM   19  C   UNK N   1      23.013  20.424   2.790  0.00  0.00     0.001 A 
HETATM   20  C   UNK N   1      24.386  20.669   2.861  0.00  0.00     0.007 A 
ENDBRANCH  13  14
ENDBRANCH  12  13
BRANCH   1  21
HETATM   21  C   UNK N   1      30.102  16.730   4.504  0.00  0.00     0.044 C 
HETATM   22  C   UNK N   1      31.504  17.205   4.843  0.00  0.00     0.039 C 
HETATM   23  C   UNK N   1      29.826  15.465   5.302  0.00  0.00     0.039 C 
HETATM   24  C   UNK N   1      30.039  16.382   3.027  0.00  0.00     0.039 C 
ENDBRANCH   1  21
BRANCH  10  25
HETATM   25  N   UNK N   1      26.240  20.616   7.202  0.00  0.00    -0.385 N 
HETATM   26  H   UNK N   1      26.387  21.540   7.507  0.00  0.00     0.157 HD
HETATM   27  H   UNK N   1      25.340  20.331   6.919  0.00  0.00     0.157 HD
ENDBRANCH  10  25
TORSDOF 4
ENDMDL
MODEL 2
REMARK VINA RESULT:      -6.8      2.620      4.221
REMARK  4 active torsions:
REMARK  status: ('A' for Active; 'I' for Inactive)
REMARK    1  A    between atoms: C_2  and  N_5 
REMARK    2  A    between atoms: C_14  and  N_15 
REMARK    3  A    between atoms: C_17  and  C_18 
REMARK    4  A    between atoms: C_18  and  C_19 
ROOT
HETATM    1  N   UNK N   1      31.457  16.272   5.228  0.00  0.00    -0.267 N 
HETATM    2  N   UNK N   1      30.152  16.499   5.241  0.00  0.00    -0.299 N 
ATOM      3  HN  UNK N   1      29.505  16.273   4.485  1.00  0.00     0.187 HD
HETATM    4  C   UNK N   1      31.979  16.714   6.384  0.00  0.00     0.140 A 
HETATM    5  N   UNK N   1      33.283  16.678   6.741  0.00  0.00    -0.336 N 
ATOM      6  HN  UNK N   1      33.985  16.286   6.112  1.00  0.00     0.168 HD
HETATM    7  C   UNK N   1      33.638  17.173   7.958  0.00  0.00     0.183 A 
HETATM    8  N   UNK N   1      32.686  17.663   8.806  0.00  0.00    -0.338 N 
ATOM      9  HN  UNK N   1      32.968  18.014   9.720  1.00  0.00     0.168 HD
HETATM   10  C   UNK N   1      31.365  17.695   8.460  0.00  0.00     0.116 A 
HETATM   11  C   UNK N   1      30.992  17.221   7.187  0.00  0.00     0.077 A 
HETATM   12  C   UNK N   1      29.814  17.079   6.419  0.00  0.00     0.048 A 
ENDROOT
BRANCH  12  13
HETATM   13  C   UNK N   1      28.363  17.427   6.662  0.00  0.00     0.098 C 
BRANCH  13  14
HETATM   14  C   UNK N   1      27.811  18.740   6.234  0.00  0.00    -0.052 A 
HETATM   15  C   UNK N   1      27.282  18.916   4.950  0.00  0.00     0.014 A 
HETATM   16  C   UNK N   1      26.766  20.161   4.574  0.00  0.00    -0.061 A 
HETATM   17  C   UNK N   1      26.738  21.214   5.495  0.00  0.00     0.007 A 
HETATM   18  C   UNK N   1      26.286  20.376   3.186  0.00  0.00     0.048 C 
HETATM   19  C   UNK N   1      27.222  21.023   6.791  0.00  0.00     0.001 A 
HETATM   20  C   UNK N   1      27.761  19.789   7.159  0.00  0.00     0.007 A 
ENDBRANCH  13  14
ENDBRANCH  12  13
BRANCH   1  21
HETATM   21  C   UNK N   1      32.176  15.604   4.131  0.00  0.00     0.044 C 
HETATM   22  C   UNK N   1      31.175  14.972   3.179  0.00  0.00     0.039 C 
HETATM   23  C   UNK N   1      33.017  16.595   3.342  0.00  0.00     0.039 C 
HETATM   24  C   UNK N   1      33.097  14.526   4.673  0.00  0.00     0.039 C 
ENDBRANCH   1  21
BRANCH  10  25
HETATM   25  N   UNK N   1      30.432  18.156   9.399  0.00  0.00    -0.385 N 
HETATM   26  H   UNK N   1      30.332  17.698  10.265  0.00  0.00     0.157 HD
HETATM   27  H   UNK N   1      29.874  18.941   9.191  0.00  0.00     0.157 HD
ENDBRANCH  10  25
TORSDOF 4
ENDMDL
MODEL 3
REMARK VINA RESULT:      -6.7     10.436     12.647
REMARK  4 active torsions:
REMARK  status: ('A' for Active; 'I' for Inactive)
REMARK    1  A    between atoms: C_2  and  N_5 
REMARK    2  A    between atoms: C_14  and  N_15 
REMARK    3  A    between atoms: C_17  and  C_18 
REMARK    4  A    between atoms: C_18  and  C_19 
ROOT
HETATM    1  N   UNK N   1      29.261  23.082  -4.421  0.00  0.00    -0.267 N 
HETATM    2  N   UNK N   1      28.564  23.980  -3.742  0.00  0.00    -0.299 N 
ATOM      3  HN  UNK N   1      28.816  24.355  -2.827  1.00  0.00     0.187 HD
HETATM    4  C   UNK N   1      28.616  22.820  -5.569  0.00  0.00     0.140 A 
HETATM    5  N   UNK N   1      29.002  21.943  -6.524  0.00  0.00    -0.336 N 
ATOM      6  HN  UNK N   1      29.859  21.399  -6.417  1.00  0.00     0.168 HD
HETATM    7  C   UNK N   1      28.223  21.803  -7.632  0.00  0.00     0.183 A 
HETATM    8  N   UNK N   1      27.096  22.560  -7.781  0.00  0.00    -0.338 N 
ATOM      9  HN  UNK N   1      26.535  22.455  -8.625  1.00  0.00     0.168 HD
HETATM   10  C   UNK N   1      26.704  23.457  -6.828  0.00  0.00     0.116 A 
HETATM   11  C   UNK N   1      27.481  23.581  -5.660  0.00  0.00     0.077 A 
HETATM   12  C   UNK N   1      27.463  24.321  -4.456  0.00  0.00     0.048 A 
ENDROOT
BRANCH  12  13
HETATM   13  C   UNK N   1      26.513  25.343  -3.874  0.00  0.00     0.098 C 
BRANCH  13  14
HETATM   14  C   UNK N   1      26.651  26.787  -4.201  0.00  0.00    -0.052 A 
HETATM   15  C   UNK N   1      27.280  27.202  -5.381  0.00  0.00     0.014 A 
HETATM   16  C   UNK N   1      27.394  28.568  -5.665  0.00  0.00    -0.061 A 
HETATM   17  C   UNK N   1      26.842  29.514  -4.794  0.00  0.00     0.007 A 
HETATM   18  C   UNK N   1      28.135  29.014  -6.871  0.00  0.00     0.048 C 
HETATM   19  C   UNK N   1      26.174  29.095  -3.640  0.00  0.00     0.001 A 
HETATM   20  C   UNK N   1      26.082  27.734  -3.342  0.00  0.00     0.007 A 
ENDBRANCH  13  14
ENDBRANCH  12  13
BRANCH   1  21
HETATM   21  C   UNK N   1      30.548  22.518  -3.980  0.00  0.00     0.044 C 
HETATM   22  C   UNK N   1      30.791  22.884  -2.527  0.00  0.00     0.039 C 
HETATM   23  C   UNK N   1      30.551  21.002  -4.093  0.00  0.00     0.039 C 
HETATM   24  C   UNK N   1      31.686  23.059  -4.827  0.00  0.00     0.039 C 
ENDBRANCH   1  21
BRANCH  10  25
HETATM   25  N   UNK N   1      25.570  24.246  -7.070  0.00  0.00    -0.385 N 
HETATM   26  H   UNK N   1      24.889  24.364  -6.369  0.00  0.00     0.157 HD
HETATM   27  H   UNK N   1      25.456  24.684  -7.945  0.00  0.00     0.157 HD
ENDBRANCH  10  25
TORSDOF 4
ENDMDL
MODEL 4
REMARK VINA RESULT:      -6.5      3.370      5.922
REMARK  4 active torsions:
REMARK  status: ('A' for Active; 'I' for Inactive)
REMARK    1  A    between atoms: C_2  and  N_5 
REMARK    2  A    between atoms: C_14  and  N_15 
REMARK    3  A    between atoms: C_17  and  C_18 
REMARK    4  A    between atoms: C_18  and  C_19 
ROOT
HETATM    1  N   UNK N   1      25.267  18.777   4.934  0.00  0.00    -0.267 N 
HETATM    2  N   UNK N   1      24.861  17.623   5.441  0.00  0.00    -0.299 N 
ATOM      3  HN  UNK N   1      25.413  17.017   6.050  1.00  0.00     0.187 HD
HETATM    4  C   UNK N   1      24.281  19.279   4.173  0.00  0.00     0.140 A 
HETATM    5  N   UNK N   1      24.319  20.435   3.470  0.00  0.00    -0.336 N 
ATOM      6  HN  UNK N   1      25.151  21.025   3.483  1.00  0.00     0.168 HD
HETATM    7  C   UNK N   1      23.223  20.794   2.749  0.00  0.00     0.183 A 
HETATM    8  N   UNK N   1      22.102  20.012   2.766  0.00  0.00    -0.338 N 
ATOM      9  HN  UNK N   1      21.284  20.306   2.233  1.00  0.00     0.168 HD
HETATM   10  C   UNK N   1      22.049  18.850   3.480  0.00  0.00     0.116 A 
HETATM   11  C   UNK N   1      23.192  18.449   4.199  0.00  0.00     0.077 A 
HETATM   12  C   UNK N   1      23.595  17.374   5.023  0.00  0.00     0.048 A 
ENDROOT
BRANCH  12  13
HETATM   13  C   UNK N   1      22.919  16.103   5.485  0.00  0.00     0.098 C 
BRANCH  13  14
HETATM   14  C   UNK N   1      21.969  16.116   6.628  0.00  0.00    -0.052 A 
HETATM   15  C   UNK N   1      21.957  15.077   7.568  0.00  0.00     0.014 A 
HETATM   16  C   UNK N   1      21.054  15.116   8.636  0.00  0.00    -0.061 A 
HETATM   17  C   UNK N   1      20.197  16.210   8.790  0.00  0.00     0.007 A 
HETATM   18  C   UNK N   1      20.979  13.975   9.583  0.00  0.00     0.048 C 
HETATM   19  C   UNK N   1      20.244  17.268   7.879  0.00  0.00     0.001 A 
HETATM   20  C   UNK N   1      21.126  17.219   6.797  0.00  0.00     0.007 A 
ENDBRANCH  13  14
ENDBRANCH  12  13
BRANCH   1  21
HETATM   21  C   UNK N   1      26.572  19.397   5.214  0.00  0.00     0.044 C 
HETATM   22  C   UNK N   1      27.443  18.422   5.986  0.00  0.00     0.039 C 
HETATM   23  C   UNK N   1      27.296  19.760   3.927  0.00  0.00     0.039 C 
HETATM   24  C   UNK N   1      26.397  20.664   6.033  0.00  0.00     0.039 C 
ENDBRANCH   1  21
BRANCH  10  25
HETATM   25  N   UNK N   1      20.848  18.126   3.504  0.00  0.00    -0.385 N 
HETATM   26  H   UNK N   1      20.836  17.177   3.241  0.00  0.00     0.157 HD
HETATM   27  H   UNK N   1      20.014  18.568   3.786  0.00  0.00     0.157 HD
ENDBRANCH  10  25
TORSDOF 4
ENDMDL
MODEL 5
REMARK VINA RESULT:      -6.3      9.518     12.871
REMARK  4 active torsions:
REMARK  status: ('A' for Active; 'I' for Inactive)
REMARK    1  A    between atoms: C_2  and  N_5 
REMARK    2  A    between atoms: C_14  and  N_15 
REMARK    3  A    between atoms: C_17  and  C_18 
REMARK    4  A    between atoms: C_18  and  C_19 
ROOT
HETATM    1  N   UNK N   1      35.659  12.528  14.133  0.00  0.00    -0.267 N 
HETATM    2  N   UNK N   1      35.430  13.789  13.797  0.00  0.00    -0.299 N 
ATOM      3  HN  UNK N   1      34.871  14.452  14.334  1.00  0.00     0.187 HD
HETATM    4  C   UNK N   1      36.420  11.964  13.181  0.00  0.00     0.140 A 
HETATM    5  N   UNK N   1      36.851  10.682  13.153  0.00  0.00    -0.336 N 
ATOM      6  HN  UNK N   1      36.606  10.033  13.902  1.00  0.00     0.168 HD
HETATM    7  C   UNK N   1      37.620  10.276  12.106  0.00  0.00     0.183 A 
HETATM    8  N   UNK N   1      37.970  11.162  11.127  0.00  0.00    -0.338 N 
ATOM      9  HN  UNK N   1      38.561  10.845  10.359  1.00  0.00     0.168 HD
HETATM   10  C   UNK N   1      37.550  12.461  11.150  0.00  0.00     0.116 A 
HETATM   11  C   UNK N   1      36.721  12.880  12.209  0.00  0.00     0.077 A 
HETATM   12  C   UNK N   1      36.060  14.058  12.626  0.00  0.00     0.048 A 
ENDROOT
BRANCH  12  13
HETATM   13  C   UNK N   1      35.942  15.449  12.047  0.00  0.00     0.098 C 
BRANCH  13  14
HETATM   14  C   UNK N   1      35.017  15.731  10.918  0.00  0.00    -0.052 A 
HETATM   15  C   UNK N   1      35.207  16.844  10.090  0.00  0.00     0.014 A 
HETATM   16  C   UNK N   1      34.322  17.084   9.033  0.00  0.00    -0.061 A 
HETATM   17  C   UNK N   1      33.278  16.189   8.776  0.00  0.00     0.007 A 
HETATM   18  C   UNK N   1      34.469  18.310   8.208  0.00  0.00     0.048 C 
HETATM   19  C   UNK N   1      33.119  15.053   9.573  0.00  0.00     0.001 A 
HETATM   20  C   UNK N   1      33.985  14.826  10.645  0.00  0.00     0.007 A 
ENDBRANCH  13  14
ENDBRANCH  12  13
BRANCH   1  21
HETATM   21  C   UNK N   1      35.178  11.895  15.372  0.00  0.00     0.044 C 
HETATM   22  C   UNK N   1      36.343  11.241  16.093  0.00  0.00     0.039 C 
HETATM   23  C   UNK N   1      34.559  12.922  16.308  0.00  0.00     0.039 C 
HETATM   24  C   UNK N   1      34.129  10.842  15.063  0.00  0.00     0.039 C 
ENDBRANCH   1  21
BRANCH  10  25
HETATM   25  N   UNK N   1      37.995  13.333  10.146  0.00  0.00    -0.385 N 
HETATM   26  H   UNK N   1      38.586  13.005   9.431  0.00  0.00     0.157 HD
HETATM   27  H   UNK N   1      37.713  14.277  10.157  0.00  0.00     0.157 HD
ENDBRANCH  10  25
TORSDOF 4
ENDMDL
MODEL 6
REMARK VINA RESULT:      -6.3      2.113      3.324
REMARK  4 active torsions:
REMARK  status: ('A' for Active; 'I' for Inactive)
REMARK    1  A    between atoms: C_2  and  N_5 
REMARK    2  A    between atoms: C_14  and  N_15 
REMARK    3  A    between atoms: C_17  and  C_18 
REMARK    4  A    between atoms: C_18  and  C_19 
ROOT
HETATM    1  N   UNK N   1      31.315  16.693   5.282  0.00  0.00    -0.267 N 
HETATM    2  N   UNK N   1      30.074  16.620   4.823  0.00  0.00    -0.299 N 
ATOM      3  HN  UNK N   1      29.810  16.388   3.865  1.00  0.00     0.187 HD
HETATM    4  C   UNK N   1      31.271  17.038   6.578  0.00  0.00     0.140 A 
HETATM    5  N   UNK N   1      32.334  17.230   7.393  0.00  0.00    -0.336 N 
ATOM      6  HN  UNK N   1      33.286  17.115   7.044  1.00  0.00     0.168 HD
HETATM    7  C   UNK N   1      32.106  17.579   8.689  0.00  0.00     0.183 A 
HETATM    8  N   UNK N   1      30.827  17.698   9.154  0.00  0.00    -0.338 N 
ATOM      9  HN  UNK N   1      30.675  17.943  10.132  1.00  0.00     0.168 HD
HETATM   10  C   UNK N   1      29.747  17.495   8.343  0.00  0.00     0.116 A 
HETATM   11  C   UNK N   1      29.972  17.173   6.991  0.00  0.00     0.077 A 
HETATM   12  C   UNK N   1      29.211  16.905   5.830  0.00  0.00     0.048 A 
ENDROOT
BRANCH  12  13
HETATM   13  C   UNK N   1      27.728  16.879   5.539  0.00  0.00     0.098 C 
BRANCH  13  14
HETATM   14  C   UNK N   1      27.005  18.117   5.146  0.00  0.00    -0.052 A 
HETATM   15  C   UNK N   1      27.163  19.305   5.871  0.00  0.00     0.014 A 
HETATM   16  C   UNK N   1      26.473  20.457   5.477  0.00  0.00    -0.061 A 
HETATM   17  C   UNK N   1      25.663  20.434   4.336  0.00  0.00     0.007 A 
HETATM   18  C   UNK N   1      26.568  21.693   6.294  0.00  0.00     0.048 C 
HETATM   19  C   UNK N   1      25.545  19.261   3.587  0.00  0.00     0.001 A 
HETATM   20  C   UNK N   1      26.212  18.103   3.993  0.00  0.00     0.007 A 
ENDBRANCH  13  14
ENDBRANCH  12  13
BRANCH   1  21
HETATM   21  C   UNK N   1      32.516  16.394   4.485  0.00  0.00     0.044 C 
HETATM   22  C   UNK N   1      33.439  17.599   4.487  0.00  0.00     0.039 C 
HETATM   23  C   UNK N   1      33.279  15.213   5.063  0.00  0.00     0.039 C 
HETATM   24  C   UNK N   1      32.137  16.059   3.053  0.00  0.00     0.039 C 
ENDBRANCH   1  21
BRANCH  10  25
HETATM   25  N   UNK N   1      28.462  17.574   8.898  0.00  0.00    -0.385 N 
HETATM   26  H   UNK N   1      28.324  18.006   9.772  0.00  0.00     0.157 HD
HETATM   27  H   UNK N   1      27.693  17.197   8.410  0.00  0.00     0.157 HD
ENDBRANCH  10  25
TORSDOF 4
ENDMDL
MODEL 7
REMARK VINA RESULT:      -6.3     10.842     14.752
REMARK  4 active torsions:
REMARK  status: ('A' for Active; 'I' for Inactive)
REMARK    1  A    between atoms: C_2  and  N_5 
REMARK    2  A    between atoms: C_14  and  N_15 
REMARK    3  A    between atoms: C_17  and  C_18 
REMARK    4  A    between atoms: C_18  and  C_19 
ROOT
HETATM    1  N   UNK N   1      35.405  12.906  11.406  0.00  0.00    -0.267 N 
HETATM    2  N   UNK N   1      34.563  12.739  12.414  0.00  0.00    -0.299 N 
ATOM      3  HN  UNK N   1      33.803  13.374  12.663  1.00  0.00     0.187 HD
HETATM    4  C   UNK N   1      36.273  11.882  11.400  0.00  0.00     0.140 A 
HETATM    5  N   UNK N   1      37.297  11.703  10.534  0.00  0.00    -0.336 N 
ATOM      6  HN  UNK N   1      37.475  12.379   9.790  1.00  0.00     0.168 HD
HETATM    7  C   UNK N   1      38.083  10.601  10.674  0.00  0.00     0.183 A 
HETATM    8  N   UNK N   1      37.815   9.686  11.652  0.00  0.00    -0.338 N 
ATOM      9  HN  UNK N   1      38.404   8.857  11.731  1.00  0.00     0.168 HD
HETATM   10  C   UNK N   1      36.778   9.850  12.524  0.00  0.00     0.116 A 
HETATM   11  C   UNK N   1      35.982  11.007  12.412  0.00  0.00     0.077 A 
HETATM   12  C   UNK N   1      34.871  11.589  13.065  0.00  0.00     0.048 A 
ENDROOT
BRANCH  12  13
HETATM   13  C   UNK N   1      34.034  11.188  14.258  0.00  0.00     0.098 C 
BRANCH  13  14
HETATM   14  C   UNK N   1      34.536  11.385  15.644  0.00  0.00    -0.052 A 
HETATM   15  C   UNK N   1      34.643  12.667  16.197  0.00  0.00     0.014 A 
HETATM   16  C   UNK N   1      35.115  12.824  17.504  0.00  0.00    -0.061 A 
HETATM   17  C   UNK N   1      35.438  11.700  18.272  0.00  0.00     0.007 A 
HETATM   18  C   UNK N   1      35.312  14.185  18.062  0.00  0.00     0.048 C 
HETATM   19  C   UNK N   1      35.286  10.419  17.735  0.00  0.00     0.001 A 
HETATM   20  C   UNK N   1      34.839  10.262  16.421  0.00  0.00     0.007 A 
ENDBRANCH  13  14
ENDBRANCH  12  13
BRANCH   1  21
HETATM   21  C   UNK N   1      35.342  14.019  10.444  0.00  0.00     0.044 C 
HETATM   22  C   UNK N   1      36.641  14.804  10.490  0.00  0.00     0.039 C 
HETATM   23  C   UNK N   1      35.147  13.508   9.025  0.00  0.00     0.039 C 
HETATM   24  C   UNK N   1      34.187  14.947  10.776  0.00  0.00     0.039 C 
ENDBRANCH   1  21
BRANCH  10  25
HETATM   25  N   UNK N   1      36.521   8.844  13.466  0.00  0.00    -0.385 N 
HETATM   26  H   UNK N   1      36.814   8.951  14.400  0.00  0.00     0.157 HD
HETATM   27  H   UNK N   1      36.044   8.026  13.192  0.00  0.00     0.157 HD
ENDBRANCH  10  25
TORSDOF 4
ENDMDL
MODEL 8
REMARK VINA RESULT:      -6.3     10.606     14.397
REMARK  4 active torsions:
REMARK  status: ('A' for Active; 'I' for Inactive)
REMARK    1  A    between atoms: C_2  and  N_5 
REMARK    2  A    between atoms: C_14  and  N_15 
REMARK    3  A    between atoms: C_17  and  C_18 
REMARK    4  A    between atoms: C_18  and  C_19 
ROOT
HETATM    1  N   UNK N   1      35.051  10.997  11.672  0.00  0.00    -0.267 N 
HETATM    2  N   UNK N   1      35.732  10.865  12.801  0.00  0.00    -0.299 N 
ATOM      3  HN  UNK N   1      35.942   9.980  13.265  1.00  0.00     0.187 HD
HETATM    4  C   UNK N   1      34.962  12.304  11.378  0.00  0.00     0.140 A 
HETATM    5  N   UNK N   1      34.327  12.845  10.313  0.00  0.00    -0.336 N 
ATOM      6  HN  UNK N   1      33.852  12.251   9.632  1.00  0.00     0.168 HD
HETATM    7  C   UNK N   1      34.337  14.198  10.168  0.00  0.00     0.183 A 
HETATM    8  N   UNK N   1      35.004  14.981  11.067  0.00  0.00    -0.338 N 
ATOM      9  HN  UNK N   1      35.015  15.992  10.933  1.00  0.00     0.168 HD
HETATM   10  C   UNK N   1      35.657  14.445  12.140  0.00  0.00     0.116 A 
HETATM   11  C   UNK N   1      35.620  13.049  12.320  0.00  0.00     0.077 A 
HETATM   12  C   UNK N   1      36.105  12.092  13.241  0.00  0.00     0.048 A 
ENDROOT
BRANCH  12  13
HETATM   13  C   UNK N   1      36.904  12.188  14.521  0.00  0.00     0.098 C 
BRANCH  13  14
HETATM   14  C   UNK N   1      36.225  12.346  15.834  0.00  0.00    -0.052 A 
HETATM   15  C   UNK N   1      35.951  11.236  16.643  0.00  0.00     0.014 A 
HETATM   16  C   UNK N   1      35.313  11.414  17.876  0.00  0.00    -0.061 A 
HETATM   17  C   UNK N   1      34.992  12.702  18.319  0.00  0.00     0.007 A 
HETATM   18  C   UNK N   1      34.942  10.233  18.695  0.00  0.00     0.048 C 
HETATM   19  C   UNK N   1      35.310  13.812  17.533  0.00  0.00     0.001 A 
HETATM   20  C   UNK N   1      35.922  13.634  16.290  0.00  0.00     0.007 A 
ENDBRANCH  13  14
ENDBRANCH  12  13
BRANCH   1  21
HETATM   21  C   UNK N   1      34.531   9.873  10.877  0.00  0.00     0.044 C 
HETATM   22  C   UNK N   1      34.682   8.582  11.662  0.00  0.00     0.039 C 
HETATM   23  C   UNK N   1      33.056  10.062  10.558  0.00  0.00     0.039 C 
HETATM   24  C   UNK N   1      35.288   9.751   9.566  0.00  0.00     0.039 C 
ENDBRANCH   1  21
BRANCH  10  25
HETATM   25  N   UNK N   1      36.372  15.299  12.991  0.00  0.00    -0.385 N 
HETATM   26  H   UNK N   1      36.801  14.945  13.804  0.00  0.00     0.157 HD
HETATM   27  H   UNK N   1      36.447  16.257  12.774  0.00  0.00     0.157 HD
ENDBRANCH  10  25
TORSDOF 4
ENDMDL
MODEL 9
REMARK VINA RESULT:      -6.2      2.920      4.145
REMARK  4 active torsions:
REMARK  status: ('A' for Active; 'I' for Inactive)
REMARK    1  A    between atoms: C_2  and  N_5 
REMARK    2  A    between atoms: C_14  and  N_15 
REMARK    3  A    between atoms: C_17  and  C_18 
REMARK    4  A    between atoms: C_18  and  C_19 
ROOT
HETATM    1  N   UNK N   1      31.230  17.072   7.071  0.00  0.00    -0.267 N 
HETATM    2  N   UNK N   1      31.007  17.138   5.767  0.00  0.00    -0.299 N 
ATOM      3  HN  UNK N   1      31.661  16.847   5.039  1.00  0.00     0.187 HD
HETATM    4  C   UNK N   1      30.155  17.555   7.713  0.00  0.00     0.140 A 
HETATM    5  N   UNK N   1      30.005  17.671   9.053  0.00  0.00    -0.336 N 
ATOM      6  HN  UNK N   1      30.749  17.378   9.688  1.00  0.00     0.168 HD
HETATM    7  C   UNK N   1      28.842  18.185   9.536  0.00  0.00     0.183 A 
HETATM    8  N   UNK N   1      27.839  18.542   8.679  0.00  0.00    -0.338 N 
ATOM      9  HN  UNK N   1      26.968  18.909   9.059  1.00  0.00     0.168 HD
HETATM   10  C   UNK N   1      27.975  18.418   7.326  0.00  0.00     0.116 A 
HETATM   11  C   UNK N   1      29.191  17.924   6.814  0.00  0.00     0.077 A 
HETATM   12  C   UNK N   1      29.770  17.653   5.554  0.00  0.00     0.048 A 
ENDROOT
BRANCH  12  13
HETATM   13  C   UNK N   1      29.293  17.818   4.128  0.00  0.00     0.098 C 
BRANCH  13  14
HETATM   14  C   UNK N   1      28.559  16.726   3.438  0.00  0.00    -0.052 A 
HETATM   15  C   UNK N   1      27.159  16.670   3.463  0.00  0.00     0.014 A 
HETATM   16  C   UNK N   1      26.493  15.632   2.801  0.00  0.00    -0.061 A 
HETATM   17  C   UNK N   1      27.220  14.679   2.079  0.00  0.00     0.007 A 
HETATM   18  C   UNK N   1      25.016  15.520   2.899  0.00  0.00     0.048 C 
HETATM   19  C   UNK N   1      28.613  14.765   2.016  0.00  0.00     0.001 A 
HETATM   20  C   UNK N   1      29.282  15.784   2.697  0.00  0.00     0.007 A 
ENDBRANCH  13  14
ENDBRANCH  12  13
BRANCH   1  21
HETATM   21  C   UNK N   1      32.449  16.514   7.680  0.00  0.00     0.044 C 
HETATM   22  C   UNK N   1      33.375  16.005   6.589  0.00  0.00     0.039 C 
HETATM   23  C   UNK N   1      33.196  17.571   8.479  0.00  0.00     0.039 C 
HETATM   24  C   UNK N   1      32.103  15.369   8.615  0.00  0.00     0.039 C 
ENDBRANCH   1  21
BRANCH  10  25
HETATM   25  N   UNK N   1      26.886  18.747   6.505  0.00  0.00    -0.385 N 
HETATM   26  H   UNK N   1      25.983  18.826   6.888  0.00  0.00     0.157 HD
HETATM   27  H   UNK N   1      27.027  18.899   5.542  0.00  0.00     0.157 HD
ENDBRANCH  10  25
TORSDOF 4
ENDMDL
