REMARK  4 active torsions:
REMARK  status: ('A' for Active; 'I' for Inactive)
REMARK    1  A    between atoms: C_2  and  N_5 
REMARK    2  A    between atoms: C_14  and  N_15 
REMARK    3  A    between atoms: C_17  and  C_18 
REMARK    4  A    between atoms: C_18  and  C_19 
ROOT
HETATM    1  N   UNK N   1      -1.116   2.285   0.202  0.00  0.00    -0.267 N 
HETATM    2  N   UNK N   1      -1.802   1.164   0.368  0.00  0.00    -0.299 N 
ATOM      3  HN  UNK N   1      -2.800   1.106   0.573  1.00  0.00     0.187 HD
HETATM    4  C   UNK N   1       0.167   1.969  -0.036  0.00  0.00     0.140 A 
HETATM    5  N   UNK N   1       1.183   2.839  -0.240  0.00  0.00    -0.336 N 
ATOM      6  HN  UNK N   1       1.018   3.846  -0.224  1.00  0.00     0.168 HD
HETATM    7  C   UNK N   1       2.429   2.342  -0.469  0.00  0.00     0.183 A 
HETATM    8  N   UNK N   1       2.632   0.992  -0.522  0.00  0.00    -0.338 N 
ATOM      9  HN  UNK N   1       3.569   0.638  -0.712  1.00  0.00     0.168 HD
HETATM   10  C   UNK N   1       1.612   0.105  -0.329  0.00  0.00     0.116 A 
HETATM   11  C   UNK N   1       0.326   0.609  -0.052  0.00  0.00     0.077 A 
HETATM   12  C   UNK N   1      -0.966   0.106   0.222  0.00  0.00     0.048 A 
ENDROOT
BRANCH  12  13
HETATM   13  C   UNK N   1      -1.534  -1.288   0.366  0.00  0.00     0.098 C 
BRANCH  13  14
HETATM   14  C   UNK N   1      -0.657  -2.484   0.265  0.00  0.00    -0.052 A 
HETATM   15  C   UNK N   1       0.322  -2.744   1.232  0.00  0.00     0.014 A 
HETATM   16  C   UNK N   1       1.132  -3.879   1.114  0.00  0.00    -0.061 A 
HETATM   17  C   UNK N   1       0.934  -4.775   0.058  0.00  0.00     0.007 A 
HETATM   18  C   UNK N   1       2.228  -4.111   2.088  0.00  0.00     0.048 C 
HETATM   19  C   UNK N   1      -0.075  -4.539  -0.879  0.00  0.00     0.001 A 
HETATM   20  C   UNK N   1      -0.867  -3.393  -0.778  0.00  0.00     0.007 A 
ENDBRANCH  13  14
ENDBRANCH  12  13
BRANCH   1  21
HETATM   21  C   UNK N   1      -1.704   3.634   0.236  0.00  0.00     0.044 C 
HETATM   22  C   UNK N   1      -1.612   4.263  -1.143  0.00  0.00     0.039 C 
HETATM   23  C   UNK N   1      -3.170   3.584   0.636  0.00  0.00     0.039 C 
HETATM   24  C   UNK N   1      -0.970   4.512   1.234  0.00  0.00     0.039 C 
ENDBRANCH   1  21
BRANCH  10  25
HETATM   25  N   UNK N   1       1.876  -1.266  -0.456  0.00  0.00    -0.385 N 
HETATM   26  H   UNK N   1       1.135  -1.908  -0.546  0.00  0.00     0.157 HD
HETATM   27  H   UNK N   1       2.807  -1.588  -0.456  0.00  0.00     0.157 HD
ENDBRANCH  10  25
TORSDOF 4
