REMARK  5 active torsions:
REMARK  status: ('A' for Active; 'I' for Inactive)
REMARK    1  A    between atoms: C_7  and  N_8 
REMARK    2  A    between atoms: C_22  and  N_23 
REMARK    3  A    between atoms: N_23  and  C_24 
REMARK    4  A    between atoms: C_24  and  C_25 
REMARK    5  A    between atoms: C_25  and  O_26 
ROOT
HETATM    1  N   UNK N   1      -0.795  -1.427  -0.103  0.00  0.00    -0.244 N 
HETATM    2  C   UNK N   1      -0.827  -0.028   0.018  0.00  0.00     0.266 A 
HETATM    3  O   UNK N   1      -1.889   0.566   0.105  0.00  0.00    -0.267 OA
HETATM    4  C   UNK N   1       0.448  -2.063  -0.201  0.00  0.00     0.266 A 
HETATM    5  O   UNK N   1       0.522  -3.276  -0.334  0.00  0.00    -0.267 OA
HETATM    6  C   UNK N   1       1.641  -1.334  -0.158  0.00  0.00     0.045 A 
HETATM    7  C   UNK N   1       2.880  -1.989  -0.245  0.00  0.00     0.018 A 
HETATM    8  C   UNK N   1       4.070  -1.267  -0.196  0.00  0.00     0.002 A 
HETATM    9  C   UNK N   1       4.037   0.119  -0.065  0.00  0.00     0.014 A 
HETATM   10  C   UNK N   1       2.811   0.794   0.021  0.00  0.00     0.003 A 
HETATM   11  C   UNK N   1       1.603   0.060  -0.024  0.00  0.00     0.008 A 
HETATM   12  C   UNK N   1       0.370   0.719   0.059  0.00  0.00     0.045 A 
HETATM   13  C   UNK N   1       0.351   2.121   0.189  0.00  0.00     0.020 A 
HETATM   14  C   UNK N   1       1.547   2.851   0.225  0.00  0.00     0.031 A 
HETATM   15  C   UNK N   1       2.783   2.190   0.140  0.00  0.00     0.039 A 
ENDROOT
BRANCH   1  16
HETATM   16  C   UNK N   1      -2.039  -2.222  -0.106  0.00  0.00     0.047 A 
HETATM   17  C   UNK N   1      -1.999  -3.628  -0.004  0.00  0.00     0.049 A 
HETATM   18  C   UNK N   1      -3.159  -4.397   0.033  0.00  0.00     0.013 A 
HETATM   19 Br   UNK N   1      -3.024  -6.291   0.201  0.00  0.00    -0.051 Br
HETATM   20  C   UNK N   1      -4.405  -3.778  -0.034  0.00  0.00     0.019 A 
HETATM   21  C   UNK N   1      -4.481  -2.387  -0.139  0.00  0.00     0.004 A 
HETATM   22  C   UNK N   1      -3.312  -1.618  -0.168  0.00  0.00     0.030 A 
ENDBRANCH   1  16
BRANCH  15  23
HETATM   23  N   UNK N   1       4.009   2.906   0.147  0.00  0.00    -0.387 N 
HETATM   24  H   UNK N   1       4.845   2.386   0.123  0.00  0.00     0.159 HD
BRANCH  23  25
HETATM   25  C   UNK N   1       4.110   4.339   0.187  0.00  0.00     0.146 C 
BRANCH  25  26
HETATM   26  C   UNK N   1       5.573   4.706   0.032  0.00  0.00     0.183 C 
BRANCH  26  27
HETATM   27  O   UNK N   1       5.746   6.072   0.236  0.00  0.00    -0.399 OA
HETATM   28  H   UNK N   1       6.631   6.443   0.379  0.00  0.00     0.209 HD
ENDBRANCH  26  27
ENDBRANCH  25  26
ENDBRANCH  23  25
ENDBRANCH  15  23
TORSDOF 5
