MODEL 1
REMARK VINA RESULT:      -7.6      0.000      0.000
REMARK  5 active torsions:
REMARK  status: ('A' for Active; 'I' for Inactive)
REMARK    1  A    between atoms: C_7  and  N_8 
REMARK    2  A    between atoms: C_22  and  N_23 
REMARK    3  A    between atoms: N_23  and  C_24 
REMARK    4  A    between atoms: C_24  and  C_25 
REMARK    5  A    between atoms: C_25  and  O_26 
ROOT
HETATM    1  N   UNK N   1      27.699  18.375   5.130  0.00  0.00    -0.244 N 
HETATM    2  C   UNK N   1      28.100  18.812   6.403  0.00  0.00     0.266 A 
HETATM    3  O   UNK N   1      27.480  19.688   6.984  0.00  0.00    -0.267 OA
HETATM    4  C   UNK N   1      28.443  17.368   4.503  0.00  0.00     0.266 A 
HETATM    5  O   UNK N   1      28.146  16.975   3.384  0.00  0.00    -0.267 OA
HETATM    6  C   UNK N   1      29.550  16.787   5.130  0.00  0.00     0.045 A 
HETATM    7  C   UNK N   1      30.278  15.769   4.491  0.00  0.00     0.018 A 
HETATM    8  C   UNK N   1      31.377  15.184   5.115  0.00  0.00     0.002 A 
HETATM    9  C   UNK N   1      31.766  15.611   6.382  0.00  0.00     0.014 A 
HETATM   10  C   UNK N   1      31.055  16.628   7.037  0.00  0.00     0.003 A 
HETATM   11  C   UNK N   1      29.937  17.219   6.405  0.00  0.00     0.008 A 
HETATM   12  C   UNK N   1      29.217  18.236   7.044  0.00  0.00     0.045 A 
HETATM   13  C   UNK N   1      29.623  18.660   8.324  0.00  0.00     0.020 A 
HETATM   14  C   UNK N   1      30.737  18.082   8.949  0.00  0.00     0.031 A 
HETATM   15  C   UNK N   1      31.459  17.063   8.306  0.00  0.00     0.039 A 
ENDROOT
BRANCH   1  16
HETATM   16  C   UNK N   1      26.508  18.942   4.467  0.00  0.00     0.047 A 
HETATM   17  C   UNK N   1      25.222  18.424   4.725  0.00  0.00     0.049 A 
HETATM   18  C   UNK N   1      24.080  18.966   4.141  0.00  0.00     0.013 A 
HETATM   19 Br   UNK N   1      22.373  18.230   4.562  0.00  0.00    -0.051 Br
HETATM   20  C   UNK N   1      24.191  20.049   3.272  0.00  0.00     0.019 A 
HETATM   21  C   UNK N   1      25.450  20.584   2.991  0.00  0.00     0.004 A 
HETATM   22  C   UNK N   1      26.595  20.041   3.587  0.00  0.00     0.030 A 
ENDBRANCH   1  16
BRANCH  15  23
HETATM   23  N   UNK N   1      32.606  16.478   8.903  0.00  0.00    -0.387 N 
HETATM   24  H   UNK N   1      32.567  15.521   9.133  0.00  0.00     0.159 HD
BRANCH  23  25
HETATM   25  C   UNK N   1      33.820  17.190   9.195  0.00  0.00     0.146 C 
BRANCH  25  26
HETATM   26  C   UNK N   1      34.183  18.008   7.971  0.00  0.00     0.183 C 
BRANCH  26  27
HETATM   27  O   UNK N   1      34.964  19.100   8.342  0.00  0.00    -0.399 OA
HETATM   28  H   UNK N   1      35.926  19.085   8.219  0.00  0.00     0.209 HD
ENDBRANCH  26  27
ENDBRANCH  25  26
ENDBRANCH  23  25
ENDBRANCH  15  23
TORSDOF 5
ENDMDL
MODEL 2
REMARK VINA RESULT:      -7.5      0.892      2.709
REMARK  5 active torsions:
REMARK  status: ('A' for Active; 'I' for Inactive)
REMARK    1  A    between atoms: C_7  and  N_8 
REMARK    2  A    between atoms: C_22  and  N_23 
REMARK    3  A    between atoms: N_23  and  C_24 
REMARK    4  A    between atoms: C_24  and  C_25 
REMARK    5  A    between atoms: C_25  and  O_26 
ROOT
HETATM    1  N   UNK N   1      27.496  18.574   5.156  0.00  0.00    -0.244 N 
HETATM    2  C   UNK N   1      28.314  17.563   4.625  0.00  0.00     0.266 A 
HETATM    3  O   UNK N   1      28.131  17.145   3.493  0.00  0.00    -0.267 OA
HETATM    4  C   UNK N   1      27.743  19.020   6.460  0.00  0.00     0.266 A 
HETATM    5  O   UNK N   1      27.041  19.880   6.971  0.00  0.00    -0.267 OA
HETATM    6  C   UNK N   1      28.794  18.494   7.219  0.00  0.00     0.045 A 
HETATM    7  C   UNK N   1      29.036  18.962   8.520  0.00  0.00     0.018 A 
HETATM    8  C   UNK N   1      30.085  18.445   9.277  0.00  0.00     0.002 A 
HETATM    9  C   UNK N   1      30.902  17.451   8.745  0.00  0.00     0.014 A 
HETATM   10  C   UNK N   1      30.676  16.967   7.448  0.00  0.00     0.003 A 
HETATM   11  C   UNK N   1      29.614  17.495   6.679  0.00  0.00     0.008 A 
HETATM   12  C   UNK N   1      29.374  17.022   5.382  0.00  0.00     0.045 A 
HETATM   13  C   UNK N   1      30.206  16.015   4.857  0.00  0.00     0.020 A 
HETATM   14  C   UNK N   1      31.254  15.484   5.622  0.00  0.00     0.031 A 
HETATM   15  C   UNK N   1      31.493  15.957   6.922  0.00  0.00     0.039 A 
ENDROOT
BRANCH   1  16
HETATM   16  C   UNK N   1      26.409  19.176   4.358  0.00  0.00     0.047 A 
HETATM   17  C   UNK N   1      25.080  18.722   4.487  0.00  0.00     0.049 A 
HETATM   18  C   UNK N   1      24.033  19.298   3.774  0.00  0.00     0.013 A 
HETATM   19 Br   UNK N   1      22.258  18.648   4.024  0.00  0.00    -0.051 Br
HETATM   20  C   UNK N   1      24.285  20.353   2.901  0.00  0.00     0.019 A 
HETATM   21  C   UNK N   1      25.590  20.826   2.746  0.00  0.00     0.004 A 
HETATM   22  C   UNK N   1      26.639  20.248   3.471  0.00  0.00     0.030 A 
ENDBRANCH   1  16
BRANCH  15  23
HETATM   23  N   UNK N   1      32.530  15.419   7.728  0.00  0.00    -0.387 N 
HETATM   24  H   UNK N   1      32.274  14.960   8.561  0.00  0.00     0.159 HD
BRANCH  23  25
HETATM   25  C   UNK N   1      33.929  15.501   7.410  0.00  0.00     0.146 C 
BRANCH  25  26
HETATM   26  C   UNK N   1      34.403  16.900   7.754  0.00  0.00     0.183 C 
BRANCH  26  27
HETATM   27  O   UNK N   1      34.538  17.656   6.593  0.00  0.00    -0.399 OA
HETATM   28  H   UNK N   1      34.071  17.403   5.781  0.00  0.00     0.209 HD
ENDBRANCH  26  27
ENDBRANCH  25  26
ENDBRANCH  23  25
ENDBRANCH  15  23
TORSDOF 5
ENDMDL
MODEL 3
REMARK VINA RESULT:      -7.4      3.463      8.309
REMARK  5 active torsions:
REMARK  status: ('A' for Active; 'I' for Inactive)
REMARK    1  A    between atoms: C_7  and  N_8 
REMARK    2  A    between atoms: C_22  and  N_23 
REMARK    3  A    between atoms: N_23  and  C_24 
REMARK    4  A    between atoms: C_24  and  C_25 
REMARK    5  A    between atoms: C_25  and  O_26 
ROOT
HETATM    1  N   UNK N   1      27.821  17.728   5.366  0.00  0.00    -0.244 N 
HETATM    2  C   UNK N   1      27.417  18.932   4.765  0.00  0.00     0.266 A 
HETATM    3  O   UNK N   1      28.215  19.836   4.581  0.00  0.00    -0.267 OA
HETATM    4  C   UNK N   1      26.868  16.721   5.556  0.00  0.00     0.266 A 
HETATM    5  O   UNK N   1      27.169  15.668   6.099  0.00  0.00    -0.267 OA
HETATM    6  C   UNK N   1      25.543  16.889   5.141  0.00  0.00     0.045 A 
HETATM    7  C   UNK N   1      24.602  15.864   5.328  0.00  0.00     0.018 A 
HETATM    8  C   UNK N   1      23.283  16.025   4.910  0.00  0.00     0.002 A 
HETATM    9  C   UNK N   1      22.886  17.214   4.304  0.00  0.00     0.014 A 
HETATM   10  C   UNK N   1      23.809  18.253   4.109  0.00  0.00     0.003 A 
HETATM   11  C   UNK N   1      25.149  18.087   4.530  0.00  0.00     0.008 A 
HETATM   12  C   UNK N   1      26.082  19.115   4.345  0.00  0.00     0.045 A 
HETATM   13  C   UNK N   1      25.667  20.313   3.733  0.00  0.00     0.020 A 
HETATM   14  C   UNK N   1      24.337  20.483   3.323  0.00  0.00     0.031 A 
HETATM   15  C   UNK N   1      23.401  19.453   3.511  0.00  0.00     0.039 A 
ENDROOT
BRANCH   1  16
HETATM   16  C   UNK N   1      29.223  17.511   5.772  0.00  0.00     0.047 A 
HETATM   17  C   UNK N   1      30.231  17.297   4.809  0.00  0.00     0.049 A 
HETATM   18  C   UNK N   1      31.566  17.127   5.165  0.00  0.00     0.013 A 
HETATM   19 Br   UNK N   1      32.874  16.870   3.802  0.00  0.00    -0.051 Br
HETATM   20  C   UNK N   1      31.937  17.163   6.507  0.00  0.00     0.019 A 
HETATM   21  C   UNK N   1      30.964  17.369   7.488  0.00  0.00     0.004 A 
HETATM   22  C   UNK N   1      29.624  17.548   7.124  0.00  0.00     0.030 A 
ENDBRANCH   1  16
BRANCH  15  23
HETATM   23  N   UNK N   1      22.042  19.607   3.130  0.00  0.00    -0.387 N 
HETATM   24  H   UNK N   1      21.389  18.964   3.490  0.00  0.00     0.159 HD
BRANCH  23  25
HETATM   25  C   UNK N   1      21.558  20.638   2.255  0.00  0.00     0.146 C 
BRANCH  25  26
HETATM   26  C   UNK N   1      20.646  19.989   1.232  0.00  0.00     0.183 C 
BRANCH  26  27
HETATM   27  O   UNK N   1      20.754  20.648   0.011  0.00  0.00    -0.399 OA
HETATM   28  H   UNK N   1      20.926  21.602  -0.023  0.00  0.00     0.209 HD
ENDBRANCH  26  27
ENDBRANCH  25  26
ENDBRANCH  23  25
ENDBRANCH  15  23
TORSDOF 5
ENDMDL
MODEL 4
REMARK VINA RESULT:      -7.3     11.190     12.442
REMARK  5 active torsions:
REMARK  status: ('A' for Active; 'I' for Inactive)
REMARK    1  A    between atoms: C_7  and  N_8 
REMARK    2  A    between atoms: C_22  and  N_23 
REMARK    3  A    between atoms: N_23  and  C_24 
REMARK    4  A    between atoms: C_24  and  C_25 
REMARK    5  A    between atoms: C_25  and  O_26 
ROOT
HETATM    1  N   UNK N   1      28.782  24.448  -4.715  0.00  0.00    -0.244 N 
HETATM    2  C   UNK N   1      29.805  24.129  -3.807  0.00  0.00     0.266 A 
HETATM    3  O   UNK N   1      30.067  24.873  -2.877  0.00  0.00    -0.267 OA
HETATM    4  C   UNK N   1      28.519  23.563  -5.767  0.00  0.00     0.266 A 
HETATM    5  O   UNK N   1      27.655  23.814  -6.595  0.00  0.00    -0.267 OA
HETATM    6  C   UNK N   1      29.238  22.372  -5.909  0.00  0.00     0.045 A 
HETATM    7  C   UNK N   1      28.953  21.489  -6.963  0.00  0.00     0.018 A 
HETATM    8  C   UNK N   1      29.662  20.298  -7.103  0.00  0.00     0.002 A 
HETATM    9  C   UNK N   1      30.668  19.978  -6.196  0.00  0.00     0.014 A 
HETATM   10  C   UNK N   1      30.972  20.846  -5.138  0.00  0.00     0.003 A 
HETATM   11  C   UNK N   1      30.248  22.052  -4.992  0.00  0.00     0.008 A 
HETATM   12  C   UNK N   1      30.540  22.931  -3.942  0.00  0.00     0.045 A 
HETATM   13  C   UNK N   1      31.561  22.596  -3.033  0.00  0.00     0.020 A 
HETATM   14  C   UNK N   1      32.286  21.405  -3.180  0.00  0.00     0.031 A 
HETATM   15  C   UNK N   1      31.994  20.525  -4.235  0.00  0.00     0.039 A 
ENDROOT
BRANCH   1  16
HETATM   16  C   UNK N   1      27.980  25.678  -4.560  0.00  0.00     0.047 A 
HETATM   17  C   UNK N   1      28.357  26.874  -5.206  0.00  0.00     0.049 A 
HETATM   18  C   UNK N   1      27.598  28.036  -5.106  0.00  0.00     0.013 A 
HETATM   19 Br   UNK N   1      28.158  29.605  -6.032  0.00  0.00    -0.051 Br
HETATM   20  C   UNK N   1      26.429  28.039  -4.349  0.00  0.00     0.019 A 
HETATM   21  C   UNK N   1      26.027  26.873  -3.693  0.00  0.00     0.004 A 
HETATM   22  C   UNK N   1      26.790  25.705  -3.803  0.00  0.00     0.030 A 
ENDBRANCH   1  16
BRANCH  15  23
HETATM   23  N   UNK N   1      32.729  19.325  -4.424  0.00  0.00    -0.387 N 
HETATM   24  H   UNK N   1      32.256  18.553  -4.811  0.00  0.00     0.159 HD
BRANCH  23  25
HETATM   25  C   UNK N   1      34.117  19.163  -4.088  0.00  0.00     0.146 C 
BRANCH  25  26
HETATM   26  C   UNK N   1      34.465  17.696  -4.244  0.00  0.00     0.183 C 
BRANCH  26  27
HETATM   27  O   UNK N   1      33.993  16.975  -3.150  0.00  0.00    -0.399 OA
HETATM   28  H   UNK N   1      34.523  16.898  -2.342  0.00  0.00     0.209 HD
ENDBRANCH  26  27
ENDBRANCH  25  26
ENDBRANCH  23  25
ENDBRANCH  15  23
TORSDOF 5
ENDMDL
MODEL 5
REMARK VINA RESULT:      -7.2     11.537     14.847
REMARK  5 active torsions:
REMARK  status: ('A' for Active; 'I' for Inactive)
REMARK    1  A    between atoms: C_7  and  N_8 
REMARK    2  A    between atoms: C_22  and  N_23 
REMARK    3  A    between atoms: N_23  and  C_24 
REMARK    4  A    between atoms: C_24  and  C_25 
REMARK    5  A    between atoms: C_25  and  O_26 
ROOT
HETATM    1  N   UNK N   1      35.124  10.965  14.767  0.00  0.00    -0.244 N 
HETATM    2  C   UNK N   1      35.206   9.827  15.586  0.00  0.00     0.266 A 
HETATM    3  O   UNK N   1      35.254   8.710  15.099  0.00  0.00    -0.267 OA
HETATM    4  C   UNK N   1      35.069  12.225  15.373  0.00  0.00     0.266 A 
HETATM    5  O   UNK N   1      34.971  13.240  14.699  0.00  0.00    -0.267 OA
HETATM    6  C   UNK N   1      35.116  12.363  16.764  0.00  0.00     0.045 A 
HETATM    7  C   UNK N   1      35.073  13.636  17.356  0.00  0.00     0.018 A 
HETATM    8  C   UNK N   1      35.126  13.778  18.740  0.00  0.00     0.002 A 
HETATM    9  C   UNK N   1      35.218  12.650  19.551  0.00  0.00     0.014 A 
HETATM   10  C   UNK N   1      35.260  11.369  18.982  0.00  0.00     0.003 A 
HETATM   11  C   UNK N   1      35.211  11.225  17.576  0.00  0.00     0.008 A 
HETATM   12  C   UNK N   1      35.250   9.953  16.992  0.00  0.00     0.045 A 
HETATM   13  C   UNK N   1      35.341   8.821  17.823  0.00  0.00     0.020 A 
HETATM   14  C   UNK N   1      35.382   8.960  19.218  0.00  0.00     0.031 A 
HETATM   15  C   UNK N   1      35.340  10.236  19.803  0.00  0.00     0.039 A 
ENDROOT
BRANCH   1  16
HETATM   16  C   UNK N   1      35.117  10.847  13.295  0.00  0.00     0.047 A 
HETATM   17  C   UNK N   1      36.289  11.079  12.546  0.00  0.00     0.049 A 
HETATM   18  C   UNK N   1      36.318  10.938  11.161  0.00  0.00     0.013 A 
HETATM   19 Br   UNK N   1      37.948  11.242  10.220  0.00  0.00    -0.051 Br
HETATM   20  C   UNK N   1      35.165  10.559  10.477  0.00  0.00     0.019 A 
HETATM   21  C   UNK N   1      33.986  10.324  11.188  0.00  0.00     0.004 A 
HETATM   22  C   UNK N   1      33.964  10.460  12.581  0.00  0.00     0.030 A 
ENDBRANCH   1  16
BRANCH  15  23
HETATM   23  N   UNK N   1      35.353  10.406  21.213  0.00  0.00    -0.387 N 
HETATM   24  H   UNK N   1      36.002  11.040  21.593  0.00  0.00     0.159 HD
BRANCH  23  25
HETATM   25  C   UNK N   1      34.480   9.713  22.120  0.00  0.00     0.146 C 
BRANCH  25  26
HETATM   26  C   UNK N   1      33.087  10.289  21.956  0.00  0.00     0.183 C 
BRANCH  26  27
HETATM   27  O   UNK N   1      33.060  11.606  22.405  0.00  0.00    -0.399 OA
HETATM   28  H   UNK N   1      33.884  12.080  22.600  0.00  0.00     0.209 HD
ENDBRANCH  26  27
ENDBRANCH  25  26
ENDBRANCH  23  25
ENDBRANCH  15  23
TORSDOF 5
ENDMDL
MODEL 6
REMARK VINA RESULT:      -7.2      1.676      2.098
REMARK  5 active torsions:
REMARK  status: ('A' for Active; 'I' for Inactive)
REMARK    1  A    between atoms: C_7  and  N_8 
REMARK    2  A    between atoms: C_22  and  N_23 
REMARK    3  A    between atoms: N_23  and  C_24 
REMARK    4  A    between atoms: C_24  and  C_25 
REMARK    5  A    between atoms: C_25  and  O_26 
ROOT
HETATM    1  N   UNK N   1      28.369  17.432   5.199  0.00  0.00    -0.244 N 
HETATM    2  C   UNK N   1      28.766  17.623   6.532  0.00  0.00     0.266 A 
HETATM    3  O   UNK N   1      27.942  17.857   7.401  0.00  0.00    -0.267 OA
HETATM    4  C   UNK N   1      29.353  17.169   4.238  0.00  0.00     0.266 A 
HETATM    5  O   UNK N   1      29.055  17.022   3.061  0.00  0.00    -0.267 OA
HETATM    6  C   UNK N   1      30.703  17.073   4.589  0.00  0.00     0.045 A 
HETATM    7  C   UNK N   1      31.675  16.795   3.615  0.00  0.00     0.018 A 
HETATM    8  C   UNK N   1      33.020  16.692   3.963  0.00  0.00     0.002 A 
HETATM    9  C   UNK N   1      33.411  16.871   5.287  0.00  0.00     0.014 A 
HETATM   10  C   UNK N   1      32.457  17.152   6.276  0.00  0.00     0.003 A 
HETATM   11  C   UNK N   1      31.091  17.251   5.924  0.00  0.00     0.008 A 
HETATM   12  C   UNK N   1      30.127  17.532   6.899  0.00  0.00     0.045 A 
HETATM   13  C   UNK N   1      30.536  17.713   8.234  0.00  0.00     0.020 A 
HETATM   14  C   UNK N   1      31.890  17.623   8.584  0.00  0.00     0.031 A 
HETATM   15  C   UNK N   1      32.857  17.343   7.605  0.00  0.00     0.039 A 
ENDROOT
BRANCH   1  16
HETATM   16  C   UNK N   1      26.946  17.485   4.810  0.00  0.00     0.047 A 
HETATM   17  C   UNK N   1      26.381  18.669   4.293  0.00  0.00     0.049 A 
HETATM   18  C   UNK N   1      25.051  18.733   3.885  0.00  0.00     0.013 A 
HETATM   19 Br   UNK N   1      24.367  20.361   3.168  0.00  0.00    -0.051 Br
HETATM   20  C   UNK N   1      24.239  17.606   3.986  0.00  0.00     0.019 A 
HETATM   21  C   UNK N   1      24.766  16.417   4.497  0.00  0.00     0.004 A 
HETATM   22  C   UNK N   1      26.105  16.356   4.899  0.00  0.00     0.030 A 
ENDBRANCH   1  16
BRANCH  15  23
HETATM   23  N   UNK N   1      34.239  17.273   7.927  0.00  0.00    -0.387 N 
HETATM   24  H   UNK N   1      34.809  18.035   7.674  0.00  0.00     0.159 HD
BRANCH  23  25
HETATM   25  C   UNK N   1      34.859  16.163   8.596  0.00  0.00     0.146 C 
BRANCH  25  26
HETATM   26  C   UNK N   1      35.103  16.566  10.037  0.00  0.00     0.183 C 
BRANCH  26  27
HETATM   27  O   UNK N   1      35.628  17.854  10.089  0.00  0.00    -0.399 OA
HETATM   28  H   UNK N   1      36.493  18.020  10.496  0.00  0.00     0.209 HD
ENDBRANCH  26  27
ENDBRANCH  25  26
ENDBRANCH  23  25
ENDBRANCH  15  23
TORSDOF 5
ENDMDL
MODEL 7
REMARK VINA RESULT:      -7.0      3.809      8.156
REMARK  5 active torsions:
REMARK  status: ('A' for Active; 'I' for Inactive)
REMARK    1  A    between atoms: C_7  and  N_8 
REMARK    2  A    between atoms: C_22  and  N_23 
REMARK    3  A    between atoms: N_23  and  C_24 
REMARK    4  A    between atoms: C_24  and  C_25 
REMARK    5  A    between atoms: C_25  and  O_26 
ROOT
HETATM    1  N   UNK N   1      33.245  16.114   8.122  0.00  0.00    -0.244 N 
HETATM    2  C   UNK N   1      31.875  16.369   8.292  0.00  0.00     0.266 A 
HETATM    3  O   UNK N   1      31.359  16.296   9.395  0.00  0.00    -0.267 OA
HETATM    4  C   UNK N   1      33.791  16.210   6.837  0.00  0.00     0.266 A 
HETATM    5  O   UNK N   1      34.974  15.971   6.639  0.00  0.00    -0.267 OA
HETATM    6  C   UNK N   1      33.003  16.574   5.740  0.00  0.00     0.045 A 
HETATM    7  C   UNK N   1      33.570  16.678   4.459  0.00  0.00     0.018 A 
HETATM    8  C   UNK N   1      32.790  17.046   3.366  0.00  0.00     0.002 A 
HETATM    9  C   UNK N   1      31.433  17.310   3.537  0.00  0.00     0.014 A 
HETATM   10  C   UNK N   1      30.846  17.210   4.807  0.00  0.00     0.003 A 
HETATM   11  C   UNK N   1      31.640  16.840   5.918  0.00  0.00     0.008 A 
HETATM   12  C   UNK N   1      31.069  16.734   7.192  0.00  0.00     0.045 A 
HETATM   13  C   UNK N   1      29.695  17.001   7.351  0.00  0.00     0.020 A 
HETATM   14  C   UNK N   1      28.905  17.359   6.250  0.00  0.00     0.031 A 
HETATM   15  C   UNK N   1      29.478  17.464   4.972  0.00  0.00     0.039 A 
ENDROOT
BRANCH   1  16
HETATM   16  C   UNK N   1      34.106  15.772   9.272  0.00  0.00     0.047 A 
HETATM   17  C   UNK N   1      34.216  14.440   9.722  0.00  0.00     0.049 A 
HETATM   18  C   UNK N   1      35.049  14.086  10.780  0.00  0.00     0.013 A 
HETATM   19 Br   UNK N   1      35.165  12.260  11.313  0.00  0.00    -0.051 Br
HETATM   20  C   UNK N   1      35.804  15.063  11.426  0.00  0.00     0.019 A 
HETATM   21  C   UNK N   1      35.717  16.393  11.008  0.00  0.00     0.004 A 
HETATM   22  C   UNK N   1      34.883  16.742   9.939  0.00  0.00     0.030 A 
ENDBRANCH   1  16
BRANCH  15  23
HETATM   23  N   UNK N   1      28.697  17.798   3.834  0.00  0.00    -0.387 N 
HETATM   24  H   UNK N   1      29.167  18.133   3.036  0.00  0.00     0.159 HD
BRANCH  23  25
HETATM   25  C   UNK N   1      27.266  17.679   3.771  0.00  0.00     0.146 C 
BRANCH  25  26
HETATM   26  C   UNK N   1      26.678  19.071   3.900  0.00  0.00     0.183 C 
BRANCH  26  27
HETATM   27  O   UNK N   1      27.608  20.021   3.488  0.00  0.00    -0.399 OA
HETATM   28  H   UNK N   1      27.387  20.966   3.493  0.00  0.00     0.209 HD
ENDBRANCH  26  27
ENDBRANCH  25  26
ENDBRANCH  23  25
ENDBRANCH  15  23
TORSDOF 5
ENDMDL
MODEL 8
REMARK VINA RESULT:      -6.9      4.663      7.157
REMARK  5 active torsions:
REMARK  status: ('A' for Active; 'I' for Inactive)
REMARK    1  A    between atoms: C_7  and  N_8 
REMARK    2  A    between atoms: C_22  and  N_23 
REMARK    3  A    between atoms: N_23  and  C_24 
REMARK    4  A    between atoms: C_24  and  C_25 
REMARK    5  A    between atoms: C_25  and  O_26 
ROOT
HETATM    1  N   UNK N   1      32.916  15.496   8.126  0.00  0.00    -0.244 N 
HETATM    2  C   UNK N   1      33.684  16.269   9.013  0.00  0.00     0.266 A 
HETATM    3  O   UNK N   1      33.679  17.487   8.943  0.00  0.00    -0.267 OA
HETATM    4  C   UNK N   1      32.955  14.102   8.245  0.00  0.00     0.266 A 
HETATM    5  O   UNK N   1      32.323  13.390   7.478  0.00  0.00    -0.267 OA
HETATM    6  C   UNK N   1      33.722  13.480   9.236  0.00  0.00     0.045 A 
HETATM    7  C   UNK N   1      33.740  12.081   9.349  0.00  0.00     0.018 A 
HETATM    8  C   UNK N   1      34.497  11.458  10.339  0.00  0.00     0.002 A 
HETATM    9  C   UNK N   1      35.250  12.226  11.224  0.00  0.00     0.014 A 
HETATM   10  C   UNK N   1      35.248  13.625  11.128  0.00  0.00     0.003 A 
HETATM   11  C   UNK N   1      34.476  14.257  10.126  0.00  0.00     0.008 A 
HETATM   12  C   UNK N   1      34.464  15.653  10.015  0.00  0.00     0.045 A 
HETATM   13  C   UNK N   1      35.232  16.417  10.915  0.00  0.00     0.020 A 
HETATM   14  C   UNK N   1      36.005  15.792  11.903  0.00  0.00     0.031 A 
HETATM   15  C   UNK N   1      36.017  14.392  12.013  0.00  0.00     0.039 A 
ENDROOT
BRANCH   1  16
HETATM   16  C   UNK N   1      32.064  16.131   7.101  0.00  0.00     0.047 A 
HETATM   17  C   UNK N   1      32.518  16.278   5.774  0.00  0.00     0.049 A 
HETATM   18  C   UNK N   1      31.720  16.839   4.781  0.00  0.00     0.013 A 
HETATM   19 Br   UNK N   1      32.393  16.977   3.003  0.00  0.00    -0.051 Br
HETATM   20  C   UNK N   1      30.433  17.277   5.088  0.00  0.00     0.019 A 
HETATM   21  C   UNK N   1      29.953  17.149   6.394  0.00  0.00     0.004 A 
HETATM   22  C   UNK N   1      30.757  16.578   7.387  0.00  0.00     0.030 A 
ENDBRANCH   1  16
BRANCH  15  23
HETATM   23  N   UNK N   1      36.812  13.731  12.986  0.00  0.00    -0.387 N 
HETATM   24  H   UNK N   1      37.536  13.145  12.668  0.00  0.00     0.159 HD
BRANCH  23  25
HETATM   25  C   UNK N   1      36.629  13.862  14.406  0.00  0.00     0.146 C 
BRANCH  25  26
HETATM   26  C   UNK N   1      35.740  12.724  14.866  0.00  0.00     0.183 C 
BRANCH  26  27
HETATM   27  O   UNK N   1      34.425  13.164  14.986  0.00  0.00    -0.399 OA
HETATM   28  H   UNK N   1      34.008  13.677  14.276  0.00  0.00     0.209 HD
ENDBRANCH  26  27
ENDBRANCH  25  26
ENDBRANCH  23  25
ENDBRANCH  15  23
TORSDOF 5
ENDMDL
MODEL 9
REMARK VINA RESULT:      -6.9      3.306      8.199
REMARK  5 active torsions:
REMARK  status: ('A' for Active; 'I' for Inactive)
REMARK    1  A    between atoms: C_7  and  N_8 
REMARK    2  A    between atoms: C_22  and  N_23 
REMARK    3  A    between atoms: N_23  and  C_24 
REMARK    4  A    between atoms: C_24  and  C_25 
REMARK    5  A    between atoms: C_25  and  O_26 
ROOT
HETATM    1  N   UNK N   1      27.865  17.581   5.755  0.00  0.00    -0.244 N 
HETATM    2  C   UNK N   1      26.688  16.837   5.936  0.00  0.00     0.266 A 
HETATM    3  O   UNK N   1      26.680  15.846   6.648  0.00  0.00    -0.267 OA
HETATM    4  C   UNK N   1      27.824  18.709   4.927  0.00  0.00     0.266 A 
HETATM    5  O   UNK N   1      28.831  19.371   4.720  0.00  0.00    -0.267 OA
HETATM    6  C   UNK N   1      26.636  19.110   4.307  0.00  0.00     0.045 A 
HETATM    7  C   UNK N   1      26.609  20.252   3.490  0.00  0.00     0.018 A 
HETATM    8  C   UNK N   1      25.427  20.658   2.876  0.00  0.00     0.002 A 
HETATM    9  C   UNK N   1      24.258  19.926   3.066  0.00  0.00     0.014 A 
HETATM   10  C   UNK N   1      24.262  18.781   3.875  0.00  0.00     0.003 A 
HETATM   11  C   UNK N   1      25.462  18.372   4.502  0.00  0.00     0.008 A 
HETATM   12  C   UNK N   1      25.484  17.230   5.313  0.00  0.00     0.045 A 
HETATM   13  C   UNK N   1      24.295  16.497   5.494  0.00  0.00     0.020 A 
HETATM   14  C   UNK N   1      23.107  16.896   4.866  0.00  0.00     0.031 A 
HETATM   15  C   UNK N   1      23.086  18.040   4.053  0.00  0.00     0.039 A 
ENDROOT
BRANCH   1  16
HETATM   16  C   UNK N   1      29.120  17.203   6.434  0.00  0.00     0.047 A 
HETATM   17  C   UNK N   1      30.011  16.281   5.847  0.00  0.00     0.049 A 
HETATM   18  C   UNK N   1      31.218  15.937   6.449  0.00  0.00     0.013 A 
HETATM   19 Br   UNK N   1      32.384  14.705   5.579  0.00  0.00    -0.051 Br
HETATM   20  C   UNK N   1      31.572  16.507   7.670  0.00  0.00     0.019 A 
HETATM   21  C   UNK N   1      30.711  17.422   8.282  0.00  0.00     0.004 A 
HETATM   22  C   UNK N   1      29.502  17.770   7.668  0.00  0.00     0.030 A 
ENDBRANCH   1  16
BRANCH  15  23
HETATM   23  N   UNK N   1      21.904  18.452   3.383  0.00  0.00    -0.387 N 
HETATM   24  H   UNK N   1      21.733  18.087   2.485  0.00  0.00     0.159 HD
BRANCH  23  25
HETATM   25  C   UNK N   1      20.941  19.368   3.930  0.00  0.00     0.146 C 
BRANCH  25  26
HETATM   26  C   UNK N   1      20.482  20.283   2.811  0.00  0.00     0.183 C 
BRANCH  26  27
HETATM   27  O   UNK N   1      21.054  21.543   2.962  0.00  0.00    -0.399 OA
HETATM   28  H   UNK N   1      20.499  22.322   3.127  0.00  0.00     0.209 HD
ENDBRANCH  26  27
ENDBRANCH  25  26
ENDBRANCH  23  25
ENDBRANCH  15  23
TORSDOF 5
ENDMDL
