MODEL 1
REMARK VINA RESULT:      -7.0      0.000      0.000
REMARK  6 active torsions:
REMARK  status: ('A' for Active; 'I' for Inactive)
REMARK    1  A    between atoms: C_6  and  C_7 
REMARK    2  A    between atoms: C_9  and  C_10 
REMARK    3  A    between atoms: C_10  and  O_12 
REMARK    4  A    between atoms: C_13  and  C_14 
REMARK    5  A    between atoms: C_14  and  O_16 
REMARK    6  A    between atoms: C_17  and  C_18 
ROOT
HETATM    1  C   UNK N   1      21.513  17.405   6.530  0.00  0.00     0.104 A 
HETATM    2  O   UNK N   1      20.626  18.022   7.268  0.00  0.00    -0.307 OA
HETATM    3  C   UNK N   1      21.667  16.088   7.006  0.00  0.00     0.092 A 
HETATM    4  C   UNK N   1      20.800  15.989   8.121  0.00  0.00     0.092 A 
HETATM    5  C   UNK N   1      20.166  17.244   8.213  0.00  0.00     0.104 A 
ENDROOT
BRANCH   1   6
HETATM    6  C   UNK N   1      22.135  18.156   5.405  0.00  0.00    -0.001 A 
HETATM    7  C   UNK N   1      23.513  18.253   5.198  0.00  0.00     0.014 A 
HETATM    8  C   UNK N   1      24.027  18.995   4.130  0.00  0.00     0.001 A 
HETATM    9  C   UNK N   1      23.161  19.653   3.255  0.00  0.00     0.000 A 
HETATM   10  C   UNK N   1      21.782  19.560   3.443  0.00  0.00     0.001 A 
HETATM   11  C   UNK N   1      21.275  18.815   4.508  0.00  0.00     0.014 A 
ENDBRANCH   1   6
BRANCH   3  12
HETATM   12  C   UNK N   1      22.555  15.010   6.452  0.00  0.00     0.180 C 
HETATM   13  O   UNK N   1      22.435  14.639   5.300  0.00  0.00    -0.646 OA
BRANCH  12  14
HETATM   14  O   UNK N   1      23.520  14.449   7.194  0.00  0.00    -0.773 OA
HETATM   15  H   UNK N   1      24.115  14.968   7.701  0.00  0.00     0.167 HD
ENDBRANCH  12  14
ENDBRANCH   3  12
BRANCH   5  16
HETATM   16  C   UNK N   1      19.168  17.809   9.165  0.00  0.00    -0.001 A 
HETATM   17  C   UNK N   1      19.562  18.913   9.941  0.00  0.00     0.014 A 
HETATM   18  C   UNK N   1      18.690  19.492  10.864  0.00  0.00     0.001 A 
HETATM   19  C   UNK N   1      17.403  18.976  11.021  0.00  0.00     0.000 A 
HETATM   20  C   UNK N   1      16.994  17.883  10.254  0.00  0.00     0.001 A 
HETATM   21  C   UNK N   1      17.875  17.303   9.334  0.00  0.00     0.014 A 
ENDBRANCH   5  16
BRANCH   4  22
HETATM   22  C   UNK N   1      20.645  14.816   9.047  0.00  0.00     0.180 C 
HETATM   23  O   UNK N   1      19.551  14.330   9.264  0.00  0.00    -0.646 OA
BRANCH  22  24
HETATM   24  O   UNK N   1      21.695  14.319   9.721  0.00  0.00    -0.773 OA
HETATM   25  H   UNK N   1      22.506  14.118   9.299  0.00  0.00     0.167 HD
ENDBRANCH  22  24
ENDBRANCH   4  22
TORSDOF 6
ENDMDL
MODEL 2
REMARK VINA RESULT:      -6.9      7.203      9.744
REMARK  6 active torsions:
REMARK  status: ('A' for Active; 'I' for Inactive)
REMARK    1  A    between atoms: C_6  and  C_7 
REMARK    2  A    between atoms: C_9  and  C_10 
REMARK    3  A    between atoms: C_10  and  O_12 
REMARK    4  A    between atoms: C_13  and  C_14 
REMARK    5  A    between atoms: C_14  and  O_16 
REMARK    6  A    between atoms: C_17  and  C_18 
ROOT
HETATM    1  C   UNK N   1      30.712  17.029   6.036  0.00  0.00     0.104 A 
HETATM    2  O   UNK N   1      29.687  17.640   5.498  0.00  0.00    -0.307 OA
HETATM    3  C   UNK N   1      30.620  17.131   7.438  0.00  0.00     0.092 A 
HETATM    4  C   UNK N   1      29.448  17.887   7.682  0.00  0.00     0.092 A 
HETATM    5  C   UNK N   1      28.906  18.158   6.410  0.00  0.00     0.104 A 
ENDROOT
BRANCH   1   6
HETATM    6  C   UNK N   1      31.699  16.382   5.129  0.00  0.00    -0.001 A 
HETATM    7  C   UNK N   1      32.173  15.077   5.293  0.00  0.00     0.014 A 
HETATM    8  C   UNK N   1      33.119  14.543   4.413  0.00  0.00     0.001 A 
HETATM    9  C   UNK N   1      33.604  15.314   3.354  0.00  0.00     0.000 A 
HETATM   10  C   UNK N   1      33.134  16.615   3.171  0.00  0.00     0.001 A 
HETATM   11  C   UNK N   1      32.188  17.142   4.051  0.00  0.00     0.014 A 
ENDBRANCH   1   6
BRANCH   3  12
HETATM   12  C   UNK N   1      31.556  16.557   8.463  0.00  0.00     0.180 C 
HETATM   13  O   UNK N   1      31.633  15.354   8.629  0.00  0.00    -0.646 OA
BRANCH  12  14
HETATM   14  O   UNK N   1      32.352  17.343   9.201  0.00  0.00    -0.773 OA
HETATM   15  H   UNK N   1      32.222  17.448  10.124  0.00  0.00     0.167 HD
ENDBRANCH  12  14
ENDBRANCH   3  12
BRANCH   5  16
HETATM   16  C   UNK N   1      27.708  18.919   5.958  0.00  0.00    -0.001 A 
HETATM   17  C   UNK N   1      26.708  18.210   5.271  0.00  0.00     0.014 A 
HETATM   18  C   UNK N   1      25.560  18.853   4.804  0.00  0.00     0.001 A 
HETATM   19  C   UNK N   1      25.394  20.220   5.023  0.00  0.00     0.000 A 
HETATM   20  C   UNK N   1      26.375  20.939   5.709  0.00  0.00     0.001 A 
HETATM   21  C   UNK N   1      27.526  20.290   6.170  0.00  0.00     0.014 A 
ENDBRANCH   5  16
BRANCH   4  22
HETATM   22  C   UNK N   1      28.934  18.359   9.013  0.00  0.00     0.180 C 
HETATM   23  O   UNK N   1      29.686  18.840   9.840  0.00  0.00    -0.646 OA
BRANCH  22  24
HETATM   24  O   UNK N   1      27.646  18.196   9.359  0.00  0.00    -0.773 OA
HETATM   25  H   UNK N   1      26.974  18.775   9.060  0.00  0.00     0.167 HD
ENDBRANCH  22  24
ENDBRANCH   4  22
TORSDOF 6
ENDMDL
MODEL 3
REMARK VINA RESULT:      -6.8      7.201     10.715
REMARK  6 active torsions:
REMARK  status: ('A' for Active; 'I' for Inactive)
REMARK    1  A    between atoms: C_6  and  C_7 
REMARK    2  A    between atoms: C_9  and  C_10 
REMARK    3  A    between atoms: C_10  and  O_12 
REMARK    4  A    between atoms: C_13  and  C_14 
REMARK    5  A    between atoms: C_14  and  O_16 
REMARK    6  A    between atoms: C_17  and  C_18 
ROOT
HETATM    1  C   UNK N   1      28.909  18.128   6.374  0.00  0.00     0.104 A 
HETATM    2  O   UNK N   1      29.700  17.619   5.465  0.00  0.00    -0.307 OA
HETATM    3  C   UNK N   1      29.460  17.886   7.648  0.00  0.00     0.092 A 
HETATM    4  C   UNK N   1      30.651  17.158   7.407  0.00  0.00     0.092 A 
HETATM    5  C   UNK N   1      30.742  17.043   6.006  0.00  0.00     0.104 A 
ENDROOT
BRANCH   1   6
HETATM    6  C   UNK N   1      27.673  18.823   5.920  0.00  0.00    -0.001 A 
HETATM    7  C   UNK N   1      26.605  18.183   5.285  0.00  0.00     0.014 A 
HETATM    8  C   UNK N   1      25.484  18.906   4.866  0.00  0.00     0.001 A 
HETATM    9  C   UNK N   1      25.421  20.285   5.079  0.00  0.00     0.000 A 
HETATM   10  C   UNK N   1      26.474  20.937   5.719  0.00  0.00     0.001 A 
HETATM   11  C   UNK N   1      27.589  20.210   6.138  0.00  0.00     0.014 A 
ENDBRANCH   1   6
BRANCH   3  12
HETATM   12  C   UNK N   1      28.914  18.311   8.981  0.00  0.00     0.180 C 
HETATM   13  O   UNK N   1      29.636  18.831   9.810  0.00  0.00    -0.646 OA
BRANCH  12  14
HETATM   14  O   UNK N   1      27.617  18.161   9.284  0.00  0.00    -0.773 OA
HETATM   15  H   UNK N   1      27.142  18.819   9.755  0.00  0.00     0.167 HD
ENDBRANCH  12  14
ENDBRANCH   3  12
BRANCH   5  16
HETATM   16  C   UNK N   1      31.727  16.383   5.104  0.00  0.00    -0.001 A 
HETATM   17  C   UNK N   1      32.250  17.144   4.044  0.00  0.00     0.014 A 
HETATM   18  C   UNK N   1      33.168  16.595   3.147  0.00  0.00     0.001 A 
HETATM   19  C   UNK N   1      33.582  15.272   3.301  0.00  0.00     0.000 A 
HETATM   20  C   UNK N   1      33.076  14.504   4.352  0.00  0.00     0.001 A 
HETATM   21  C   UNK N   1      32.152  15.058   5.245  0.00  0.00     0.014 A 
ENDBRANCH   5  16
BRANCH   4  22
HETATM   22  C   UNK N   1      31.579  16.572   8.435  0.00  0.00     0.180 C 
HETATM   23  O   UNK N   1      31.622  15.372   8.627  0.00  0.00    -0.646 OA
BRANCH  22  24
HETATM   24  O   UNK N   1      32.331  17.360   9.220  0.00  0.00    -0.773 OA
HETATM   25  H   UNK N   1      32.016  17.694  10.037  0.00  0.00     0.167 HD
ENDBRANCH  22  24
ENDBRANCH   4  22
TORSDOF 6
ENDMDL
MODEL 4
REMARK VINA RESULT:      -6.8      3.137      7.721
REMARK  6 active torsions:
REMARK  status: ('A' for Active; 'I' for Inactive)
REMARK    1  A    between atoms: C_6  and  C_7 
REMARK    2  A    between atoms: C_9  and  C_10 
REMARK    3  A    between atoms: C_10  and  O_12 
REMARK    4  A    between atoms: C_13  and  C_14 
REMARK    5  A    between atoms: C_14  and  O_16 
REMARK    6  A    between atoms: C_17  and  C_18 
ROOT
HETATM    1  C   UNK N   1      22.487  17.995   5.155  0.00  0.00     0.104 A 
HETATM    2  O   UNK N   1      23.791  17.967   5.261  0.00  0.00    -0.307 OA
HETATM    3  C   UNK N   1      22.125  18.974   4.210  0.00  0.00     0.092 A 
HETATM    4  C   UNK N   1      23.346  19.548   3.780  0.00  0.00     0.092 A 
HETATM    5  C   UNK N   1      24.353  18.849   4.476  0.00  0.00     0.104 A 
ENDROOT
BRANCH   1   6
HETATM    6  C   UNK N   1      21.695  17.047   5.987  0.00  0.00    -0.001 A 
HETATM    7  C   UNK N   1      20.823  17.441   7.006  0.00  0.00     0.014 A 
HETATM    8  C   UNK N   1      20.128  16.492   7.761  0.00  0.00     0.001 A 
HETATM    9  C   UNK N   1      20.299  15.130   7.503  0.00  0.00     0.000 A 
HETATM   10  C   UNK N   1      21.158  14.721   6.483  0.00  0.00     0.001 A 
HETATM   11  C   UNK N   1      21.848  15.672   5.731  0.00  0.00     0.014 A 
ENDBRANCH   1   6
BRANCH   3  12
HETATM   12  C   UNK N   1      20.743  19.336   3.746  0.00  0.00     0.180 C 
HETATM   13  O   UNK N   1      20.022  18.502   3.233  0.00  0.00    -0.646 OA
BRANCH  12  14
HETATM   14  O   UNK N   1      20.252  20.573   3.909  0.00  0.00    -0.773 OA
HETATM   15  H   UNK N   1      20.745  21.245   4.339  0.00  0.00     0.167 HD
ENDBRANCH  12  14
ENDBRANCH   3  12
BRANCH   5  16
HETATM   16  C   UNK N   1      25.838  18.967   4.502  0.00  0.00    -0.001 A 
HETATM   17  C   UNK N   1      26.586  17.875   4.029  0.00  0.00     0.014 A 
HETATM   18  C   UNK N   1      27.982  17.903   4.033  0.00  0.00     0.001 A 
HETATM   19  C   UNK N   1      28.652  19.031   4.508  0.00  0.00     0.000 A 
HETATM   20  C   UNK N   1      27.923  20.126   4.976  0.00  0.00     0.001 A 
HETATM   21  C   UNK N   1      26.524  20.090   4.975  0.00  0.00     0.014 A 
ENDBRANCH   5  16
BRANCH   4  22
HETATM   22  C   UNK N   1      23.523  20.703   2.835  0.00  0.00     0.180 C 
HETATM   23  O   UNK N   1      24.437  20.721   2.033  0.00  0.00    -0.646 OA
BRANCH  22  24
HETATM   24  O   UNK N   1      22.724  21.781   2.899  0.00  0.00    -0.773 OA
HETATM   25  H   UNK N   1      21.825  21.719   3.154  0.00  0.00     0.167 HD
ENDBRANCH  22  24
ENDBRANCH   4  22
TORSDOF 6
ENDMDL
MODEL 5
REMARK VINA RESULT:      -6.6      2.874      6.782
REMARK  6 active torsions:
REMARK  status: ('A' for Active; 'I' for Inactive)
REMARK    1  A    between atoms: C_6  and  C_7 
REMARK    2  A    between atoms: C_9  and  C_10 
REMARK    3  A    between atoms: C_10  and  O_12 
REMARK    4  A    between atoms: C_13  and  C_14 
REMARK    5  A    between atoms: C_14  and  O_16 
REMARK    6  A    between atoms: C_17  and  C_18 
ROOT
HETATM    1  C   UNK N   1      21.163  16.096   5.942  0.00  0.00     0.104 A 
HETATM    2  O   UNK N   1      22.160  16.871   5.598  0.00  0.00    -0.307 OA
HETATM    3  C   UNK N   1      20.164  16.170   4.952  0.00  0.00     0.092 A 
HETATM    4  C   UNK N   1      20.655  17.088   3.992  0.00  0.00     0.092 A 
HETATM    5  C   UNK N   1      21.925  17.475   4.462  0.00  0.00     0.104 A 
ENDROOT
BRANCH   1   6
HETATM    6  C   UNK N   1      21.274  15.334   7.215  0.00  0.00    -0.001 A 
HETATM    7  C   UNK N   1      20.356  15.427   8.265  0.00  0.00     0.014 A 
HETATM    8  C   UNK N   1      20.537  14.696   9.443  0.00  0.00     0.001 A 
HETATM    9  C   UNK N   1      21.646  13.859   9.583  0.00  0.00     0.000 A 
HETATM   10  C   UNK N   1      22.567  13.747   8.542  0.00  0.00     0.001 A 
HETATM   11  C   UNK N   1      22.380  14.478   7.367  0.00  0.00     0.014 A 
ENDBRANCH   1   6
BRANCH   3  12
HETATM   12  C   UNK N   1      18.857  15.430   4.910  0.00  0.00     0.180 C 
HETATM   13  O   UNK N   1      18.720  14.451   4.202  0.00  0.00    -0.646 OA
BRANCH  12  14
HETATM   14  O   UNK N   1      17.817  15.805   5.669  0.00  0.00    -0.773 OA
HETATM   15  H   UNK N   1      17.931  16.076   6.559  0.00  0.00     0.167 HD
ENDBRANCH  12  14
ENDBRANCH   3  12
BRANCH   5  16
HETATM   16  C   UNK N   1      22.953  18.423   3.945  0.00  0.00    -0.001 A 
HETATM   17  C   UNK N   1      24.299  18.026   4.019  0.00  0.00     0.014 A 
HETATM   18  C   UNK N   1      25.322  18.862   3.569  0.00  0.00     0.001 A 
HETATM   19  C   UNK N   1      25.011  20.111   3.031  0.00  0.00     0.000 A 
HETATM   20  C   UNK N   1      23.678  20.518   2.945  0.00  0.00     0.001 A 
HETATM   21  C   UNK N   1      22.657  19.678   3.404  0.00  0.00     0.014 A 
ENDBRANCH   5  16
BRANCH   4  22
HETATM   22  C   UNK N   1      19.938  17.594   2.771  0.00  0.00     0.180 C 
HETATM   23  O   UNK N   1      20.408  17.437   1.660  0.00  0.00    -0.646 OA
BRANCH  22  24
HETATM   24  O   UNK N   1      18.800  18.298   2.876  0.00  0.00    -0.773 OA
HETATM   25  H   UNK N   1      18.412  18.729   2.140  0.00  0.00     0.167 HD
ENDBRANCH  22  24
ENDBRANCH   4  22
TORSDOF 6
ENDMDL
MODEL 6
REMARK VINA RESULT:      -6.6     15.865     18.226
REMARK  6 active torsions:
REMARK  status: ('A' for Active; 'I' for Inactive)
REMARK    1  A    between atoms: C_6  and  C_7 
REMARK    2  A    between atoms: C_9  and  C_10 
REMARK    3  A    between atoms: C_10  and  O_12 
REMARK    4  A    between atoms: C_13  and  C_14 
REMARK    5  A    between atoms: C_14  and  O_16 
REMARK    6  A    between atoms: C_17  and  C_18 
ROOT
HETATM    1  C   UNK N   1      35.572  12.103  15.354  0.00  0.00     0.104 A 
HETATM    2  O   UNK N   1      35.075  11.056  14.746  0.00  0.00    -0.307 OA
HETATM    3  C   UNK N   1      36.126  12.970  14.392  0.00  0.00     0.092 A 
HETATM    4  C   UNK N   1      35.932  12.323  13.148  0.00  0.00     0.092 A 
HETATM    5  C   UNK N   1      35.248  11.129  13.451  0.00  0.00     0.104 A 
ENDROOT
BRANCH   1   6
HETATM    6  C   UNK N   1      35.456  12.175  16.836  0.00  0.00    -0.001 A 
HETATM    7  C   UNK N   1      35.130  13.338  17.539  0.00  0.00     0.014 A 
HETATM    8  C   UNK N   1      35.060  13.336  18.935  0.00  0.00     0.001 A 
HETATM    9  C   UNK N   1      35.318  12.162  19.647  0.00  0.00     0.000 A 
HETATM   10  C   UNK N   1      35.636  10.990  18.960  0.00  0.00     0.001 A 
HETATM   11  C   UNK N   1      35.701  10.998  17.566  0.00  0.00     0.014 A 
ENDBRANCH   1   6
BRANCH   3  12
HETATM   12  C   UNK N   1      36.780  14.303  14.625  0.00  0.00     0.180 C 
HETATM   13  O   UNK N   1      36.490  15.265  13.940  0.00  0.00    -0.646 OA
BRANCH  12  14
HETATM   14  O   UNK N   1      37.673  14.480  15.609  0.00  0.00    -0.773 OA
HETATM   15  H   UNK N   1      37.795  13.841  16.284  0.00  0.00     0.167 HD
ENDBRANCH  12  14
ENDBRANCH   3  12
BRANCH   5  16
HETATM   16  C   UNK N   1      34.766   9.994  12.614  0.00  0.00    -0.001 A 
HETATM   17  C   UNK N   1      35.433   8.763  12.741  0.00  0.00     0.014 A 
HETATM   18  C   UNK N   1      35.050   7.656  11.982  0.00  0.00     0.001 A 
HETATM   19  C   UNK N   1      33.986   7.763  11.086  0.00  0.00     0.000 A 
HETATM   20  C   UNK N   1      33.310   8.977  10.953  0.00  0.00     0.001 A 
HETATM   21  C   UNK N   1      33.702  10.085  11.711  0.00  0.00     0.014 A 
ENDBRANCH   5  16
BRANCH   4  22
HETATM   22  C   UNK N   1      36.416  12.781  11.801  0.00  0.00     0.180 C 
HETATM   23  O   UNK N   1      35.761  12.573  10.797  0.00  0.00    -0.646 OA
BRANCH  22  24
HETATM   24  O   UNK N   1      37.617  13.366  11.656  0.00  0.00    -0.773 OA
HETATM   25  H   UNK N   1      37.794  14.224  11.986  0.00  0.00     0.167 HD
ENDBRANCH  22  24
ENDBRANCH   4  22
TORSDOF 6
ENDMDL
MODEL 7
REMARK VINA RESULT:      -6.5      3.106      5.696
REMARK  6 active torsions:
REMARK  status: ('A' for Active; 'I' for Inactive)
REMARK    1  A    between atoms: C_6  and  C_7 
REMARK    2  A    between atoms: C_9  and  C_10 
REMARK    3  A    between atoms: C_10  and  O_12 
REMARK    4  A    between atoms: C_13  and  C_14 
REMARK    5  A    between atoms: C_14  and  O_16 
REMARK    6  A    between atoms: C_17  and  C_18 
ROOT
HETATM    1  C   UNK N   1      24.324  18.831   4.476  0.00  0.00     0.104 A 
HETATM    2  O   UNK N   1      23.738  17.985   5.284  0.00  0.00    -0.307 OA
HETATM    3  C   UNK N   1      23.337  19.541   3.764  0.00  0.00     0.092 A 
HETATM    4  C   UNK N   1      22.101  19.015   4.212  0.00  0.00     0.092 A 
HETATM    5  C   UNK N   1      22.436  18.050   5.182  0.00  0.00     0.104 A 
ENDROOT
BRANCH   1   6
HETATM    6  C   UNK N   1      25.812  18.883   4.472  0.00  0.00    -0.001 A 
HETATM    7  C   UNK N   1      26.629  17.824   4.067  0.00  0.00     0.014 A 
HETATM    8  C   UNK N   1      28.022  17.937   4.111  0.00  0.00     0.001 A 
HETATM    9  C   UNK N   1      28.614  19.118   4.564  0.00  0.00     0.000 A 
HETATM   10  C   UNK N   1      27.812  20.188   4.962  0.00  0.00     0.001 A 
HETATM   11  C   UNK N   1      26.423  20.070   4.914  0.00  0.00     0.014 A 
ENDBRANCH   1   6
BRANCH   3  12
HETATM   12  C   UNK N   1      23.542  20.631   2.751  0.00  0.00     0.180 C 
HETATM   13  O   UNK N   1      24.446  20.562   1.939  0.00  0.00    -0.646 OA
BRANCH  12  14
HETATM   14  O   UNK N   1      22.724  21.691   2.688  0.00  0.00    -0.773 OA
HETATM   15  H   UNK N   1      22.299  22.029   3.452  0.00  0.00     0.167 HD
ENDBRANCH  12  14
ENDBRANCH   3  12
BRANCH   5  16
HETATM   16  C   UNK N   1      21.619  17.123   6.015  0.00  0.00    -0.001 A 
HETATM   17  C   UNK N   1      21.691  15.750   5.722  0.00  0.00     0.014 A 
HETATM   18  C   UNK N   1      20.948  14.818   6.448  0.00  0.00     0.001 A 
HETATM   19  C   UNK N   1      20.121  15.248   7.486  0.00  0.00     0.000 A 
HETATM   20  C   UNK N   1      20.043  16.608   7.794  0.00  0.00     0.001 A 
HETATM   21  C   UNK N   1      20.786  17.538   7.059  0.00  0.00     0.014 A 
ENDBRANCH   5  16
BRANCH   4  22
HETATM   22  C   UNK N   1      20.730  19.366   3.707  0.00  0.00     0.180 C 
HETATM   23  O   UNK N   1      20.294  20.497   3.812  0.00  0.00    -0.646 OA
BRANCH  22  24
HETATM   24  O   UNK N   1      19.918  18.427   3.194  0.00  0.00    -0.773 OA
HETATM   25  H   UNK N   1      19.808  18.316   2.271  0.00  0.00     0.167 HD
ENDBRANCH  22  24
ENDBRANCH   4  22
TORSDOF 6
ENDMDL
MODEL 8
REMARK VINA RESULT:      -6.5     15.880     17.758
REMARK  6 active torsions:
REMARK  status: ('A' for Active; 'I' for Inactive)
REMARK    1  A    between atoms: C_6  and  C_7 
REMARK    2  A    between atoms: C_9  and  C_10 
REMARK    3  A    between atoms: C_10  and  O_12 
REMARK    4  A    between atoms: C_13  and  C_14 
REMARK    5  A    between atoms: C_14  and  O_16 
REMARK    6  A    between atoms: C_17  and  C_18 
ROOT
HETATM    1  C   UNK N   1      35.445  11.084  13.540  0.00  0.00     0.104 A 
HETATM    2  O   UNK N   1      35.259  11.009  14.832  0.00  0.00    -0.307 OA
HETATM    3  C   UNK N   1      36.098  12.296  13.241  0.00  0.00     0.092 A 
HETATM    4  C   UNK N   1      36.259  12.951  14.486  0.00  0.00     0.092 A 
HETATM    5  C   UNK N   1      35.720  12.070  15.444  0.00  0.00     0.104 A 
ENDROOT
BRANCH   1   6
HETATM    6  C   UNK N   1      34.976   9.950  12.696  0.00  0.00    -0.001 A 
HETATM    7  C   UNK N   1      35.587   8.693  12.666  0.00  0.00     0.014 A 
HETATM    8  C   UNK N   1      35.103   7.682  11.831  0.00  0.00     0.001 A 
HETATM    9  C   UNK N   1      33.996   7.919  11.012  0.00  0.00     0.000 A 
HETATM   10  C   UNK N   1      33.370   9.165  11.038  0.00  0.00     0.001 A 
HETATM   11  C   UNK N   1      33.856  10.170  11.875  0.00  0.00     0.014 A 
ENDBRANCH   1   6
BRANCH   3  12
HETATM   12  C   UNK N   1      36.538  12.793  11.893  0.00  0.00     0.180 C 
HETATM   13  O   UNK N   1      35.732  12.956  10.998  0.00  0.00    -0.646 OA
BRANCH  12  14
HETATM   14  O   UNK N   1      37.820  13.100  11.646  0.00  0.00    -0.773 OA
HETATM   15  H   UNK N   1      38.067  13.929  11.286  0.00  0.00     0.167 HD
ENDBRANCH  12  14
ENDBRANCH   3  12
BRANCH   5  16
HETATM   16  C   UNK N   1      35.554  12.156  16.922  0.00  0.00    -0.001 A 
HETATM   17  C   UNK N   1      35.788  10.990  17.672  0.00  0.00     0.014 A 
HETATM   18  C   UNK N   1      35.642  10.985  19.060  0.00  0.00     0.001 A 
HETATM   19  C   UNK N   1      35.262  12.152  19.721  0.00  0.00     0.000 A 
HETATM   20  C   UNK N   1      35.030  13.320  18.992  0.00  0.00     0.001 A 
HETATM   21  C   UNK N   1      35.173  13.318  17.600  0.00  0.00     0.014 A 
ENDBRANCH   5  16
BRANCH   4  22
HETATM   22  C   UNK N   1      36.823  14.324  14.722  0.00  0.00     0.180 C 
HETATM   23  O   UNK N   1      36.498  15.263  14.020  0.00  0.00    -0.646 OA
BRANCH  22  24
HETATM   24  O   UNK N   1      37.756  14.539  15.663  0.00  0.00    -0.773 OA
HETATM   25  H   UNK N   1      38.079  13.851  16.210  0.00  0.00     0.167 HD
ENDBRANCH  22  24
ENDBRANCH   4  22
TORSDOF 6
ENDMDL
MODEL 9
REMARK VINA RESULT:      -6.5     15.070     16.666
REMARK  6 active torsions:
REMARK  status: ('A' for Active; 'I' for Inactive)
REMARK    1  A    between atoms: C_6  and  C_7 
REMARK    2  A    between atoms: C_9  and  C_10 
REMARK    3  A    between atoms: C_10  and  O_12 
REMARK    4  A    between atoms: C_13  and  C_14 
REMARK    5  A    between atoms: C_14  and  O_16 
REMARK    6  A    between atoms: C_17  and  C_18 
ROOT
HETATM    1  C   UNK N   1      30.233  21.324  -5.840  0.00  0.00     0.104 A 
HETATM    2  O   UNK N   1      29.160  22.063  -5.961  0.00  0.00    -0.307 OA
HETATM    3  C   UNK N   1      30.901  21.678  -4.651  0.00  0.00     0.092 A 
HETATM    4  C   UNK N   1      30.130  22.723  -4.086  0.00  0.00     0.092 A 
HETATM    5  C   UNK N   1      29.040  22.898  -4.962  0.00  0.00     0.104 A 
ENDROOT
BRANCH   1   6
HETATM    6  C   UNK N   1      30.516  20.317  -6.899  0.00  0.00    -0.001 A 
HETATM    7  C   UNK N   1      31.780  20.103  -7.457  0.00  0.00     0.014 A 
HETATM    8  C   UNK N   1      31.965  19.154  -8.466  0.00  0.00     0.001 A 
HETATM    9  C   UNK N   1      30.882  18.405  -8.931  0.00  0.00     0.000 A 
HETATM   10  C   UNK N   1      29.617  18.600  -8.378  0.00  0.00     0.001 A 
HETATM   11  C   UNK N   1      29.437  19.547  -7.370  0.00  0.00     0.014 A 
ENDBRANCH   1   6
BRANCH   3  12
HETATM   12  C   UNK N   1      32.158  21.077  -4.090  0.00  0.00     0.180 C 
HETATM   13  O   UNK N   1      33.122  21.775  -3.840  0.00  0.00    -0.646 OA
BRANCH  12  14
HETATM   14  O   UNK N   1      32.246  19.767  -3.820  0.00  0.00    -0.773 OA
HETATM   15  H   UNK N   1      32.730  19.183  -4.371  0.00  0.00     0.167 HD
ENDBRANCH  12  14
ENDBRANCH   3  12
BRANCH   5  16
HETATM   16  C   UNK N   1      27.883  23.837  -4.968  0.00  0.00    -0.001 A 
HETATM   17  C   UNK N   1      27.246  24.077  -6.198  0.00  0.00     0.014 A 
HETATM   18  C   UNK N   1      26.163  24.953  -6.289  0.00  0.00     0.001 A 
HETATM   19  C   UNK N   1      25.697  25.601  -5.145  0.00  0.00     0.000 A 
HETATM   20  C   UNK N   1      26.315  25.370  -3.915  0.00  0.00     0.001 A 
HETATM   21  C   UNK N   1      27.404  24.495  -3.830  0.00  0.00     0.014 A 
ENDBRANCH   5  16
BRANCH   4  22
HETATM   22  C   UNK N   1      30.448  23.521  -2.853  0.00  0.00     0.180 C 
HETATM   23  O   UNK N   1      30.747  24.697  -2.928  0.00  0.00    -0.646 OA
BRANCH  22  24
HETATM   24  O   UNK N   1      30.485  22.941  -1.641  0.00  0.00    -0.773 OA
HETATM   25  H   UNK N   1      31.042  23.256  -0.957  0.00  0.00     0.167 HD
ENDBRANCH  22  24
ENDBRANCH   4  22
TORSDOF 6
ENDMDL
