REMARK  6 active torsions:
REMARK  status: ('A' for Active; 'I' for Inactive)
REMARK    1  A    between atoms: C_6  and  C_7 
REMARK    2  A    between atoms: C_9  and  C_10 
REMARK    3  A    between atoms: C_10  and  O_12 
REMARK    4  A    between atoms: C_13  and  C_14 
REMARK    5  A    between atoms: C_14  and  O_16 
REMARK    6  A    between atoms: C_17  and  C_18 
ROOT
HETATM    1  C   UNK N   1      -0.347   0.751  -0.030  0.00  0.00     0.104 A 
HETATM    2  O   UNK N   1       0.710  -0.020  -0.015  0.00  0.00    -0.307 OA
HETATM    3  C   UNK N   1      -1.502  -0.055  -0.005  0.00  0.00     0.092 A 
HETATM    4  C   UNK N   1      -1.027  -1.389   0.001  0.00  0.00     0.092 A 
HETATM    5  C   UNK N   1       0.378  -1.285   0.010  0.00  0.00     0.104 A 
ENDROOT
BRANCH   1   6
HETATM    6  C   UNK N   1      -0.140   2.225  -0.058  0.00  0.00    -0.001 A 
HETATM    7  C   UNK N   1      -1.176   3.161   0.008  0.00  0.00     0.014 A 
HETATM    8  C   UNK N   1      -0.907   4.532  -0.046  0.00  0.00     0.001 A 
HETATM    9  C   UNK N   1       0.409   4.983  -0.168  0.00  0.00     0.000 A 
HETATM   10  C   UNK N   1       1.455   4.062  -0.226  0.00  0.00     0.001 A 
HETATM   11  C   UNK N   1       1.181   2.695  -0.169  0.00  0.00     0.014 A 
ENDBRANCH   1   6
BRANCH   3  12
HETATM   12  C   UNK N   1      -2.935   0.395   0.018  0.00  0.00     0.180 C 
HETATM   13  O   UNK N   1      -3.822  -0.374   0.336  0.00  0.00    -0.646 OA
BRANCH  12  14
HETATM   14  O   UNK N   1      -3.276   1.657  -0.279  0.00  0.00    -0.773 OA
HETATM   15  H   UNK N   1      -2.631   2.305  -0.486  0.00  0.00     0.167 HD
ENDBRANCH  12  14
ENDBRANCH   3  12
BRANCH   5  16
HETATM   16  C   UNK N   1       1.471  -2.298  -0.004  0.00  0.00    -0.001 A 
HETATM   17  C   UNK N   1       2.793  -1.827  -0.085  0.00  0.00     0.014 A 
HETATM   18  C   UNK N   1       3.872  -2.712  -0.116  0.00  0.00     0.001 A 
HETATM   19  C   UNK N   1       3.643  -4.087  -0.061  0.00  0.00     0.000 A 
HETATM   20  C   UNK N   1       2.336  -4.571   0.025  0.00  0.00     0.001 A 
HETATM   21  C   UNK N   1       1.258  -3.679   0.050  0.00  0.00     0.014 A 
ENDBRANCH   5  16
BRANCH   4  22
HETATM   22  C   UNK N   1      -1.850  -2.645  -0.061  0.00  0.00     0.180 C 
HETATM   23  O   UNK N   1      -1.343  -3.735   0.125  0.00  0.00    -0.646 OA
BRANCH  22  24
HETATM   24  O   UNK N   1      -3.150  -2.608  -0.397  0.00  0.00    -0.773 OA
HETATM   25  H   UNK N   1      -3.580  -1.810  -0.632  0.00  0.00     0.167 HD
ENDBRANCH  22  24
ENDBRANCH   4  22
TORSDOF 6
