MODEL 1
REMARK VINA RESULT:      -8.2      0.000      0.000
REMARK  5 active torsions:
REMARK  status: ('A' for Active; 'I' for Inactive)
REMARK    1  A    between atoms: N_4  and  C_10 
REMARK    2  A    between atoms: C_10  and  C_17 
REMARK    3  A    between atoms: O_25  and  C_17 
REMARK    4  A    between atoms: O_30  and  C_29 
REMARK    5  A    between atoms: C_31  and  O_30 
ROOT
HETATM    1  C   UNK N   1      33.838  15.731   7.229  0.00  0.00     0.054 A 
HETATM    2  C   UNK N   1      34.356  15.142   6.091  0.00  0.00     0.017 A 
HETATM    3  C   UNK N   1      32.630  16.473   7.181  0.00  0.00    -0.018 A 
HETATM    4  N   UNK N   1      34.659  15.477   8.290  0.00  0.00    -0.343 N 
HETATM    5  C   UNK N   1      33.713  15.268   4.878  0.00  0.00     0.009 A 
HETATM    6  C   UNK N   1      35.515  14.503   6.453  0.00  0.00     0.004 A 
HETATM    7  C   UNK N   1      31.943  16.587   5.928  0.00  0.00    -0.000 A 
HETATM    8  C   UNK N   1      32.077  17.171   8.393  0.00  0.00     0.046 C 
HETATM    9  C   UNK N   1      35.676  14.727   7.802  0.00  0.00     0.046 A 
HETATM   10  C   UNK N   1      32.535  15.970   4.778  0.00  0.00     0.056 A 
HETATM   11  C   UNK N   1      34.045  14.748   3.551  0.00  0.00     0.104 A 
HETATM   12  C   UNK N   1      36.425  13.757   5.710  0.00  0.00     0.014 A 
HETATM   13  C   UNK N   1      30.631  17.295   5.906  0.00  0.00    -0.018 A 
HETATM   14  C   UNK N   1      30.554  17.131   8.431  0.00  0.00     0.044 C 
HETATM   15  C   UNK N   1      36.771  14.210   8.497  0.00  0.00     0.030 A 
HETATM   16  C   UNK N   1      32.188  15.833   3.357  0.00  0.00     0.257 A 
HETATM   17  N   UNK N   1      33.130  15.107   2.719  0.00  0.00    -0.332 N 
ATOM     18  HN  UNK N   1      33.119  14.876   1.725  1.00  0.00     0.168 HD
HETATM   19  C   UNK N   1      37.536  13.223   6.387  0.00  0.00     0.001 A 
HETATM   20  C   UNK N   1      29.961  17.563   7.120  0.00  0.00    -0.044 A 
HETATM   21  C   UNK N   1      30.013  17.644   4.705  0.00  0.00     0.015 A 
HETATM   22  C   UNK N   1      37.708  13.448   7.773  0.00  0.00     0.002 A 
HETATM   23  O   UNK N   1      31.211  16.282   2.787  0.00  0.00    -0.267 OA
HETATM   24  C   UNK N   1      28.681  18.133   7.104  0.00  0.00     0.044 A 
HETATM   25  C   UNK N   1      28.746  18.214   4.691  0.00  0.00     0.037 A 
HETATM   26  C   UNK N   1      28.061  18.449   5.889  0.00  0.00     0.069 A 
ENDROOT
BRANCH   4  27
HETATM   27  C   UNK N   1      34.517  15.911   9.675  0.00  0.00     0.155 C 
BRANCH  27  28
HETATM   28  C   UNK N   1      34.028  14.772  10.549  0.00  0.00     0.184 C 
BRANCH  28  29
HETATM   29  O   UNK N   1      32.726  15.042  10.970  0.00  0.00    -0.399 OA
HETATM   30  H   UNK N   1      32.168  14.365  11.385  0.00  0.00     0.209 HD
ENDBRANCH  28  29
ENDBRANCH  27  28
ENDBRANCH   4  27
BRANCH  26  31
HETATM   31  O   UNK N   1      26.789  18.930   5.895  0.00  0.00    -0.347 OA
BRANCH  31  32
HETATM   32  C   UNK N   1      26.417  20.231   5.580  0.00  0.00     0.120 C 
HETATM   33  C   UNK N   1      26.178  20.397   4.085  0.00  0.00     0.040 C 
HETATM   34  C   UNK N   1      27.418  21.256   6.085  0.00  0.00     0.040 C 
ENDBRANCH  31  32
ENDBRANCH  26  31
TORSDOF 5
ENDMDL
MODEL 2
REMARK VINA RESULT:      -7.9     11.215     13.972
REMARK  5 active torsions:
REMARK  status: ('A' for Active; 'I' for Inactive)
REMARK    1  A    between atoms: N_4  and  C_10 
REMARK    2  A    between atoms: C_10  and  C_17 
REMARK    3  A    between atoms: O_25  and  C_17 
REMARK    4  A    between atoms: O_30  and  C_29 
REMARK    5  A    between atoms: C_31  and  O_30 
ROOT
HETATM    1  C   UNK N   1      31.501  20.353  -6.797  0.00  0.00     0.054 A 
HETATM    2  C   UNK N   1      32.555  20.116  -5.935  0.00  0.00     0.017 A 
HETATM    3  C   UNK N   1      30.388  21.134  -6.391  0.00  0.00    -0.018 A 
HETATM    4  N   UNK N   1      31.737  19.733  -7.990  0.00  0.00    -0.343 N 
HETATM    5  C   UNK N   1      32.547  20.627  -4.655  0.00  0.00     0.009 A 
HETATM    6  C   UNK N   1      33.467  19.341  -6.609  0.00  0.00     0.004 A 
HETATM    7  C   UNK N   1      30.384  21.689  -5.069  0.00  0.00    -0.000 A 
HETATM    8  C   UNK N   1      29.204  21.357  -7.290  0.00  0.00     0.046 C 
HETATM    9  C   UNK N   1      32.938  19.121  -7.861  0.00  0.00     0.046 A 
HETATM   10  C   UNK N   1      31.496  21.396  -4.214  0.00  0.00     0.056 A 
HETATM   11  C   UNK N   1      33.523  20.525  -3.569  0.00  0.00     0.104 A 
HETATM   12  C   UNK N   1      34.697  18.821  -6.219  0.00  0.00     0.014 A 
HETATM   13  C   UNK N   1      29.252  22.578  -4.682  0.00  0.00    -0.018 A 
HETATM   14  C   UNK N   1      28.618  22.755  -7.127  0.00  0.00     0.044 C 
HETATM   15  C   UNK N   1      33.620  18.358  -8.811  0.00  0.00     0.030 A 
HETATM   16  C   UNK N   1      31.895  21.746  -2.844  0.00  0.00     0.257 A 
HETATM   17  N   UNK N   1      33.091  21.190  -2.554  0.00  0.00    -0.332 N 
ATOM     18  HN  UNK N   1      33.580  21.284  -1.664  1.00  0.00     0.168 HD
HETATM   19  C   UNK N   1      35.405  18.050  -7.158  0.00  0.00     0.001 A 
HETATM   20  C   UNK N   1      28.393  23.090  -5.680  0.00  0.00    -0.044 A 
HETATM   21  C   UNK N   1      29.056  22.972  -3.359  0.00  0.00     0.015 A 
HETATM   22  C   UNK N   1      34.870  17.820  -8.447  0.00  0.00     0.002 A 
HETATM   23  O   UNK N   1      31.283  22.434  -2.048  0.00  0.00    -0.267 OA
HETATM   24  C   UNK N   1      27.391  24.009  -5.339  0.00  0.00     0.044 A 
HETATM   25  C   UNK N   1      28.059  23.879  -3.022  0.00  0.00     0.037 A 
HETATM   26  C   UNK N   1      27.228  24.419  -4.010  0.00  0.00     0.069 A 
ENDROOT
BRANCH   4  27
HETATM   27  C   UNK N   1      30.894  19.699  -9.181  0.00  0.00     0.155 C 
BRANCH  27  28
HETATM   28  C   UNK N   1      30.081  18.419  -9.228  0.00  0.00     0.184 C 
BRANCH  28  29
HETATM   29  O   UNK N   1      30.445  17.685 -10.356  0.00  0.00    -0.399 OA
HETATM   30  H   UNK N   1      30.734  18.113 -11.178  0.00  0.00     0.209 HD
ENDBRANCH  28  29
ENDBRANCH  27  28
ENDBRANCH   4  27
BRANCH  26  31
HETATM   31  O   UNK N   1      26.299  25.368  -3.715  0.00  0.00    -0.347 OA
BRANCH  31  32
HETATM   32  C   UNK N   1      26.256  26.648  -4.251  0.00  0.00     0.120 C 
HETATM   33  C   UNK N   1      26.107  27.705  -3.164  0.00  0.00     0.040 C 
HETATM   34  C   UNK N   1      25.168  26.797  -5.302  0.00  0.00     0.040 C 
ENDBRANCH  31  32
ENDBRANCH  26  31
TORSDOF 5
ENDMDL
MODEL 3
REMARK VINA RESULT:      -7.8      7.141     12.216
REMARK  5 active torsions:
REMARK  status: ('A' for Active; 'I' for Inactive)
REMARK    1  A    between atoms: N_4  and  C_10 
REMARK    2  A    between atoms: C_10  and  C_17 
REMARK    3  A    between atoms: O_25  and  C_17 
REMARK    4  A    between atoms: O_30  and  C_29 
REMARK    5  A    between atoms: C_31  and  O_30 
ROOT
HETATM    1  C   UNK N   1      36.753  12.528  13.108  0.00  0.00     0.054 A 
HETATM    2  C   UNK N   1      37.432  11.490  12.497  0.00  0.00     0.017 A 
HETATM    3  C   UNK N   1      36.217  12.381  14.413  0.00  0.00    -0.018 A 
HETATM    4  N   UNK N   1      36.710  13.604  12.269  0.00  0.00    -0.343 N 
HETATM    5  C   UNK N   1      37.597  10.283  13.140  0.00  0.00     0.009 A 
HETATM    6  C   UNK N   1      37.825  11.933  11.259  0.00  0.00     0.004 A 
HETATM    7  C   UNK N   1      36.407  11.135  15.097  0.00  0.00    -0.000 A 
HETATM    8  C   UNK N   1      35.425  13.474  15.075  0.00  0.00     0.046 C 
HETATM    9  C   UNK N   1      37.368  13.227  11.146  0.00  0.00     0.046 A 
HETATM   10  C   UNK N   1      37.104  10.090  14.408  0.00  0.00     0.056 A 
HETATM   11  C   UNK N   1      38.266   9.050  12.720  0.00  0.00     0.104 A 
HETATM   12  C   UNK N   1      38.535  11.305  10.241  0.00  0.00     0.014 A 
HETATM   13  C   UNK N   1      35.915  11.020  16.500  0.00  0.00    -0.018 A 
HETATM   14  C   UNK N   1      35.685  13.540  16.576  0.00  0.00     0.044 C 
HETATM   15  C   UNK N   1      37.599  13.979   9.993  0.00  0.00     0.030 A 
HETATM   16  C   UNK N   1      37.514   8.713  14.717  0.00  0.00     0.257 A 
HETATM   17  N   UNK N   1      38.185   8.185  13.670  0.00  0.00    -0.332 N 
ATOM     18  HN  UNK N   1      38.570   7.241  13.638  1.00  0.00     0.168 HD
HETATM   19  C   UNK N   1      38.784  12.042   9.068  0.00  0.00     0.001 A 
HETATM   20  C   UNK N   1      35.560  12.186  17.214  0.00  0.00    -0.044 A 
HETATM   21  C   UNK N   1      35.857   9.788  17.151  0.00  0.00     0.015 A 
HETATM   22  C   UNK N   1      38.319  13.372   8.946  0.00  0.00     0.002 A 
HETATM   23  O   UNK N   1      37.313   8.093  15.745  0.00  0.00    -0.267 OA
HETATM   24  C   UNK N   1      35.197  12.098  18.565  0.00  0.00     0.044 A 
HETATM   25  C   UNK N   1      35.492   9.702  18.489  0.00  0.00     0.037 A 
HETATM   26  C   UNK N   1      35.175  10.857  19.213  0.00  0.00     0.069 A 
ENDROOT
BRANCH   4  27
HETATM   27  C   UNK N   1      36.087  14.905  12.487  0.00  0.00     0.155 C 
BRANCH  27  28
HETATM   28  C   UNK N   1      34.925  15.113  11.535  0.00  0.00     0.184 C 
BRANCH  28  29
HETATM   29  O   UNK N   1      33.945  14.154  11.789  0.00  0.00    -0.399 OA
HETATM   30  H   UNK N   1      33.401  13.774  11.081  0.00  0.00     0.209 HD
ENDBRANCH  28  29
ENDBRANCH  27  28
ENDBRANCH   4  27
BRANCH  26  31
HETATM   31  O   UNK N   1      34.893  10.805  20.543  0.00  0.00    -0.347 OA
BRANCH  31  32
HETATM   32  C   UNK N   1      33.973   9.953  21.140  0.00  0.00     0.120 C 
HETATM   33  C   UNK N   1      32.967  10.723  21.987  0.00  0.00     0.040 C 
HETATM   34  C   UNK N   1      34.643   8.861  21.956  0.00  0.00     0.040 C 
ENDBRANCH  31  32
ENDBRANCH  26  31
TORSDOF 5
ENDMDL
MODEL 4
REMARK VINA RESULT:      -7.6     12.383     16.338
REMARK  5 active torsions:
REMARK  status: ('A' for Active; 'I' for Inactive)
REMARK    1  A    between atoms: N_4  and  C_10 
REMARK    2  A    between atoms: C_10  and  C_17 
REMARK    3  A    between atoms: O_25  and  C_17 
REMARK    4  A    between atoms: O_30  and  C_29 
REMARK    5  A    between atoms: C_31  and  O_30 
ROOT
HETATM    1  C   UNK N   1      28.172  23.562  -5.445  0.00  0.00     0.054 A 
HETATM    2  C   UNK N   1      27.069  23.984  -6.165  0.00  0.00     0.017 A 
HETATM    3  C   UNK N   1      28.930  22.439  -5.864  0.00  0.00    -0.018 A 
HETATM    4  N   UNK N   1      28.345  24.371  -4.359  0.00  0.00    -0.343 N 
HETATM    5  C   UNK N   1      26.676  23.317  -7.305  0.00  0.00     0.009 A 
HETATM    6  C   UNK N   1      26.554  25.080  -5.518  0.00  0.00     0.004 A 
HETATM    7  C   UNK N   1      28.541  21.756  -7.063  0.00  0.00    -0.000 A 
HETATM    8  C   UNK N   1      30.098  21.927  -5.067  0.00  0.00     0.046 C 
HETATM    9  C   UNK N   1      27.353  25.291  -4.417  0.00  0.00     0.046 A 
HETATM   10  C   UNK N   1      27.381  22.227  -7.759  0.00  0.00     0.056 A 
HETATM   11  C   UNK N   1      25.568  23.558  -8.231  0.00  0.00     0.104 A 
HETATM   12  C   UNK N   1      25.461  25.889  -5.810  0.00  0.00     0.014 A 
HETATM   13  C   UNK N   1      29.395  20.631  -7.541  0.00  0.00    -0.018 A 
HETATM   14  C   UNK N   1      31.216  21.405  -5.962  0.00  0.00     0.044 C 
HETATM   15  C   UNK N   1      27.102  26.340  -3.531  0.00  0.00     0.030 A 
HETATM   16  C   UNK N   1      26.656  21.850  -8.980  0.00  0.00     0.257 A 
HETATM   17  N   UNK N   1      25.610  22.682  -9.173  0.00  0.00    -0.332 N 
ATOM     18  HN  UNK N   1      24.952  22.625  -9.950  1.00  0.00     0.168 HD
HETATM   19  C   UNK N   1      25.188  26.955  -4.934  0.00  0.00     0.001 A 
HETATM   20  C   UNK N   1      30.690  20.458  -7.003  0.00  0.00    -0.044 A 
HETATM   21  C   UNK N   1      28.970  19.777  -8.559  0.00  0.00     0.015 A 
HETATM   22  C   UNK N   1      26.004  27.180  -3.801  0.00  0.00     0.002 A 
HETATM   23  O   UNK N   1      26.916  20.938  -9.743  0.00  0.00    -0.267 OA
HETATM   24  C   UNK N   1      31.538  19.469  -7.519  0.00  0.00     0.044 A 
HETATM   25  C   UNK N   1      29.810  18.794  -9.066  0.00  0.00     0.037 A 
HETATM   26  C   UNK N   1      31.108  18.641  -8.563  0.00  0.00     0.069 A 
ENDROOT
BRANCH   4  27
HETATM   27  C   UNK N   1      29.366  24.291  -3.319  0.00  0.00     0.155 C 
BRANCH  27  28
HETATM   28  C   UNK N   1      28.959  23.307  -2.239  0.00  0.00     0.184 C 
BRANCH  28  29
HETATM   29  O   UNK N   1      30.063  23.022  -1.438  0.00  0.00    -0.399 OA
HETATM   30  H   UNK N   1      30.134  22.196  -0.934  0.00  0.00     0.209 HD
ENDBRANCH  28  29
ENDBRANCH  27  28
ENDBRANCH   4  27
BRANCH  26  31
HETATM   31  O   UNK N   1      31.974  17.740  -9.098  0.00  0.00    -0.347 OA
BRANCH  31  32
HETATM   32  C   UNK N   1      33.357  17.780  -8.977  0.00  0.00     0.120 C 
HETATM   33  C   UNK N   1      34.005  18.456 -10.179  0.00  0.00     0.040 C 
HETATM   34  C   UNK N   1      33.956  16.403  -8.744  0.00  0.00     0.040 C 
ENDBRANCH  31  32
ENDBRANCH  26  31
TORSDOF 5
ENDMDL
MODEL 5
REMARK VINA RESULT:      -7.6      3.991      8.257
REMARK  5 active torsions:
REMARK  status: ('A' for Active; 'I' for Inactive)
REMARK    1  A    between atoms: N_4  and  C_10 
REMARK    2  A    between atoms: C_10  and  C_17 
REMARK    3  A    between atoms: O_25  and  C_17 
REMARK    4  A    between atoms: O_30  and  C_29 
REMARK    5  A    between atoms: C_31  and  O_30 
ROOT
HETATM    1  C   UNK N   1      33.942  14.423   6.741  0.00  0.00     0.054 A 
HETATM    2  C   UNK N   1      33.923  15.802   6.648  0.00  0.00     0.017 A 
HETATM    3  C   UNK N   1      34.338  13.778   7.941  0.00  0.00    -0.018 A 
HETATM    4  N   UNK N   1      33.546  13.879   5.553  0.00  0.00    -0.343 N 
HETATM    5  C   UNK N   1      34.297  16.585   7.720  0.00  0.00     0.009 A 
HETATM    6  C   UNK N   1      33.499  16.120   5.382  0.00  0.00     0.004 A 
HETATM    7  C   UNK N   1      34.705  14.586   9.067  0.00  0.00    -0.000 A 
HETATM    8  C   UNK N   1      34.422  12.280   8.048  0.00  0.00     0.046 C 
HETATM    9  C   UNK N   1      33.280  14.925   4.735  0.00  0.00     0.046 A 
HETATM   10  C   UNK N   1      34.682  16.010   8.908  0.00  0.00     0.056 A 
HETATM   11  C   UNK N   1      34.361  18.038   7.877  0.00  0.00     0.104 A 
HETATM   12  C   UNK N   1      33.298  17.349   4.762  0.00  0.00     0.014 A 
HETATM   13  C   UNK N   1      35.036  13.900  10.348  0.00  0.00    -0.018 A 
HETATM   14  C   UNK N   1      34.003  11.781   9.425  0.00  0.00     0.044 C 
HETATM   15  C   UNK N   1      32.837  14.889   3.411  0.00  0.00     0.030 A 
HETATM   16  C   UNK N   1      34.961  17.172   9.762  0.00  0.00     0.257 A 
HETATM   17  N   UNK N   1      34.749  18.314   9.073  0.00  0.00    -0.332 N 
ATOM     18  HN  UNK N   1      34.877  19.255   9.445  1.00  0.00     0.168 HD
HETATM   19  C   UNK N   1      32.851  17.341   3.428  0.00  0.00     0.001 A 
HETATM   20  C   UNK N   1      34.701  12.538  10.519  0.00  0.00    -0.044 A 
HETATM   21  C   UNK N   1      35.615  14.589  11.414  0.00  0.00     0.015 A 
HETATM   22  C   UNK N   1      32.621  16.117   2.757  0.00  0.00     0.002 A 
HETATM   23  O   UNK N   1      35.327  17.167  10.923  0.00  0.00    -0.267 OA
HETATM   24  C   UNK N   1      34.913  11.913  11.756  0.00  0.00     0.044 A 
HETATM   25  C   UNK N   1      35.829  13.967  12.637  0.00  0.00     0.037 A 
HETATM   26  C   UNK N   1      35.466  12.628  12.825  0.00  0.00     0.069 A 
ENDROOT
BRANCH   4  27
HETATM   27  C   UNK N   1      33.431  12.471   5.190  0.00  0.00     0.155 C 
BRANCH  27  28
HETATM   28  C   UNK N   1      31.992  12.002   5.300  0.00  0.00     0.184 C 
BRANCH  28  29
HETATM   29  O   UNK N   1      31.944  10.845   6.077  0.00  0.00    -0.399 OA
HETATM   30  H   UNK N   1      31.128  10.552   6.513  0.00  0.00     0.209 HD
ENDBRANCH  28  29
ENDBRANCH  27  28
ENDBRANCH   4  27
BRANCH  26  31
HETATM   31  O   UNK N   1      35.592  12.023  14.037  0.00  0.00    -0.347 OA
BRANCH  31  32
HETATM   32  C   UNK N   1      34.573  11.857  14.966  0.00  0.00     0.120 C 
HETATM   33  C   UNK N   1      34.587  12.962  16.014  0.00  0.00     0.040 C 
HETATM   34  C   UNK N   1      34.609  10.487  15.623  0.00  0.00     0.040 C 
ENDBRANCH  31  32
ENDBRANCH  26  31
TORSDOF 5
ENDMDL
MODEL 6
REMARK VINA RESULT:      -7.6     12.763     17.022
REMARK  5 active torsions:
REMARK  status: ('A' for Active; 'I' for Inactive)
REMARK    1  A    between atoms: N_4  and  C_10 
REMARK    2  A    between atoms: C_10  and  C_17 
REMARK    3  A    between atoms: O_25  and  C_17 
REMARK    4  A    between atoms: O_30  and  C_29 
REMARK    5  A    between atoms: C_31  and  O_30 
ROOT
HETATM    1  C   UNK N   1      27.227  24.220  -6.365  0.00  0.00     0.054 A 
HETATM    2  C   UNK N   1      27.626  24.532  -5.079  0.00  0.00     0.017 A 
HETATM    3  C   UNK N   1      27.804  23.127  -7.063  0.00  0.00    -0.018 A 
HETATM    4  N   UNK N   1      26.268  25.102  -6.773  0.00  0.00    -0.343 N 
HETATM    5  C   UNK N   1      28.601  23.792  -4.445  0.00  0.00     0.009 A 
HETATM    6  C   UNK N   1      26.895  25.622  -4.678  0.00  0.00     0.004 A 
HETATM    7  C   UNK N   1      28.801  22.339  -6.400  0.00  0.00    -0.000 A 
HETATM    8  C   UNK N   1      27.428  22.804  -8.482  0.00  0.00     0.046 C 
HETATM    9  C   UNK N   1      26.076  25.950  -5.735  0.00  0.00     0.046 A 
HETATM   10  C   UNK N   1      29.187  22.719  -5.074  0.00  0.00     0.056 A 
HETATM   11  C   UNK N   1      29.189  23.912  -3.110  0.00  0.00     0.104 A 
HETATM   12  C   UNK N   1      26.892  26.339  -3.486  0.00  0.00     0.014 A 
HETATM   13  C   UNK N   1      29.338  21.142  -7.109  0.00  0.00    -0.018 A 
HETATM   14  C   UNK N   1      27.408  21.302  -8.740  0.00  0.00     0.044 C 
HETATM   15  C   UNK N   1      25.192  27.028  -5.659  0.00  0.00     0.030 A 
HETATM   16  C   UNK N   1      30.124  22.213  -4.061  0.00  0.00     0.257 A 
HETATM   17  N   UNK N   1      30.058  22.976  -2.949  0.00  0.00    -0.332 N 
ATOM     18  HN  UNK N   1      30.613  22.831  -2.105  1.00  0.00     0.168 HD
HETATM   19  C   UNK N   1      26.009  27.429  -3.382  0.00  0.00     0.001 A 
HETATM   20  C   UNK N   1      28.665  20.643  -8.247  0.00  0.00    -0.044 A 
HETATM   21  C   UNK N   1      30.458  20.459  -6.638  0.00  0.00     0.015 A 
HETATM   22  C   UNK N   1      25.163  27.771  -4.463  0.00  0.00     0.002 A 
HETATM   23  O   UNK N   1      30.868  21.254  -4.154  0.00  0.00    -0.267 OA
HETATM   24  C   UNK N   1      29.101  19.460  -8.858  0.00  0.00     0.044 A 
HETATM   25  C   UNK N   1      30.893  19.289  -7.247  0.00  0.00     0.037 A 
HETATM   26  C   UNK N   1      30.209  18.769  -8.353  0.00  0.00     0.069 A 
ENDROOT
BRANCH   4  27
HETATM   27  C   UNK N   1      25.575  25.163  -8.055  0.00  0.00     0.155 C 
BRANCH  27  28
HETATM   28  C   UNK N   1      26.233  26.174  -8.975  0.00  0.00     0.184 C 
BRANCH  28  29
HETATM   29  O   UNK N   1      25.518  26.242 -10.170  0.00  0.00    -0.399 OA
HETATM   30  H   UNK N   1      24.550  26.315 -10.188  0.00  0.00     0.209 HD
ENDBRANCH  28  29
ENDBRANCH  27  28
ENDBRANCH   4  27
BRANCH  26  31
HETATM   31  O   UNK N   1      30.568  17.583  -8.914  0.00  0.00    -0.347 OA
BRANCH  31  32
HETATM   32  C   UNK N   1      31.469  17.425  -9.959  0.00  0.00     0.120 C 
HETATM   33  C   UNK N   1      30.779  16.921 -11.221  0.00  0.00     0.040 C 
HETATM   34  C   UNK N   1      32.635  16.526  -9.585  0.00  0.00     0.040 C 
ENDBRANCH  31  32
ENDBRANCH  26  31
TORSDOF 5
ENDMDL
MODEL 7
REMARK VINA RESULT:      -7.6      3.928      5.393
REMARK  5 active torsions:
REMARK  status: ('A' for Active; 'I' for Inactive)
REMARK    1  A    between atoms: N_4  and  C_10 
REMARK    2  A    between atoms: C_10  and  C_17 
REMARK    3  A    between atoms: O_25  and  C_17 
REMARK    4  A    between atoms: O_30  and  C_29 
REMARK    5  A    between atoms: C_31  and  O_30 
ROOT
HETATM    1  C   UNK N   1      29.885  16.763   6.046  0.00  0.00     0.054 A 
HETATM    2  C   UNK N   1      31.065  16.212   5.581  0.00  0.00     0.017 A 
HETATM    3  C   UNK N   1      28.647  16.476   5.416  0.00  0.00    -0.018 A 
HETATM    4  N   UNK N   1      30.147  17.563   7.121  0.00  0.00    -0.343 N 
HETATM    5  C   UNK N   1      31.066  15.374   4.486  0.00  0.00     0.009 A 
HETATM    6  C   UNK N   1      32.076  16.670   6.388  0.00  0.00     0.004 A 
HETATM    7  C   UNK N   1      28.639  15.586   4.292  0.00  0.00    -0.000 A 
HETATM    8  C   UNK N   1      27.360  17.109   5.867  0.00  0.00     0.046 C 
HETATM    9  C   UNK N   1      31.485  17.496   7.318  0.00  0.00     0.046 A 
HETATM   10  C   UNK N   1      29.893  15.057   3.844  0.00  0.00     0.056 A 
HETATM   11  C   UNK N   1      32.158  14.671   3.810  0.00  0.00     0.104 A 
HETATM   12  C   UNK N   1      33.446  16.430   6.371  0.00  0.00     0.014 A 
HETATM   13  C   UNK N   1      27.324  15.223   3.691  0.00  0.00    -0.018 A 
HETATM   14  C   UNK N   1      26.181  16.151   5.750  0.00  0.00     0.044 C 
HETATM   15  C   UNK N   1      32.242  18.136   8.301  0.00  0.00     0.030 A 
HETATM   16  C   UNK N   1      30.334  14.143   2.782  0.00  0.00     0.257 A 
HETATM   17  N   UNK N   1      31.673  13.980   2.839  0.00  0.00    -0.332 N 
ATOM     18  HN  UNK N   1      32.220  13.395   2.206  1.00  0.00     0.168 HD
HETATM   19  C   UNK N   1      34.231  17.062   7.352  0.00  0.00     0.001 A 
HETATM   20  C   UNK N   1      26.131  15.502   4.396  0.00  0.00    -0.044 A 
HETATM   21  C   UNK N   1      27.241  14.552   2.471  0.00  0.00     0.015 A 
HETATM   22  C   UNK N   1      33.632  17.910   8.313  0.00  0.00     0.002 A 
HETATM   23  O   UNK N   1      29.642  13.583   1.951  0.00  0.00    -0.267 OA
HETATM   24  C   UNK N   1      24.898  15.072   3.889  0.00  0.00     0.044 A 
HETATM   25  C   UNK N   1      26.018  14.130   1.966  0.00  0.00     0.037 A 
HETATM   26  C   UNK N   1      24.836  14.371   2.678  0.00  0.00     0.069 A 
ENDROOT
BRANCH   4  27
HETATM   27  C   UNK N   1      29.213  18.353   7.917  0.00  0.00     0.155 C 
BRANCH  27  28
HETATM   28  C   UNK N   1      28.748  17.574   9.133  0.00  0.00     0.184 C 
BRANCH  28  29
HETATM   29  O   UNK N   1      27.438  17.937   9.437  0.00  0.00    -0.399 OA
HETATM   30  H   UNK N   1      27.209  18.395  10.262  0.00  0.00     0.209 HD
ENDBRANCH  28  29
ENDBRANCH  27  28
ENDBRANCH   4  27
BRANCH  26  31
HETATM   31  O   UNK N   1      23.638  13.897   2.243  0.00  0.00    -0.347 OA
BRANCH  31  32
HETATM   32  C   UNK N   1      23.052  14.188   1.018  0.00  0.00     0.120 C 
HETATM   33  C   UNK N   1      21.625  14.695   1.186  0.00  0.00     0.040 C 
HETATM   34  C   UNK N   1      23.097  13.007   0.062  0.00  0.00     0.040 C 
ENDBRANCH  31  32
ENDBRANCH  26  31
TORSDOF 5
ENDMDL
MODEL 8
REMARK VINA RESULT:      -7.4      2.127      7.783
REMARK  5 active torsions:
REMARK  status: ('A' for Active; 'I' for Inactive)
REMARK    1  A    between atoms: N_4  and  C_10 
REMARK    2  A    between atoms: C_10  and  C_17 
REMARK    3  A    between atoms: O_25  and  C_17 
REMARK    4  A    between atoms: O_30  and  C_29 
REMARK    5  A    between atoms: C_31  and  O_30 
ROOT
HETATM    1  C   UNK N   1      30.642  17.012   6.701  0.00  0.00     0.054 A 
HETATM    2  C   UNK N   1      30.352  16.700   5.385  0.00  0.00     0.017 A 
HETATM    3  C   UNK N   1      31.766  16.444   7.353  0.00  0.00    -0.018 A 
HETATM    4  N   UNK N   1      29.708  17.883   7.181  0.00  0.00    -0.343 N 
HETATM    5  C   UNK N   1      31.146  15.823   4.678  0.00  0.00     0.009 A 
HETATM    6  C   UNK N   1      29.221  17.398   5.041  0.00  0.00     0.004 A 
HETATM    7  C   UNK N   1      32.610  15.549   6.616  0.00  0.00    -0.000 A 
HETATM    8  C   UNK N   1      32.070  16.722   8.799  0.00  0.00     0.046 C 
HETATM    9  C   UNK N   1      28.849  18.110   6.159  0.00  0.00     0.046 A 
HETATM   10  C   UNK N   1      32.251  15.250   5.261  0.00  0.00     0.056 A 
HETATM   11  C   UNK N   1      31.058  15.338   3.299  0.00  0.00     0.104 A 
HETATM   12  C   UNK N   1      28.504  17.456   3.850  0.00  0.00     0.014 A 
HETATM   13  C   UNK N   1      33.836  15.026   7.284  0.00  0.00    -0.018 A 
HETATM   14  C   UNK N   1      33.568  16.807   9.063  0.00  0.00     0.044 C 
HETATM   15  C   UNK N   1      27.722  18.934   6.150  0.00  0.00     0.030 A 
HETATM   16  C   UNK N   1      32.808  14.429   4.178  0.00  0.00     0.257 A 
HETATM   17  N   UNK N   1      32.042  14.540   3.072  0.00  0.00    -0.332 N 
ATOM     18  HN  UNK N   1      32.217  14.064   2.187  1.00  0.00     0.168 HD
HETATM   19  C   UNK N   1      27.365  18.281   3.814  0.00  0.00     0.001 A 
HETATM   20  C   UNK N   1      34.297  15.633   8.474  0.00  0.00    -0.044 A 
HETATM   21  C   UNK N   1      34.581  13.988   6.726  0.00  0.00     0.015 A 
HETATM   22  C   UNK N   1      26.977  19.017   4.958  0.00  0.00     0.002 A 
HETATM   23  O   UNK N   1      33.808  13.735   4.214  0.00  0.00    -0.267 OA
HETATM   24  C   UNK N   1      35.504  15.217   9.051  0.00  0.00     0.044 A 
HETATM   25  C   UNK N   1      35.775  13.573   7.303  0.00  0.00     0.037 A 
HETATM   26  C   UNK N   1      36.256  14.194   8.461  0.00  0.00     0.069 A 
ENDROOT
BRANCH   4  27
HETATM   27  C   UNK N   1      29.608  18.466   8.515  0.00  0.00     0.155 C 
BRANCH  27  28
HETATM   28  C   UNK N   1      28.714  17.624   9.405  0.00  0.00     0.184 C 
BRANCH  28  29
HETATM   29  O   UNK N   1      27.438  18.185   9.437  0.00  0.00    -0.399 OA
HETATM   30  H   UNK N   1      27.167  18.810  10.128  0.00  0.00     0.209 HD
ENDBRANCH  28  29
ENDBRANCH  27  28
ENDBRANCH   4  27
BRANCH  26  31
HETATM   31  O   UNK N   1      37.461  13.859   8.996  0.00  0.00    -0.347 OA
BRANCH  31  32
HETATM   32  C   UNK N   1      37.724  12.715   9.738  0.00  0.00     0.120 C 
HETATM   33  C   UNK N   1      37.561  12.968  11.232  0.00  0.00     0.040 C 
HETATM   34  C   UNK N   1      39.095  12.133   9.435  0.00  0.00     0.040 C 
ENDBRANCH  31  32
ENDBRANCH  26  31
TORSDOF 5
ENDMDL
MODEL 9
REMARK VINA RESULT:      -7.4      3.646      6.689
REMARK  5 active torsions:
REMARK  status: ('A' for Active; 'I' for Inactive)
REMARK    1  A    between atoms: N_4  and  C_10 
REMARK    2  A    between atoms: C_10  and  C_17 
REMARK    3  A    between atoms: O_25  and  C_17 
REMARK    4  A    between atoms: O_30  and  C_29 
REMARK    5  A    between atoms: C_31  and  O_30 
ROOT
HETATM    1  C   UNK N   1      34.533  12.004  10.339  0.00  0.00     0.054 A 
HETATM    2  C   UNK N   1      35.171  12.456  11.479  0.00  0.00     0.017 A 
HETATM    3  C   UNK N   1      34.172  12.901   9.301  0.00  0.00    -0.018 A 
HETATM    4  N   UNK N   1      34.341  10.655  10.426  0.00  0.00    -0.343 N 
HETATM    5  C   UNK N   1      35.466  13.793  11.637  0.00  0.00     0.009 A 
HETATM    6  C   UNK N   1      35.387  11.366  12.285  0.00  0.00     0.004 A 
HETATM    7  C   UNK N   1      34.498  14.289   9.449  0.00  0.00    -0.000 A 
HETATM    8  C   UNK N   1      33.427  12.443   8.078  0.00  0.00     0.046 C 
HETATM    9  C   UNK N   1      34.867  10.280  11.617  0.00  0.00     0.046 A 
HETATM   10  C   UNK N   1      35.145  14.703  10.658  0.00  0.00     0.056 A 
HETATM   11  C   UNK N   1      36.126  14.513  12.727  0.00  0.00     0.104 A 
HETATM   12  C   UNK N   1      35.989  11.251  13.534  0.00  0.00     0.014 A 
HETATM   13  C   UNK N   1      34.192  15.209   8.316  0.00  0.00    -0.018 A 
HETATM   14  C   UNK N   1      33.871  13.188   6.825  0.00  0.00     0.044 C 
HETATM   15  C   UNK N   1      34.920   8.998  12.166  0.00  0.00     0.030 A 
HETATM   16  C   UNK N   1      35.647  15.970  11.207  0.00  0.00     0.257 A 
HETATM   17  N   UNK N   1      36.201  15.761  12.421  0.00  0.00    -0.332 N 
ATOM     18  HN  UNK N   1      36.617  16.484  13.007  1.00  0.00     0.168 HD
HETATM   19  C   UNK N   1      36.057   9.970  14.110  0.00  0.00     0.001 A 
HETATM   20  C   UNK N   1      33.883  14.674   7.045  0.00  0.00    -0.044 A 
HETATM   21  C   UNK N   1      34.267  16.594   8.462  0.00  0.00     0.015 A 
HETATM   22  C   UNK N   1      35.526   8.849  13.429  0.00  0.00     0.002 A 
HETATM   23  O   UNK N   1      35.602  17.071  10.689  0.00  0.00    -0.267 OA
HETATM   24  C   UNK N   1      33.697  15.529   5.950  0.00  0.00     0.044 A 
HETATM   25  C   UNK N   1      34.077  17.440   7.377  0.00  0.00     0.037 A 
HETATM   26  C   UNK N   1      33.807  16.916   6.107  0.00  0.00     0.069 A 
ENDROOT
BRANCH   4  27
HETATM   27  C   UNK N   1      33.698   9.763   9.467  0.00  0.00     0.155 C 
BRANCH  27  28
HETATM   28  C   UNK N   1      32.295   9.407   9.920  0.00  0.00     0.184 C 
BRANCH  28  29
HETATM   29  O   UNK N   1      31.397   9.677   8.888  0.00  0.00    -0.399 OA
HETATM   30  H   UNK N   1      31.022  10.561   8.750  0.00  0.00     0.209 HD
ENDBRANCH  28  29
ENDBRANCH  27  28
ENDBRANCH   4  27
BRANCH  26  31
HETATM   31  O   UNK N   1      33.698  17.721   5.016  0.00  0.00    -0.347 OA
BRANCH  31  32
HETATM   32  C   UNK N   1      32.642  17.718   4.114  0.00  0.00     0.120 C 
HETATM   33  C   UNK N   1      31.308  17.496   4.816  0.00  0.00     0.040 C 
HETATM   34  C   UNK N   1      32.840  16.709   2.996  0.00  0.00     0.040 C 
ENDBRANCH  31  32
ENDBRANCH  26  31
TORSDOF 5
ENDMDL
