REMARK  5 active torsions:
REMARK  status: ('A' for Active; 'I' for Inactive)
REMARK    1  A    between atoms: N_4  and  C_10 
REMARK    2  A    between atoms: C_10  and  C_17 
REMARK    3  A    between atoms: O_25  and  C_17 
REMARK    4  A    between atoms: O_30  and  C_29 
REMARK    5  A    between atoms: C_31  and  O_30 
ROOT
HETATM    1  C   UNK N   1       2.054  -0.180   0.206  0.00  0.00     0.054 A 
HETATM    2  C   UNK N   1       2.552   1.098   0.032  0.00  0.00     0.017 A 
HETATM    3  C   UNK N   1       0.657  -0.413   0.291  0.00  0.00    -0.018 A 
HETATM    4  N   UNK N   1       3.088  -1.068   0.278  0.00  0.00    -0.343 N 
HETATM    5  C   UNK N   1       1.701   2.179  -0.056  0.00  0.00     0.009 A 
HETATM    6  C   UNK N   1       3.920   1.000  -0.014  0.00  0.00     0.004 A 
HETATM    7  C   UNK N   1      -0.234   0.704   0.176  0.00  0.00    -0.000 A 
HETATM    8  C   UNK N   1       0.094  -1.785   0.538  0.00  0.00     0.046 C 
HETATM    9  C   UNK N   1       4.219  -0.335   0.142  0.00  0.00     0.046 A 
HETATM   10  C   UNK N   1       0.339   2.007   0.013  0.00  0.00     0.056 A 
HETATM   11  C   UNK N   1       1.970   3.606  -0.240  0.00  0.00     0.104 A 
HETATM   12  C   UNK N   1       4.906   1.968  -0.175  0.00  0.00     0.014 A 
HETATM   13  C   UNK N   1      -1.701   0.438   0.180  0.00  0.00    -0.018 A 
HETATM   14  C   UNK N   1      -1.209  -2.013  -0.219  0.00  0.00     0.044 C 
HETATM   15  C   UNK N   1       5.540  -0.786   0.144  0.00  0.00     0.030 A 
HETATM   16  C   UNK N   1      -0.175   3.374  -0.147  0.00  0.00     0.257 A 
HETATM   17  N   UNK N   1       0.851   4.241  -0.285  0.00  0.00    -0.332 N 
ATOM     18  HN  UNK N   1       0.754   5.249  -0.407  1.00  0.00     0.168 HD
HETATM   19  C   UNK N   1       6.246   1.540  -0.178  0.00  0.00     0.001 A 
HETATM   20  C   UNK N   1      -2.173  -0.881  -0.006  0.00  0.00    -0.044 A 
HETATM   21  C   UNK N   1      -2.628   1.473   0.299  0.00  0.00     0.015 A 
HETATM   22  C   UNK N   1       6.561   0.170  -0.020  0.00  0.00     0.002 A 
HETATM   23  O   UNK N   1      -1.339   3.730  -0.165  0.00  0.00    -0.267 OA
HETATM   24  C   UNK N   1      -3.549  -1.126  -0.108  0.00  0.00     0.044 A 
HETATM   25  C   UNK N   1      -3.992   1.228   0.203  0.00  0.00     0.037 A 
HETATM   26  C   UNK N   1      -4.465  -0.071  -0.018  0.00  0.00     0.069 A 
ENDROOT
BRANCH   4  27
HETATM   27  C   UNK N   1       3.035  -2.513   0.472  0.00  0.00     0.155 C 
BRANCH  27  28
HETATM   28  C   UNK N   1       2.469  -3.201  -0.756  0.00  0.00     0.184 C 
BRANCH  28  29
HETATM   29  O   UNK N   1       2.042  -4.482  -0.409  0.00  0.00    -0.399 OA
HETATM   30  H   UNK N   1       1.121  -4.670  -0.168  0.00  0.00     0.209 HD
ENDBRANCH  28  29
ENDBRANCH  27  28
ENDBRANCH   4  27
BRANCH  26  31
HETATM   31  O   UNK N   1      -5.790  -0.322  -0.196  0.00  0.00    -0.347 OA
BRANCH  31  32
HETATM   32  C   UNK N   1      -6.780   0.640  -0.348  0.00  0.00     0.120 C 
HETATM   33  C   UNK N   1      -6.528   1.513  -1.571  0.00  0.00     0.040 C 
HETATM   34  C   UNK N   1      -6.953   1.492   0.898  0.00  0.00     0.040 C 
ENDBRANCH  31  32
ENDBRANCH  26  31
TORSDOF 5
