MODEL 1
REMARK VINA RESULT:      -7.0      0.000      0.000
REMARK  9 active torsions:
REMARK  status: ('A' for Active; 'I' for Inactive)
REMARK    1  A    between atoms: C_2  and  C_3 
REMARK    2  A    between atoms: C_3  and  C_4 
REMARK    3  A    between atoms: C_4  and  C_5 
REMARK       I    between atoms: C_5  and  N_7 
REMARK    4  A    between atoms: C_8  and  N_7 
REMARK    5  A    between atoms: C_9  and  O_10 
REMARK    6  A    between atoms: C_13  and  C_14 
REMARK    7  A    between atoms: N_18  and  O_20 
REMARK    8  A    between atoms: O_20  and  C_21 
REMARK       I    between atoms: C_21  and  N_23 
REMARK    9  A    between atoms: N_23  and  C_24 
ROOT
HETATM    1  C   UNK N   1      32.435  17.460   6.946  0.00  0.00     0.192 C 
HETATM    2  C   UNK N   1      33.908  17.130   6.555  0.00  0.00     0.180 C 
HETATM    3  C   UNK N   1      34.632  16.252   7.590  0.00  0.00     0.180 C 
HETATM    4  O   UNK N   1      34.032  14.992   7.690  0.00  0.00    -0.390 OA
HETATM    5  C   UNK N   1      34.549  17.009   8.925  0.00  0.00     0.185 C 
HETATM    6  O   UNK N   1      33.234  17.128   9.309  0.00  0.00    -0.326 OA
HETATM    7  C   UNK N   1      32.228  17.473   8.465  0.00  0.00     0.165 C 
HETATM    8  N   UNK N   1      31.095  17.778   8.991  0.00  0.00    -0.236 N 
ATOM      9  HN  UNK N   1      31.000  17.712  10.004  1.00  0.00     0.197 HD
HETATM   10  H   UNK N   1      33.743  14.072   7.797  0.00  0.00     0.210 HD
ENDROOT
BRANCH   2  11
HETATM   11  O   UNK N   1      33.997  16.569   5.277  0.00  0.00    -0.390 OA
HETATM   12  H   UNK N   1      34.222  17.117   4.510  0.00  0.00     0.210 HD
ENDBRANCH   2  11
BRANCH   5  13
HETATM   13  C   UNK N   1      35.363  16.378  10.051  0.00  0.00     0.199 C 
HETATM   14  O   UNK N   1      35.020  16.923  11.288  0.00  0.00    -0.398 OA
HETATM   15  H   UNK N   1      34.727  17.352  12.108  0.00  0.00     0.209 HD
ENDBRANCH   5  13
BRANCH   1  16
HETATM   16  N   UNK N   1      31.506  16.522   6.332  0.00  0.00    -0.346 N 
HETATM   17  C   UNK N   1      30.922  16.773   5.126  0.00  0.00     0.218 C 
HETATM   18  O   UNK N   1      31.191  17.795   4.507  0.00  0.00    -0.274 OA
HETATM   19  H   UNK N   1      31.293  15.684   6.801  0.00  0.00     0.163 HD
BRANCH  17  20
HETATM   20  C   UNK N   1      29.919  15.814   4.561  0.00  0.00     0.103 C 
BRANCH  20  21
HETATM   21  C   UNK N   1      29.544  16.185   3.132  0.00  0.00     0.009 C 
BRANCH  21  22
HETATM   22  C   UNK N   1      28.095  15.819   2.858  0.00  0.00    -0.004 C 
HETATM   23  C   UNK N   1      27.441  15.340   4.137  0.00  0.00     0.005 C 
ENDBRANCH  21  22
ENDBRANCH  20  21
ENDBRANCH  17  20
ENDBRANCH   1  16
BRANCH   8  24
HETATM   24  O   UNK N   1      30.057  18.171   8.295  0.00  0.00    -0.179 OA
BRANCH  24  25
HETATM   25  C   UNK N   1      28.850  18.462   8.859  0.00  0.00     0.387 C 
HETATM   26  O   UNK N   1      28.684  18.155  10.027  0.00  0.00    -0.236 OA
HETATM   27  N   UNK N   1      27.819  19.108   8.217  0.00  0.00    -0.301 N 
HETATM   28  H   UNK N   1      27.077  19.339   8.821  0.00  0.00     0.171 HD
BRANCH  27  29
HETATM   29  C   UNK N   1      27.586  19.524   6.866  0.00  0.00     0.036 A 
HETATM   30  C   UNK N   1      27.881  18.730   5.746  0.00  0.00     0.029 A 
HETATM   31  C   UNK N   1      27.613  19.182   4.451  0.00  0.00     0.002 A 
HETATM   32  C   UNK N   1      27.010  20.425   4.259  0.00  0.00     0.000 A 
HETATM   33  C   UNK N   1      26.668  21.208   5.364  0.00  0.00     0.002 A 
HETATM   34  C   UNK N   1      26.952  20.756   6.657  0.00  0.00     0.029 A 
ENDBRANCH  27  29
ENDBRANCH  24  25
ENDBRANCH   8  24
TORSDOF 9
ENDMDL
MODEL 2
REMARK VINA RESULT:      -6.9      3.923      6.219
REMARK  9 active torsions:
REMARK  status: ('A' for Active; 'I' for Inactive)
REMARK    1  A    between atoms: C_2  and  C_3 
REMARK    2  A    between atoms: C_3  and  C_4 
REMARK    3  A    between atoms: C_4  and  C_5 
REMARK       I    between atoms: C_5  and  N_7 
REMARK    4  A    between atoms: C_8  and  N_7 
REMARK    5  A    between atoms: C_9  and  O_10 
REMARK    6  A    between atoms: C_13  and  C_14 
REMARK    7  A    between atoms: N_18  and  O_20 
REMARK    8  A    between atoms: O_20  and  C_21 
REMARK       I    between atoms: C_21  and  N_23 
REMARK    9  A    between atoms: N_23  and  C_24 
ROOT
HETATM    1  C   UNK N   1      36.179  13.895  10.720  0.00  0.00     0.192 C 
HETATM    2  C   UNK N   1      37.113  12.961  11.548  0.00  0.00     0.180 C 
HETATM    3  C   UNK N   1      36.423  12.334  12.771  0.00  0.00     0.180 C 
HETATM    4  O   UNK N   1      35.380  11.487  12.382  0.00  0.00    -0.390 OA
HETATM    5  C   UNK N   1      35.894  13.508  13.611  0.00  0.00     0.185 C 
HETATM    6  O   UNK N   1      34.949  14.202  12.893  0.00  0.00    -0.326 OA
HETATM    7  C   UNK N   1      35.086  14.535  11.584  0.00  0.00     0.165 C 
HETATM    8  N   UNK N   1      34.248  15.381  11.099  0.00  0.00    -0.236 N 
ATOM      9  HN  UNK N   1      33.507  15.728  11.707  1.00  0.00     0.197 HD
HETATM   10  H   UNK N   1      34.682  10.830  12.231  0.00  0.00     0.210 HD
ENDROOT
BRANCH   2  11
HETATM   11  O   UNK N   1      37.707  11.976  10.752  0.00  0.00    -0.390 OA
HETATM   12  H   UNK N   1      38.408  12.204  10.123  0.00  0.00     0.210 HD
ENDBRANCH   2  11
BRANCH   5  13
HETATM   13  C   UNK N   1      35.321  13.098  14.964  0.00  0.00     0.199 C 
HETATM   14  O   UNK N   1      34.094  12.451  14.818  0.00  0.00    -0.398 OA
HETATM   15  H   UNK N   1      33.248  12.013  14.633  0.00  0.00     0.209 HD
ENDBRANCH   5  13
BRANCH   1  16
HETATM   16  N   UNK N   1      35.568  13.177   9.610  0.00  0.00    -0.346 N 
HETATM   17  C   UNK N   1      35.917  13.422   8.315  0.00  0.00     0.218 C 
HETATM   18  O   UNK N   1      36.785  14.244   8.052  0.00  0.00    -0.274 OA
HETATM   19  H   UNK N   1      34.884  12.495   9.800  0.00  0.00     0.163 HD
BRANCH  17  20
HETATM   20  C   UNK N   1      35.215  12.710   7.200  0.00  0.00     0.103 C 
BRANCH  20  21
HETATM   21  C   UNK N   1      34.458  13.689   6.310  0.00  0.00     0.009 C 
BRANCH  21  22
HETATM   22  C   UNK N   1      33.032  13.853   6.806  0.00  0.00    -0.004 C 
HETATM   23  C   UNK N   1      32.063  13.537   5.687  0.00  0.00     0.005 C 
ENDBRANCH  21  22
ENDBRANCH  20  21
ENDBRANCH  17  20
ENDBRANCH   1  16
BRANCH   8  24
HETATM   24  O   UNK N   1      34.296  15.820   9.866  0.00  0.00    -0.179 OA
BRANCH  24  25
HETATM   25  C   UNK N   1      34.776  17.052   9.533  0.00  0.00     0.387 C 
HETATM   26  O   UNK N   1      35.605  17.553  10.272  0.00  0.00    -0.236 OA
HETATM   27  N   UNK N   1      34.418  17.755   8.406  0.00  0.00    -0.301 N 
HETATM   28  H   UNK N   1      34.960  18.567   8.274  0.00  0.00     0.171 HD
BRANCH  27  29
HETATM   29  C   UNK N   1      33.435  17.570   7.381  0.00  0.00     0.036 A 
HETATM   30  C   UNK N   1      33.746  17.459   6.016  0.00  0.00     0.029 A 
HETATM   31  C   UNK N   1      32.743  17.260   5.062  0.00  0.00     0.002 A 
HETATM   32  C   UNK N   1      31.414  17.132   5.466  0.00  0.00     0.000 A 
HETATM   33  C   UNK N   1      31.093  17.195   6.824  0.00  0.00     0.002 A 
HETATM   34  C   UNK N   1      32.099  17.409   7.772  0.00  0.00     0.029 A 
ENDBRANCH  27  29
ENDBRANCH  24  25
ENDBRANCH   8  24
TORSDOF 9
ENDMDL
MODEL 3
REMARK VINA RESULT:      -6.8      5.695     10.713
REMARK  9 active torsions:
REMARK  status: ('A' for Active; 'I' for Inactive)
REMARK    1  A    between atoms: C_2  and  C_3 
REMARK    2  A    between atoms: C_3  and  C_4 
REMARK    3  A    between atoms: C_4  and  C_5 
REMARK       I    between atoms: C_5  and  N_7 
REMARK    4  A    between atoms: C_8  and  N_7 
REMARK    5  A    between atoms: C_9  and  O_10 
REMARK    6  A    between atoms: C_13  and  C_14 
REMARK    7  A    between atoms: N_18  and  O_20 
REMARK    8  A    between atoms: O_20  and  C_21 
REMARK       I    between atoms: C_21  and  N_23 
REMARK    9  A    between atoms: N_23  and  C_24 
ROOT
HETATM    1  C   UNK N   1      36.064  13.817  10.237  0.00  0.00     0.192 C 
HETATM    2  C   UNK N   1      36.251  15.339   9.953  0.00  0.00     0.180 C 
HETATM    3  C   UNK N   1      34.924  16.086   9.734  0.00  0.00     0.180 C 
HETATM    4  O   UNK N   1      34.137  16.066  10.890  0.00  0.00    -0.390 OA
HETATM    5  C   UNK N   1      34.217  15.369   8.573  0.00  0.00     0.185 C 
HETATM    6  O   UNK N   1      33.925  14.075   8.938  0.00  0.00    -0.326 OA
HETATM    7  C   UNK N   1      34.793  13.258   9.587  0.00  0.00     0.165 C 
HETATM    8  N   UNK N   1      34.489  12.011   9.659  0.00  0.00    -0.236 N 
ATOM      9  HN  UNK N   1      33.602  11.707   9.258  1.00  0.00     0.197 HD
HETATM   10  H   UNK N   1      33.537  16.173  11.645  0.00  0.00     0.210 HD
ENDROOT
BRANCH   2  11
HETATM   11  O   UNK N   1      37.017  15.965  10.941  0.00  0.00    -0.390 OA
HETATM   12  H   UNK N   1      37.472  16.802  10.759  0.00  0.00     0.210 HD
ENDBRANCH   2  11
BRANCH   5  13
HETATM   13  C   UNK N   1      32.952  16.068   8.086  0.00  0.00     0.199 C 
HETATM   14  O   UNK N   1      32.040  16.247   9.126  0.00  0.00    -0.398 OA
HETATM   15  H   UNK N   1      31.462  16.332   9.901  0.00  0.00     0.209 HD
ENDBRANCH   5  13
BRANCH   1  16
HETATM   16  N   UNK N   1      36.041  13.549  11.669  0.00  0.00    -0.346 N 
HETATM   17  C   UNK N   1      37.018  12.819  12.279  0.00  0.00     0.218 C 
HETATM   18  O   UNK N   1      37.966  12.389  11.635  0.00  0.00    -0.274 OA
HETATM   19  H   UNK N   1      35.301  13.904  12.210  0.00  0.00     0.163 HD
BRANCH  17  20
HETATM   20  C   UNK N   1      36.921  12.508  13.741  0.00  0.00     0.103 C 
BRANCH  20  21
HETATM   21  C   UNK N   1      36.060  13.534  14.468  0.00  0.00     0.009 C 
BRANCH  21  22
HETATM   22  C   UNK N   1      36.462  13.612  15.932  0.00  0.00    -0.004 C 
HETATM   23  C   UNK N   1      35.240  13.425  16.806  0.00  0.00     0.005 C 
ENDBRANCH  21  22
ENDBRANCH  20  21
ENDBRANCH  17  20
ENDBRANCH   1  16
BRANCH   8  24
HETATM   24  O   UNK N   1      35.258  11.110  10.217  0.00  0.00    -0.179 OA
BRANCH  24  25
HETATM   25  C   UNK N   1      34.916   9.793  10.309  0.00  0.00     0.387 C 
HETATM   26  O   UNK N   1      34.804   9.165   9.270  0.00  0.00    -0.236 OA
HETATM   27  N   UNK N   1      34.723   9.113  11.489  0.00  0.00    -0.301 N 
HETATM   28  H   UNK N   1      34.603   8.144  11.357  0.00  0.00     0.171 HD
BRANCH  27  29
HETATM   29  C   UNK N   1      34.659   9.498  12.868  0.00  0.00     0.036 A 
HETATM   30  C   UNK N   1      33.742  10.434  13.372  0.00  0.00     0.029 A 
HETATM   31  C   UNK N   1      33.715  10.756  14.732  0.00  0.00     0.002 A 
HETATM   32  C   UNK N   1      34.584  10.118  15.616  0.00  0.00     0.000 A 
HETATM   33  C   UNK N   1      35.472   9.152  15.138  0.00  0.00     0.002 A 
HETATM   34  C   UNK N   1      35.505   8.844  13.773  0.00  0.00     0.029 A 
ENDBRANCH  27  29
ENDBRANCH  24  25
ENDBRANCH   8  24
TORSDOF 9
ENDMDL
MODEL 4
REMARK VINA RESULT:      -6.7      2.554      4.805
REMARK  9 active torsions:
REMARK  status: ('A' for Active; 'I' for Inactive)
REMARK    1  A    between atoms: C_2  and  C_3 
REMARK    2  A    between atoms: C_3  and  C_4 
REMARK    3  A    between atoms: C_4  and  C_5 
REMARK       I    between atoms: C_5  and  N_7 
REMARK    4  A    between atoms: C_8  and  N_7 
REMARK    5  A    between atoms: C_9  and  O_10 
REMARK    6  A    between atoms: C_13  and  C_14 
REMARK    7  A    between atoms: N_18  and  O_20 
REMARK    8  A    between atoms: O_20  and  C_21 
REMARK       I    between atoms: C_21  and  N_23 
REMARK    9  A    between atoms: N_23  and  C_24 
ROOT
HETATM    1  C   UNK N   1      33.636  15.128   8.784  0.00  0.00     0.192 C 
HETATM    2  C   UNK N   1      33.957  14.536  10.190  0.00  0.00     0.180 C 
HETATM    3  C   UNK N   1      35.439  14.660  10.582  0.00  0.00     0.180 C 
HETATM    4  O   UNK N   1      35.818  16.001  10.700  0.00  0.00    -0.390 OA
HETATM    5  C   UNK N   1      36.234  13.959   9.470  0.00  0.00     0.185 C 
HETATM    6  O   UNK N   1      36.048  14.621   8.279  0.00  0.00    -0.326 OA
HETATM    7  C   UNK N   1      34.842  15.064   7.840  0.00  0.00     0.165 C 
HETATM    8  N   UNK N   1      34.765  15.453   6.617  0.00  0.00    -0.236 N 
ATOM      9  HN  UNK N   1      35.615  15.442   6.053  1.00  0.00     0.197 HD
HETATM   10  H   UNK N   1      36.177  16.885  10.874  0.00  0.00     0.210 HD
ENDROOT
BRANCH   2  11
HETATM   11  O   UNK N   1      33.133  15.073  11.184  0.00  0.00    -0.390 OA
HETATM   12  H   UNK N   1      32.204  15.281  10.999  0.00  0.00     0.210 HD
ENDBRANCH   2  11
BRANCH   5  13
HETATM   13  C   UNK N   1      37.726  13.823   9.760  0.00  0.00     0.199 C 
HETATM   14  O   UNK N   1      38.285  15.049  10.118  0.00  0.00    -0.398 OA
HETATM   15  H   UNK N   1      38.597  15.937  10.357  0.00  0.00     0.209 HD
ENDBRANCH   5  13
BRANCH   1  16
HETATM   16  N   UNK N   1      33.167  16.503   8.888  0.00  0.00    -0.346 N 
HETATM   17  C   UNK N   1      31.868  16.840   8.646  0.00  0.00     0.218 C 
HETATM   18  O   UNK N   1      31.046  15.978   8.358  0.00  0.00    -0.274 OA
HETATM   19  H   UNK N   1      33.804  17.208   9.139  0.00  0.00     0.163 HD
BRANCH  17  20
HETATM   20  C   UNK N   1      31.441  18.274   8.696  0.00  0.00     0.103 C 
BRANCH  20  21
HETATM   21  C   UNK N   1      30.121  18.432   9.439  0.00  0.00     0.009 C 
BRANCH  21  22
HETATM   22  C   UNK N   1      28.996  18.711   8.456  0.00  0.00    -0.004 C 
HETATM   23  C   UNK N   1      27.997  17.574   8.490  0.00  0.00     0.005 C 
ENDBRANCH  21  22
ENDBRANCH  20  21
ENDBRANCH  17  20
ENDBRANCH   1  16
BRANCH   8  24
HETATM   24  O   UNK N   1      33.654  15.860   6.056  0.00  0.00    -0.179 OA
BRANCH  24  25
HETATM   25  C   UNK N   1      33.430  17.158   5.704  0.00  0.00     0.387 C 
HETATM   26  O   UNK N   1      34.253  17.987   6.053  0.00  0.00    -0.236 OA
HETATM   27  N   UNK N   1      32.363  17.595   4.954  0.00  0.00    -0.301 N 
HETATM   28  H   UNK N   1      32.438  18.544   4.698  0.00  0.00     0.171 HD
BRANCH  27  29
HETATM   29  C   UNK N   1      31.169  16.979   4.459  0.00  0.00     0.036 A 
HETATM   30  C   UNK N   1      31.085  16.331   3.216  0.00  0.00     0.029 A 
HETATM   31  C   UNK N   1      29.895  15.730   2.795  0.00  0.00     0.002 A 
HETATM   32  C   UNK N   1      28.778  15.739   3.630  0.00  0.00     0.000 A 
HETATM   33  C   UNK N   1      28.857  16.340   4.887  0.00  0.00     0.002 A 
HETATM   34  C   UNK N   1      30.046  16.952   5.298  0.00  0.00     0.029 A 
ENDBRANCH  27  29
ENDBRANCH  24  25
ENDBRANCH   8  24
TORSDOF 9
ENDMDL
MODEL 5
REMARK VINA RESULT:      -6.6      9.061     11.941
REMARK  9 active torsions:
REMARK  status: ('A' for Active; 'I' for Inactive)
REMARK    1  A    between atoms: C_2  and  C_3 
REMARK    2  A    between atoms: C_3  and  C_4 
REMARK    3  A    between atoms: C_4  and  C_5 
REMARK       I    between atoms: C_5  and  N_7 
REMARK    4  A    between atoms: C_8  and  N_7 
REMARK    5  A    between atoms: C_9  and  O_10 
REMARK    6  A    between atoms: C_13  and  C_14 
REMARK    7  A    between atoms: N_18  and  O_20 
REMARK    8  A    between atoms: O_20  and  C_21 
REMARK       I    between atoms: C_21  and  N_23 
REMARK    9  A    between atoms: N_23  and  C_24 
ROOT
HETATM    1  C   UNK N   1      21.409  17.220   3.921  0.00  0.00     0.192 C 
HETATM    2  C   UNK N   1      22.352  18.462   3.944  0.00  0.00     0.180 C 
HETATM    3  C   UNK N   1      21.685  19.746   3.422  0.00  0.00     0.180 C 
HETATM    4  O   UNK N   1      20.621  20.131   4.244  0.00  0.00    -0.390 OA
HETATM    5  C   UNK N   1      21.194  19.424   2.001  0.00  0.00     0.185 C 
HETATM    6  O   UNK N   1      20.240  18.435   2.054  0.00  0.00    -0.326 OA
HETATM    7  C   UNK N   1      20.348  17.319   2.820  0.00  0.00     0.165 C 
HETATM    8  N   UNK N   1      19.509  16.370   2.602  0.00  0.00    -0.236 N 
ATOM      9  HN  UNK N   1      18.789  16.516   1.895  1.00  0.00     0.197 HD
HETATM   10  H   UNK N   1      19.910  20.529   4.771  0.00  0.00     0.210 HD
ENDROOT
BRANCH   2  11
HETATM   11  O   UNK N   1      22.911  18.671   5.209  0.00  0.00    -0.390 OA
HETATM   12  H   UNK N   1      23.854  18.506   5.367  0.00  0.00     0.210 HD
ENDBRANCH   2  11
BRANCH   5  13
HETATM   13  C   UNK N   1      20.650  20.629   1.241  0.00  0.00     0.199 C 
HETATM   14  O   UNK N   1      20.603  20.383  -0.131  0.00  0.00    -0.398 OA
HETATM   15  H   UNK N   1      20.603  20.134  -1.069  0.00  0.00     0.209 HD
ENDBRANCH   5  13
BRANCH   1  16
HETATM   16  N   UNK N   1      20.760  17.031   5.212  0.00  0.00    -0.346 N 
HETATM   17  C   UNK N   1      21.277  16.200   6.161  0.00  0.00     0.218 C 
HETATM   18  O   UNK N   1      22.329  15.607   5.961  0.00  0.00    -0.274 OA
HETATM   19  H   UNK N   1      19.926  17.515   5.403  0.00  0.00     0.163 HD
BRANCH  17  20
HETATM   20  C   UNK N   1      20.542  15.980   7.448  0.00  0.00     0.103 C 
BRANCH  20  21
HETATM   21  C   UNK N   1      20.720  14.551   7.948  0.00  0.00     0.009 C 
BRANCH  21  22
HETATM   22  C   UNK N   1      20.946  14.546   9.450  0.00  0.00    -0.004 C 
HETATM   23  C   UNK N   1      21.609  13.249   9.861  0.00  0.00     0.005 C 
ENDBRANCH  21  22
ENDBRANCH  20  21
ENDBRANCH  17  20
ENDBRANCH   1  16
BRANCH   8  24
HETATM   24  O   UNK N   1      19.531  15.225   3.237  0.00  0.00    -0.179 OA
BRANCH  24  25
HETATM   25  C   UNK N   1      19.446  14.020   2.605  0.00  0.00     0.387 C 
HETATM   26  O   UNK N   1      18.369  13.450   2.620  0.00  0.00    -0.236 OA
HETATM   27  N   UNK N   1      20.477  13.418   1.921  0.00  0.00    -0.301 N 
HETATM   28  H   UNK N   1      20.191  12.614   1.428  0.00  0.00     0.171 HD
BRANCH  27  29
HETATM   29  C   UNK N   1      21.872  13.700   1.764  0.00  0.00     0.036 A 
HETATM   30  C   UNK N   1      22.713  14.081   2.821  0.00  0.00     0.029 A 
HETATM   31  C   UNK N   1      24.073  14.325   2.609  0.00  0.00     0.002 A 
HETATM   32  C   UNK N   1      24.620  14.155   1.338  0.00  0.00     0.000 A 
HETATM   33  C   UNK N   1      23.807  13.732   0.284  0.00  0.00     0.002 A 
HETATM   34  C   UNK N   1      22.444  13.503   0.499  0.00  0.00     0.029 A 
ENDBRANCH  27  29
ENDBRANCH  24  25
ENDBRANCH   8  24
TORSDOF 9
ENDMDL
MODEL 6
REMARK VINA RESULT:      -6.6      9.380     12.150
REMARK  9 active torsions:
REMARK  status: ('A' for Active; 'I' for Inactive)
REMARK    1  A    between atoms: C_2  and  C_3 
REMARK    2  A    between atoms: C_3  and  C_4 
REMARK    3  A    between atoms: C_4  and  C_5 
REMARK       I    between atoms: C_5  and  N_7 
REMARK    4  A    between atoms: C_8  and  N_7 
REMARK    5  A    between atoms: C_9  and  O_10 
REMARK    6  A    between atoms: C_13  and  C_14 
REMARK    7  A    between atoms: N_18  and  O_20 
REMARK    8  A    between atoms: O_20  and  C_21 
REMARK       I    between atoms: C_21  and  N_23 
REMARK    9  A    between atoms: N_23  and  C_24 
ROOT
HETATM    1  C   UNK N   1      21.427  17.150   3.937  0.00  0.00     0.192 C 
HETATM    2  C   UNK N   1      22.391  18.376   3.914  0.00  0.00     0.180 C 
HETATM    3  C   UNK N   1      21.721  19.670   3.422  0.00  0.00     0.180 C 
HETATM    4  O   UNK N   1      20.703  20.073   4.292  0.00  0.00    -0.390 OA
HETATM    5  C   UNK N   1      21.159  19.355   2.026  0.00  0.00     0.185 C 
HETATM    6  O   UNK N   1      20.192  18.382   2.125  0.00  0.00    -0.326 OA
HETATM    7  C   UNK N   1      20.318  17.265   2.886  0.00  0.00     0.165 C 
HETATM    8  N   UNK N   1      19.454  16.330   2.709  0.00  0.00    -0.236 N 
ATOM      9  HN  UNK N   1      18.704  16.488   2.036  1.00  0.00     0.197 HD
HETATM   10  H   UNK N   1      20.025  20.484   4.852  0.00  0.00     0.210 HD
ENDROOT
BRANCH   2  11
HETATM   11  O   UNK N   1      23.012  18.577   5.151  0.00  0.00    -0.390 OA
HETATM   12  H   UNK N   1      23.608  17.907   5.521  0.00  0.00     0.210 HD
ENDBRANCH   2  11
BRANCH   5  13
HETATM   13  C   UNK N   1      20.600  20.569   1.290  0.00  0.00     0.199 C 
HETATM   14  O   UNK N   1      20.617  20.375  -0.090  0.00  0.00    -0.398 OA
HETATM   15  H   UNK N   1      20.664  20.164  -1.037  0.00  0.00     0.209 HD
ENDBRANCH   5  13
BRANCH   1  16
HETATM   16  N   UNK N   1      20.836  16.972   5.257  0.00  0.00    -0.346 N 
HETATM   17  C   UNK N   1      21.371  16.117   6.175  0.00  0.00     0.218 C 
HETATM   18  O   UNK N   1      22.391  15.491   5.919  0.00  0.00    -0.274 OA
HETATM   19  H   UNK N   1      20.029  17.482   5.492  0.00  0.00     0.163 HD
BRANCH  17  20
HETATM   20  C   UNK N   1      20.693  15.912   7.495  0.00  0.00     0.103 C 
BRANCH  20  21
HETATM   21  C   UNK N   1      21.447  14.902   8.351  0.00  0.00     0.009 C 
BRANCH  21  22
HETATM   22  C   UNK N   1      20.504  14.254   9.350  0.00  0.00    -0.004 C 
HETATM   23  C   UNK N   1      21.255  13.224  10.167  0.00  0.00     0.005 C 
ENDBRANCH  21  22
ENDBRANCH  20  21
ENDBRANCH  17  20
ENDBRANCH   1  16
BRANCH   8  24
HETATM   24  O   UNK N   1      19.486  15.185   3.345  0.00  0.00    -0.179 OA
BRANCH  24  25
HETATM   25  C   UNK N   1      19.351  13.981   2.718  0.00  0.00     0.387 C 
HETATM   26  O   UNK N   1      18.612  13.929   1.751  0.00  0.00    -0.236 OA
HETATM   27  N   UNK N   1      20.015  12.831   3.077  0.00  0.00    -0.301 N 
HETATM   28  H   UNK N   1      19.883  12.098   2.433  0.00  0.00     0.171 HD
BRANCH  27  29
HETATM   29  C   UNK N   1      20.857  12.463   4.176  0.00  0.00     0.036 A 
HETATM   30  C   UNK N   1      22.259  12.476   4.120  0.00  0.00     0.029 A 
HETATM   31  C   UNK N   1      23.029  12.123   5.233  0.00  0.00     0.002 A 
HETATM   32  C   UNK N   1      22.403  11.787   6.433  0.00  0.00     0.000 A 
HETATM   33  C   UNK N   1      21.009  11.812   6.519  0.00  0.00     0.002 A 
HETATM   34  C   UNK N   1      20.244  12.152   5.398  0.00  0.00     0.029 A 
ENDBRANCH  27  29
ENDBRANCH  24  25
ENDBRANCH   8  24
TORSDOF 9
ENDMDL
MODEL 7
REMARK VINA RESULT:      -6.5      2.706      4.537
REMARK  9 active torsions:
REMARK  status: ('A' for Active; 'I' for Inactive)
REMARK    1  A    between atoms: C_2  and  C_3 
REMARK    2  A    between atoms: C_3  and  C_4 
REMARK    3  A    between atoms: C_4  and  C_5 
REMARK       I    between atoms: C_5  and  N_7 
REMARK    4  A    between atoms: C_8  and  N_7 
REMARK    5  A    between atoms: C_9  and  O_10 
REMARK    6  A    between atoms: C_13  and  C_14 
REMARK    7  A    between atoms: N_18  and  O_20 
REMARK    8  A    between atoms: O_20  and  C_21 
REMARK       I    between atoms: C_21  and  N_23 
REMARK    9  A    between atoms: N_23  and  C_24 
ROOT
HETATM    1  C   UNK N   1      33.936  15.833   9.429  0.00  0.00     0.192 C 
HETATM    2  C   UNK N   1      34.950  16.373  10.484  0.00  0.00     0.180 C 
HETATM    3  C   UNK N   1      36.072  15.376  10.818  0.00  0.00     0.180 C 
HETATM    4  O   UNK N   1      36.872  15.123   9.699  0.00  0.00    -0.390 OA
HETATM    5  C   UNK N   1      35.375  14.093  11.297  0.00  0.00     0.185 C 
HETATM    6  O   UNK N   1      34.622  13.565  10.273  0.00  0.00    -0.326 OA
HETATM    7  C   UNK N   1      33.825  14.305   9.461  0.00  0.00     0.165 C 
HETATM    8  N   UNK N   1      33.001  13.670   8.706  0.00  0.00    -0.236 N 
ATOM      9  HN  UNK N   1      33.013  12.651   8.728  1.00  0.00     0.197 HD
HETATM   10  H   UNK N   1      37.530  14.923   9.014  0.00  0.00     0.210 HD
ENDROOT
BRANCH   2  11
HETATM   11  O   UNK N   1      35.480  17.613  10.114  0.00  0.00    -0.390 OA
HETATM   12  H   UNK N   1      34.896  18.346   9.862  0.00  0.00     0.210 HD
ENDBRANCH   2  11
BRANCH   5  13
HETATM   13  C   UNK N   1      36.326  13.032  11.842  0.00  0.00     0.199 C 
HETATM   14  O   UNK N   1      37.633  13.512  11.912  0.00  0.00    -0.398 OA
HETATM   15  H   UNK N   1      38.514  13.920  11.929  0.00  0.00     0.209 HD
ENDBRANCH   5  13
BRANCH   1  16
HETATM   16  N   UNK N   1      34.293  16.271   8.087  0.00  0.00    -0.346 N 
HETATM   17  C   UNK N   1      33.746  17.386   7.525  0.00  0.00     0.218 C 
HETATM   18  O   UNK N   1      32.952  18.073   8.155  0.00  0.00    -0.274 OA
HETATM   19  H   UNK N   1      34.946  15.747   7.571  0.00  0.00     0.163 HD
BRANCH  17  20
HETATM   20  C   UNK N   1      34.088  17.763   6.116  0.00  0.00     0.103 C 
BRANCH  20  21
HETATM   21  C   UNK N   1      33.381  16.856   5.115  0.00  0.00     0.009 C 
BRANCH  21  22
HETATM   22  C   UNK N   1      32.484  17.679   4.205  0.00  0.00    -0.004 C 
HETATM   23  C   UNK N   1      32.002  16.821   3.055  0.00  0.00     0.005 C 
ENDBRANCH  21  22
ENDBRANCH  20  21
ENDBRANCH  17  20
ENDBRANCH   1  16
BRANCH   8  24
HETATM   24  O   UNK N   1      32.146  14.263   7.909  0.00  0.00    -0.179 OA
BRANCH  24  25
HETATM   25  C   UNK N   1      31.856  13.807   6.657  0.00  0.00     0.387 C 
HETATM   26  O   UNK N   1      32.495  12.856   6.241  0.00  0.00    -0.236 OA
HETATM   27  N   UNK N   1      30.873  14.321   5.843  0.00  0.00    -0.301 N 
HETATM   28  H   UNK N   1      30.731  13.784   5.030  0.00  0.00     0.171 HD
BRANCH  27  29
HETATM   29  C   UNK N   1      30.008  15.460   5.916  0.00  0.00     0.036 A 
HETATM   30  C   UNK N   1      30.188  16.517   6.822  0.00  0.00     0.029 A 
HETATM   31  C   UNK N   1      29.320  17.614   6.833  0.00  0.00     0.002 A 
HETATM   32  C   UNK N   1      28.278  17.685   5.909  0.00  0.00     0.000 A 
HETATM   33  C   UNK N   1      28.113  16.664   4.970  0.00  0.00     0.002 A 
HETATM   34  C   UNK N   1      28.975  15.562   4.974  0.00  0.00     0.029 A 
ENDBRANCH  27  29
ENDBRANCH  24  25
ENDBRANCH   8  24
TORSDOF 9
ENDMDL
MODEL 8
REMARK VINA RESULT:      -6.3      4.497      8.354
REMARK  9 active torsions:
REMARK  status: ('A' for Active; 'I' for Inactive)
REMARK    1  A    between atoms: C_2  and  C_3 
REMARK    2  A    between atoms: C_3  and  C_4 
REMARK    3  A    between atoms: C_4  and  C_5 
REMARK       I    between atoms: C_5  and  N_7 
REMARK    4  A    between atoms: C_8  and  N_7 
REMARK    5  A    between atoms: C_9  and  O_10 
REMARK    6  A    between atoms: C_13  and  C_14 
REMARK    7  A    between atoms: N_18  and  O_20 
REMARK    8  A    between atoms: O_20  and  C_21 
REMARK       I    between atoms: C_21  and  N_23 
REMARK    9  A    between atoms: N_23  and  C_24 
ROOT
HETATM    1  C   UNK N   1      36.459  12.878  10.412  0.00  0.00     0.192 C 
HETATM    2  C   UNK N   1      37.301  11.571  10.287  0.00  0.00     0.180 C 
HETATM    3  C   UNK N   1      38.547  11.730   9.400  0.00  0.00     0.180 C 
HETATM    4  O   UNK N   1      39.448  12.646   9.954  0.00  0.00    -0.390 OA
HETATM    5  C   UNK N   1      38.039  12.217   8.034  0.00  0.00     0.185 C 
HETATM    6  O   UNK N   1      37.450  13.453   8.172  0.00  0.00    -0.326 OA
HETATM    7  C   UNK N   1      36.597  13.776   9.177  0.00  0.00     0.165 C 
HETATM    8  N   UNK N   1      35.938  14.874   9.062  0.00  0.00    -0.236 N 
ATOM      9  HN  UNK N   1      36.115  15.459   8.246  1.00  0.00     0.197 HD
HETATM   10  H   UNK N   1      40.172  13.207  10.272  0.00  0.00     0.210 HD
ENDROOT
BRANCH   2  11
HETATM   11  O   UNK N   1      37.644  11.049  11.538  0.00  0.00    -0.390 OA
HETATM   12  H   UNK N   1      36.994  11.015  12.256  0.00  0.00     0.210 HD
ENDBRANCH   2  11
BRANCH   5  13
HETATM   13  C   UNK N   1      39.113  12.273   6.952  0.00  0.00     0.199 C 
HETATM   14  O   UNK N   1      39.975  13.351   7.151  0.00  0.00    -0.398 OA
HETATM   15  H   UNK N   1      40.528  14.122   7.357  0.00  0.00     0.209 HD
ENDBRANCH   5  13
BRANCH   1  16
HETATM   16  N   UNK N   1      36.825  13.627  11.606  0.00  0.00    -0.346 N 
HETATM   17  C   UNK N   1      35.984  13.736  12.673  0.00  0.00     0.218 C 
HETATM   18  O   UNK N   1      34.895  13.175  12.665  0.00  0.00    -0.274 OA
HETATM   19  H   UNK N   1      37.704  14.067  11.644  0.00  0.00     0.163 HD
BRANCH  17  20
HETATM   20  C   UNK N   1      36.371  14.572  13.854  0.00  0.00     0.103 C 
BRANCH  20  21
HETATM   21  C   UNK N   1      36.861  13.706  15.008  0.00  0.00     0.009 C 
BRANCH  21  22
HETATM   22  C   UNK N   1      35.935  13.853  16.203  0.00  0.00    -0.004 C 
HETATM   23  C   UNK N   1      34.928  12.721  16.210  0.00  0.00     0.005 C 
ENDBRANCH  21  22
ENDBRANCH  20  21
ENDBRANCH  17  20
ENDBRANCH   1  16
BRANCH   8  24
HETATM   24  O   UNK N   1      35.051  15.280   9.936  0.00  0.00    -0.179 OA
BRANCH  24  25
HETATM   25  C   UNK N   1      34.852  16.595  10.238  0.00  0.00     0.387 C 
HETATM   26  O   UNK N   1      35.330  17.014  11.278  0.00  0.00    -0.236 OA
HETATM   27  N   UNK N   1      34.180  17.491   9.439  0.00  0.00    -0.301 N 
HETATM   28  H   UNK N   1      34.246  18.418   9.765  0.00  0.00     0.171 HD
BRANCH  27  29
HETATM   29  C   UNK N   1      33.409  17.377   8.237  0.00  0.00     0.036 A 
HETATM   30  C   UNK N   1      32.012  17.237   8.219  0.00  0.00     0.029 A 
HETATM   31  C   UNK N   1      31.311  17.149   7.013  0.00  0.00     0.002 A 
HETATM   32  C   UNK N   1      31.997  17.237   5.802  0.00  0.00     0.000 A 
HETATM   33  C   UNK N   1      33.382  17.422   5.801  0.00  0.00     0.002 A 
HETATM   34  C   UNK N   1      34.079  17.494   7.012  0.00  0.00     0.029 A 
ENDBRANCH  27  29
ENDBRANCH  24  25
ENDBRANCH   8  24
TORSDOF 9
ENDMDL
MODEL 9
REMARK VINA RESULT:      -6.3      6.790     10.546
REMARK  9 active torsions:
REMARK  status: ('A' for Active; 'I' for Inactive)
REMARK    1  A    between atoms: C_2  and  C_3 
REMARK    2  A    between atoms: C_3  and  C_4 
REMARK    3  A    between atoms: C_4  and  C_5 
REMARK       I    between atoms: C_5  and  N_7 
REMARK    4  A    between atoms: C_8  and  N_7 
REMARK    5  A    between atoms: C_9  and  O_10 
REMARK    6  A    between atoms: C_13  and  C_14 
REMARK    7  A    between atoms: N_18  and  O_20 
REMARK    8  A    between atoms: O_20  and  C_21 
REMARK       I    between atoms: C_21  and  N_23 
REMARK    9  A    between atoms: N_23  and  C_24 
ROOT
HETATM    1  C   UNK N   1      21.436  17.890   3.909  0.00  0.00     0.192 C 
HETATM    2  C   UNK N   1      19.957  18.186   3.516  0.00  0.00     0.180 C 
HETATM    3  C   UNK N   1      19.820  18.997   2.216  0.00  0.00     0.180 C 
HETATM    4  O   UNK N   1      20.311  18.279   1.120  0.00  0.00    -0.390 OA
HETATM    5  C   UNK N   1      20.625  20.288   2.432  0.00  0.00     0.185 C 
HETATM    6  O   UNK N   1      21.954  19.981   2.609  0.00  0.00    -0.326 OA
HETATM    7  C   UNK N   1      22.398  18.968   3.395  0.00  0.00     0.165 C 
HETATM    8  N   UNK N   1      23.656  18.935   3.662  0.00  0.00    -0.236 N 
ATOM      9  HN  UNK N   1      24.256  19.645   3.244  1.00  0.00     0.197 HD
HETATM   10  H   UNK N   1      20.559  17.855   0.283  0.00  0.00     0.210 HD
ENDROOT
BRANCH   2  11
HETATM   11  O   UNK N   1      19.188  17.019   3.457  0.00  0.00    -0.390 OA
HETATM   12  H   UNK N   1      19.606  16.146   3.520  0.00  0.00     0.210 HD
ENDBRANCH   2  11
BRANCH   5  13
HETATM   13  C   UNK N   1      20.474  21.312   1.312  0.00  0.00     0.199 C 
HETATM   14  O   UNK N   1      20.686  20.730   0.063  0.00  0.00    -0.398 OA
HETATM   15  H   UNK N   1      20.848  20.252  -0.766  0.00  0.00     0.209 HD
ENDBRANCH   5  13
BRANCH   1  16
HETATM   16  N   UNK N   1      21.858  16.584   3.422  0.00  0.00    -0.346 N 
HETATM   17  C   UNK N   1      21.777  15.466   4.199  0.00  0.00     0.218 C 
HETATM   18  O   UNK N   1      21.314  15.530   5.331  0.00  0.00    -0.274 OA
HETATM   19  H   UNK N   1      22.212  16.505   2.508  0.00  0.00     0.163 HD
BRANCH  17  20
HETATM   20  C   UNK N   1      22.285  14.154   3.685  0.00  0.00     0.103 C 
BRANCH  20  21
HETATM   21  C   UNK N   1      22.250  14.107   2.162  0.00  0.00     0.009 C 
BRANCH  21  22
HETATM   22  C   UNK N   1      20.905  13.585   1.685  0.00  0.00    -0.004 C 
HETATM   23  C   UNK N   1      20.231  14.629   0.819  0.00  0.00     0.005 C 
ENDBRANCH  21  22
ENDBRANCH  20  21
ENDBRANCH  17  20
ENDBRANCH   1  16
BRANCH   8  24
HETATM   24  O   UNK N   1      24.206  18.038   4.442  0.00  0.00    -0.179 OA
BRANCH  24  25
HETATM   25  C   UNK N   1      25.207  17.208   4.031  0.00  0.00     0.387 C 
HETATM   26  O   UNK N   1      24.978  16.474   3.085  0.00  0.00    -0.236 OA
HETATM   27  N   UNK N   1      26.466  17.162   4.584  0.00  0.00    -0.301 N 
HETATM   28  H   UNK N   1      27.086  16.591   4.076  0.00  0.00     0.171 HD
BRANCH  27  29
HETATM   29  C   UNK N   1      27.077  17.763   5.732  0.00  0.00     0.036 A 
HETATM   30  C   UNK N   1      27.631  17.028   6.792  0.00  0.00     0.029 A 
HETATM   31  C   UNK N   1      28.232  17.671   7.879  0.00  0.00     0.002 A 
HETATM   32  C   UNK N   1      28.318  19.063   7.903  0.00  0.00     0.000 A 
HETATM   33  C   UNK N   1      27.812  19.807   6.835  0.00  0.00     0.002 A 
HETATM   34  C   UNK N   1      27.200  19.159   5.757  0.00  0.00     0.029 A 
ENDBRANCH  27  29
ENDBRANCH  24  25
ENDBRANCH   8  24
TORSDOF 9
ENDMDL
