REMARK  3 active torsions:
REMARK  status: ('A' for Active; 'I' for Inactive)
REMARK    1  A    between atoms: C_3  and  O_22 
REMARK    2  A    between atoms: C_4  and  C_7 
REMARK    3  A    between atoms: C_11  and  C_13 
ROOT
HETATM    1  C   UNK N   1      -0.884   0.061   0.294  0.00  0.00     0.049 A 
HETATM    2  N   UNK N   1      -2.049  -0.617   0.186  0.00  0.00    -0.321 N 
HETATM    3  C   UNK N   1      -2.076  -1.975   0.090  0.00  0.00     0.267 A 
HETATM    4  C   UNK N   1      -0.871  -2.704   0.082  0.00  0.00     0.123 A 
HETATM    5  C   UNK N   1       0.360  -1.990   0.188  0.00  0.00     0.003 A 
HETATM    6  C   UNK N   1       0.306  -0.618   0.302  0.00  0.00     0.044 A 
HETATM    7  C   UNK N   1      -0.960  -4.134  -0.068  0.00  0.00     0.106 C 
HETATM    8  N   UNK N   1      -1.099  -5.275  -0.190  0.00  0.00    -0.191 NA
HETATM    9  O   UNK N   1      -3.150  -2.539  -0.029  0.00  0.00    -0.266 OA
HETATM   10  H   UNK N   1      -2.897  -0.118   0.176  0.00  0.00     0.169 HD
ENDROOT
BRANCH   5  11
HETATM   11  C   UNK N   1       1.732  -2.546   0.103  0.00  0.00    -0.024 A 
HETATM   12  C   UNK N   1       2.829  -1.653   0.084  0.00  0.00     0.012 A 
HETATM   13  C   UNK N   1       4.132  -2.117  -0.049  0.00  0.00     0.001 A 
HETATM   14  C   UNK N   1       4.359  -3.485  -0.165  0.00  0.00     0.000 A 
HETATM   15  C   UNK N   1       3.284  -4.381  -0.148  0.00  0.00     0.001 A 
HETATM   16  C   UNK N   1       1.975  -3.913  -0.021  0.00  0.00     0.012 A 
ENDBRANCH   5  11
BRANCH   1  17
HETATM   17  C   UNK N   1      -0.839   1.512   0.185  0.00  0.00     0.025 A 
HETATM   18  C   UNK N   1      -1.999   2.262  -0.059  0.00  0.00     0.078 A 
HETATM   19  C   UNK N   1      -1.893   3.632  -0.286  0.00  0.00     0.039 A 
HETATM   20  C   UNK N   1      -0.640   4.255  -0.274  0.00  0.00     0.022 A 
HETATM   21  C   UNK N   1       0.512   3.509  -0.021  0.00  0.00     0.012 A 
HETATM   22  C   UNK N   1       0.411   2.148   0.205  0.00  0.00     0.035 A 
HETATM   23 Br   UNK N   1       2.232   4.320  -0.033  0.00  0.00    -0.051 Br
BRANCH  18  24
HETATM   24  O   UNK N   1      -3.210   1.677  -0.115  0.00  0.00    -0.360 OA
HETATM   25  H   UNK N   1      -3.984   2.203  -0.153  0.00  0.00     0.217 HD
ENDBRANCH  18  24
ENDBRANCH   1  17
TORSDOF 3
