MODEL 1
REMARK VINA RESULT:      -7.3      0.000      0.000
REMARK  3 active torsions:
REMARK  status: ('A' for Active; 'I' for Inactive)
REMARK    1  A    between atoms: C_3  and  O_22 
REMARK    2  A    between atoms: C_4  and  C_7 
REMARK    3  A    between atoms: C_11  and  C_13 
ROOT
HETATM    1  C   UNK N   1      22.542  18.392   4.425  0.00  0.00     0.049 A 
HETATM    2  N   UNK N   1      21.476  18.454   3.595  0.00  0.00    -0.321 N 
HETATM    3  C   UNK N   1      20.348  17.728   3.829  0.00  0.00     0.267 A 
HETATM    4  C   UNK N   1      20.281  16.873   4.945  0.00  0.00     0.123 A 
HETATM    5  C   UNK N   1      21.408  16.799   5.818  0.00  0.00     0.003 A 
HETATM    6  C   UNK N   1      22.505  17.579   5.527  0.00  0.00     0.044 A 
HETATM    7  C   UNK N   1      19.081  16.095   5.116  0.00  0.00     0.106 C 
HETATM    8  N   UNK N   1      18.093  15.500   5.197  0.00  0.00    -0.191 NA
HETATM    9  O   UNK N   1      19.423  17.801   3.039  0.00  0.00    -0.266 OA
HETATM   10  H   UNK N   1      21.516  19.038   2.803  0.00  0.00     0.169 HD
ENDROOT
BRANCH   5  11
HETATM   11  C   UNK N   1      21.584  15.900   6.984  0.00  0.00    -0.024 A 
HETATM   12  C   UNK N   1      22.538  14.859   6.903  0.00  0.00     0.012 A 
HETATM   13  C   UNK N   1      22.707  13.955   7.945  0.00  0.00     0.001 A 
HETATM   14  C   UNK N   1      21.922  14.079   9.087  0.00  0.00     0.000 A 
HETATM   15  C   UNK N   1      20.974  15.104   9.182  0.00  0.00     0.001 A 
HETATM   16  C   UNK N   1      20.801  16.007   8.132  0.00  0.00     0.012 A 
ENDBRANCH   5  11
BRANCH   1  17
HETATM   17  C   UNK N   1      23.816  18.998   4.068  0.00  0.00     0.025 A 
HETATM   18  C   UNK N   1      23.877  20.178   3.311  0.00  0.00     0.078 A 
HETATM   19  C   UNK N   1      25.114  20.652   2.881  0.00  0.00     0.039 A 
HETATM   20  C   UNK N   1      26.286  19.957   3.199  0.00  0.00     0.022 A 
HETATM   21  C   UNK N   1      26.225  18.789   3.960  0.00  0.00     0.012 A 
HETATM   22  C   UNK N   1      24.998  18.314   4.389  0.00  0.00     0.035 A 
HETATM   23 Br   UNK N   1      27.796  17.802   4.378  0.00  0.00    -0.051 Br
BRANCH  18  24
HETATM   24  O   UNK N   1      22.760  20.841   2.960  0.00  0.00    -0.360 OA
HETATM   25  H   UNK N   1      22.302  20.608   2.177  0.00  0.00     0.217 HD
ENDBRANCH  18  24
ENDBRANCH   1  17
TORSDOF 3
ENDMDL
MODEL 2
REMARK VINA RESULT:      -7.3      2.581      6.228
REMARK  3 active torsions:
REMARK  status: ('A' for Active; 'I' for Inactive)
REMARK    1  A    between atoms: C_3  and  O_22 
REMARK    2  A    between atoms: C_4  and  C_7 
REMARK    3  A    between atoms: C_11  and  C_13 
ROOT
HETATM    1  C   UNK N   1      22.033  17.517   5.479  0.00  0.00     0.049 A 
HETATM    2  N   UNK N   1      21.372  18.518   4.855  0.00  0.00    -0.321 N 
HETATM    3  C   UNK N   1      22.008  19.368   4.003  0.00  0.00     0.267 A 
HETATM    4  C   UNK N   1      23.390  19.227   3.769  0.00  0.00     0.123 A 
HETATM    5  C   UNK N   1      24.091  18.176   4.433  0.00  0.00     0.003 A 
HETATM    6  C   UNK N   1      23.375  17.343   5.265  0.00  0.00     0.044 A 
HETATM    7  C   UNK N   1      24.017  20.183   2.894  0.00  0.00     0.106 C 
HETATM    8  N   UNK N   1      24.460  20.980   2.182  0.00  0.00    -0.191 NA
HETATM    9  O   UNK N   1      21.374  20.269   3.482  0.00  0.00    -0.266 OA
HETATM   10  H   UNK N   1      20.409  18.636   5.021  0.00  0.00     0.169 HD
ENDROOT
BRANCH   5  11
HETATM   11  C   UNK N   1      25.550  17.911   4.405  0.00  0.00    -0.024 A 
HETATM   12  C   UNK N   1      26.401  18.704   5.209  0.00  0.00     0.012 A 
HETATM   13  C   UNK N   1      27.780  18.535   5.181  0.00  0.00     0.001 A 
HETATM   14  C   UNK N   1      28.330  17.567   4.347  0.00  0.00     0.000 A 
HETATM   15  C   UNK N   1      27.501  16.774   3.546  0.00  0.00     0.001 A 
HETATM   16  C   UNK N   1      26.116  16.950   3.570  0.00  0.00     0.012 A 
ENDBRANCH   5  11
BRANCH   1  17
HETATM   17  C   UNK N   1      21.408  16.744   6.543  0.00  0.00     0.025 A 
HETATM   18  C   UNK N   1      20.726  17.371   7.596  0.00  0.00     0.078 A 
HETATM   19  C   UNK N   1      20.257  16.605   8.660  0.00  0.00     0.039 A 
HETATM   20  C   UNK N   1      20.466  15.221   8.680  0.00  0.00     0.022 A 
HETATM   21  C   UNK N   1      21.136  14.598   7.627  0.00  0.00     0.012 A 
HETATM   22  C   UNK N   1      21.604  15.356   6.568  0.00  0.00     0.035 A 
HETATM   23 Br   UNK N   1      21.467  12.725   7.642  0.00  0.00    -0.051 Br
BRANCH  18  24
HETATM   24  O   UNK N   1      20.548  18.705   7.617  0.00  0.00    -0.360 OA
HETATM   25  H   UNK N   1      20.659  19.181   8.416  0.00  0.00     0.217 HD
ENDBRANCH  18  24
ENDBRANCH   1  17
TORSDOF 3
ENDMDL
MODEL 3
REMARK VINA RESULT:      -7.3      4.445      6.711
REMARK  3 active torsions:
REMARK  status: ('A' for Active; 'I' for Inactive)
REMARK    1  A    between atoms: C_3  and  O_22 
REMARK    2  A    between atoms: C_4  and  C_7 
REMARK    3  A    between atoms: C_11  and  C_13 
ROOT
HETATM    1  C   UNK N   1      27.542  18.278   6.497  0.00  0.00     0.049 A 
HETATM    2  N   UNK N   1      27.234  19.595   6.485  0.00  0.00    -0.321 N 
HETATM    3  C   UNK N   1      26.338  20.108   5.597  0.00  0.00     0.267 A 
HETATM    4  C   UNK N   1      25.724  19.266   4.650  0.00  0.00     0.123 A 
HETATM    5  C   UNK N   1      26.053  17.877   4.656  0.00  0.00     0.003 A 
HETATM    6  C   UNK N   1      26.953  17.428   5.598  0.00  0.00     0.044 A 
HETATM    7  C   UNK N   1      24.820  19.873   3.707  0.00  0.00     0.106 C 
HETATM    8  N   UNK N   1      24.106  20.420   2.981  0.00  0.00    -0.191 NA
HETATM    9  O   UNK N   1      26.112  21.306   5.610  0.00  0.00    -0.266 OA
HETATM   10  H   UNK N   1      27.667  20.196   7.132  0.00  0.00     0.169 HD
ENDROOT
BRANCH   5  11
HETATM   11  C   UNK N   1      25.601  16.842   3.695  0.00  0.00    -0.024 A 
HETATM   12  C   UNK N   1      24.298  16.310   3.831  0.00  0.00     0.012 A 
HETATM   13  C   UNK N   1      23.842  15.300   2.992  0.00  0.00     0.001 A 
HETATM   14  C   UNK N   1      24.686  14.805   2.002  0.00  0.00     0.000 A 
HETATM   15  C   UNK N   1      25.978  15.322   1.855  0.00  0.00     0.001 A 
HETATM   16  C   UNK N   1      26.437  16.332   2.703  0.00  0.00     0.012 A 
ENDBRANCH   5  11
BRANCH   1  17
HETATM   17  C   UNK N   1      28.645  17.765   7.296  0.00  0.00     0.025 A 
HETATM   18  C   UNK N   1      28.589  17.758   8.698  0.00  0.00     0.078 A 
HETATM   19  C   UNK N   1      29.715  17.381   9.426  0.00  0.00     0.039 A 
HETATM   20  C   UNK N   1      30.894  17.016   8.765  0.00  0.00     0.022 A 
HETATM   21  C   UNK N   1      30.944  17.014   7.370  0.00  0.00     0.012 A 
HETATM   22  C   UNK N   1      29.828  17.387   6.644  0.00  0.00     0.035 A 
HETATM   23 Br   UNK N   1      32.541  16.557   6.444  0.00  0.00    -0.051 Br
BRANCH  18  24
HETATM   24  O   UNK N   1      27.479  18.143   9.355  0.00  0.00    -0.360 OA
HETATM   25  H   UNK N   1      27.160  19.019   9.262  0.00  0.00     0.217 HD
ENDBRANCH  18  24
ENDBRANCH   1  17
TORSDOF 3
ENDMDL
MODEL 4
REMARK VINA RESULT:      -7.3      3.515      6.755
REMARK  3 active torsions:
REMARK  status: ('A' for Active; 'I' for Inactive)
REMARK    1  A    between atoms: C_3  and  O_22 
REMARK    2  A    between atoms: C_4  and  C_7 
REMARK    3  A    between atoms: C_11  and  C_13 
ROOT
HETATM    1  C   UNK N   1      21.099  15.336   7.897  0.00  0.00     0.049 A 
HETATM    2  N   UNK N   1      20.750  16.587   8.274  0.00  0.00    -0.321 N 
HETATM    3  C   UNK N   1      20.742  17.622   7.389  0.00  0.00     0.267 A 
HETATM    4  C   UNK N   1      21.124  17.405   6.050  0.00  0.00     0.123 A 
HETATM    5  C   UNK N   1      21.501  16.087   5.652  0.00  0.00     0.003 A 
HETATM    6  C   UNK N   1      21.464  15.088   6.600  0.00  0.00     0.044 A 
HETATM    7  C   UNK N   1      21.141  18.546   5.171  0.00  0.00     0.106 C 
HETATM    8  N   UNK N   1      21.133  19.499   4.517  0.00  0.00    -0.191 NA
HETATM    9  O   UNK N   1      20.442  18.736   7.782  0.00  0.00    -0.266 OA
HETATM   10  H   UNK N   1      20.495  16.754   9.210  0.00  0.00     0.169 HD
ENDROOT
BRANCH   5  11
HETATM   11  C   UNK N   1      22.024  15.662   4.331  0.00  0.00    -0.024 A 
HETATM   12  C   UNK N   1      21.114  15.492   3.261  0.00  0.00     0.012 A 
HETATM   13  C   UNK N   1      21.543  15.043   2.018  0.00  0.00     0.001 A 
HETATM   14  C   UNK N   1      22.891  14.757   1.824  0.00  0.00     0.000 A 
HETATM   15  C   UNK N   1      23.803  14.921   2.874  0.00  0.00     0.001 A 
HETATM   16  C   UNK N   1      23.370  15.365   4.124  0.00  0.00     0.012 A 
ENDBRANCH   5  11
BRANCH   1  17
HETATM   17  C   UNK N   1      21.310  14.281   8.877  0.00  0.00     0.025 A 
HETATM   18  C   UNK N   1      20.290  13.885   9.755  0.00  0.00     0.078 A 
HETATM   19  C   UNK N   1      20.572  12.966  10.762  0.00  0.00     0.039 A 
HETATM   20  C   UNK N   1      21.863  12.443  10.900  0.00  0.00     0.022 A 
HETATM   21  C   UNK N   1      22.874  12.830  10.020  0.00  0.00     0.012 A 
HETATM   22  C   UNK N   1      22.598  13.743   9.018  0.00  0.00     0.035 A 
HETATM   23 Br   UNK N   1      24.646  12.165  10.203  0.00  0.00    -0.051 Br
BRANCH  18  24
HETATM   24  O   UNK N   1      19.052  14.405   9.666  0.00  0.00    -0.360 OA
HETATM   25  H   UNK N   1      18.708  14.922  10.368  0.00  0.00     0.217 HD
ENDBRANCH  18  24
ENDBRANCH   1  17
TORSDOF 3
ENDMDL
MODEL 5
REMARK VINA RESULT:      -7.2     12.923     14.814
REMARK  3 active torsions:
REMARK  status: ('A' for Active; 'I' for Inactive)
REMARK    1  A    between atoms: C_3  and  O_22 
REMARK    2  A    between atoms: C_4  and  C_7 
REMARK    3  A    between atoms: C_11  and  C_13 
ROOT
HETATM    1  C   UNK N   1      29.004  23.857  -4.411  0.00  0.00     0.049 A 
HETATM    2  N   UNK N   1      29.277  23.868  -3.086  0.00  0.00    -0.321 N 
HETATM    3  C   UNK N   1      30.308  23.147  -2.566  0.00  0.00     0.267 A 
HETATM    4  C   UNK N   1      31.107  22.350  -3.410  0.00  0.00     0.123 A 
HETATM    5  C   UNK N   1      30.815  22.331  -4.807  0.00  0.00     0.003 A 
HETATM    6  C   UNK N   1      29.769  23.103  -5.262  0.00  0.00     0.044 A 
HETATM    7  C   UNK N   1      32.153  21.574  -2.797  0.00  0.00     0.106 C 
HETATM    8  N   UNK N   1      32.975  20.977  -2.245  0.00  0.00    -0.191 NA
HETATM    9  O   UNK N   1      30.500  23.171  -1.363  0.00  0.00    -0.266 OA
HETATM   10  H   UNK N   1      28.718  24.409  -2.484  0.00  0.00     0.169 HD
ENDROOT
BRANCH   5  11
HETATM   11  C   UNK N   1      31.461  21.496  -5.848  0.00  0.00    -0.024 A 
HETATM   12  C   UNK N   1      30.692  20.502  -6.499  0.00  0.00     0.012 A 
HETATM   13  C   UNK N   1      31.260  19.656  -7.443  0.00  0.00     0.001 A 
HETATM   14  C   UNK N   1      32.610  19.791  -7.753  0.00  0.00     0.000 A 
HETATM   15  C   UNK N   1      33.384  20.769  -7.118  0.00  0.00     0.001 A 
HETATM   16  C   UNK N   1      32.813  21.614  -6.165  0.00  0.00     0.012 A 
ENDBRANCH   5  11
BRANCH   1  17
HETATM   17  C   UNK N   1      27.786  24.453  -4.938  0.00  0.00     0.025 A 
HETATM   18  C   UNK N   1      26.574  24.380  -4.235  0.00  0.00     0.078 A 
HETATM   19  C   UNK N   1      25.406  24.848  -4.833  0.00  0.00     0.039 A 
HETATM   20  C   UNK N   1      25.441  25.384  -6.125  0.00  0.00     0.022 A 
HETATM   21  C   UNK N   1      26.649  25.465  -6.819  0.00  0.00     0.012 A 
HETATM   22  C   UNK N   1      27.811  25.002  -6.229  0.00  0.00     0.035 A 
HETATM   23 Br   UNK N   1      26.722  26.155  -8.590  0.00  0.00    -0.051 Br
BRANCH  18  24
HETATM   24  O   UNK N   1      26.511  23.832  -3.007  0.00  0.00    -0.360 OA
HETATM   25  H   UNK N   1      26.579  24.375  -2.247  0.00  0.00     0.217 HD
ENDBRANCH  18  24
ENDBRANCH   1  17
TORSDOF 3
ENDMDL
MODEL 6
REMARK VINA RESULT:      -7.2     13.547     16.813
REMARK  3 active torsions:
REMARK  status: ('A' for Active; 'I' for Inactive)
REMARK    1  A    between atoms: C_3  and  O_22 
REMARK    2  A    between atoms: C_4  and  C_7 
REMARK    3  A    between atoms: C_11  and  C_13 
ROOT
HETATM    1  C   UNK N   1      25.527  25.203  -8.626  0.00  0.00     0.049 A 
HETATM    2  N   UNK N   1      25.451  23.971  -8.072  0.00  0.00    -0.321 N 
HETATM    3  C   UNK N   1      25.639  23.779  -6.737  0.00  0.00     0.267 A 
HETATM    4  C   UNK N   1      25.938  24.874  -5.903  0.00  0.00     0.123 A 
HETATM    5  C   UNK N   1      26.026  26.173  -6.487  0.00  0.00     0.003 A 
HETATM    6  C   UNK N   1      25.804  26.291  -7.842  0.00  0.00     0.044 A 
HETATM    7  C   UNK N   1      26.171  24.603  -4.508  0.00  0.00     0.106 C 
HETATM    8  N   UNK N   1      26.346  24.320  -3.401  0.00  0.00    -0.191 NA
HETATM    9  O   UNK N   1      25.584  22.647  -6.288  0.00  0.00    -0.266 OA
HETATM   10  H   UNK N   1      25.257  23.196  -8.646  0.00  0.00     0.169 HD
ENDROOT
BRANCH   5  11
HETATM   11  C   UNK N   1      26.421  27.435  -5.817  0.00  0.00    -0.024 A 
HETATM   12  C   UNK N   1      25.711  27.845  -4.664  0.00  0.00     0.012 A 
HETATM   13  C   UNK N   1      26.004  29.046  -4.028  0.00  0.00     0.001 A 
HETATM   14  C   UNK N   1      27.013  29.857  -4.537  0.00  0.00     0.000 A 
HETATM   15  C   UNK N   1      27.724  29.465  -5.677  0.00  0.00     0.001 A 
HETATM   16  C   UNK N   1      27.425  28.262  -6.318  0.00  0.00     0.012 A 
ENDBRANCH   5  11
BRANCH   1  17
HETATM   17  C   UNK N   1      25.536  25.384 -10.070  0.00  0.00     0.025 A 
HETATM   18  C   UNK N   1      26.532  24.806 -10.872  0.00  0.00     0.078 A 
HETATM   19  C   UNK N   1      26.580  25.111 -12.230  0.00  0.00     0.039 A 
HETATM   20  C   UNK N   1      25.645  25.989 -12.790  0.00  0.00     0.022 A 
HETATM   21  C   UNK N   1      24.649  26.555 -11.993  0.00  0.00     0.012 A 
HETATM   22  C   UNK N   1      24.598  26.254 -10.644  0.00  0.00     0.035 A 
HETATM   23 Br   UNK N   1      23.386  27.779 -12.717  0.00  0.00    -0.051 Br
BRANCH  18  24
HETATM   24  O   UNK N   1      27.465  23.990 -10.347  0.00  0.00    -0.360 OA
HETATM   25  H   UNK N   1      28.337  23.993 -10.689  0.00  0.00     0.217 HD
ENDBRANCH  18  24
ENDBRANCH   1  17
TORSDOF 3
ENDMDL
MODEL 7
REMARK VINA RESULT:      -7.1     12.151     14.348
REMARK  3 active torsions:
REMARK  status: ('A' for Active; 'I' for Inactive)
REMARK    1  A    between atoms: C_3  and  O_22 
REMARK    2  A    between atoms: C_4  and  C_7 
REMARK    3  A    between atoms: C_11  and  C_13 
ROOT
HETATM    1  C   UNK N   1      26.253  24.149  -6.892  0.00  0.00     0.049 A 
HETATM    2  N   UNK N   1      25.375  25.166  -6.744  0.00  0.00    -0.321 N 
HETATM    3  C   UNK N   1      25.395  25.970  -5.645  0.00  0.00     0.267 A 
HETATM    4  C   UNK N   1      26.334  25.739  -4.621  0.00  0.00     0.123 A 
HETATM    5  C   UNK N   1      27.257  24.661  -4.772  0.00  0.00     0.003 A 
HETATM    6  C   UNK N   1      27.188  23.904  -5.921  0.00  0.00     0.044 A 
HETATM    7  C   UNK N   1      26.278  26.593  -3.462  0.00  0.00     0.106 C 
HETATM    8  N   UNK N   1      26.182  27.311  -2.562  0.00  0.00    -0.191 NA
HETATM    9  O   UNK N   1      24.568  26.860  -5.546  0.00  0.00    -0.266 OA
HETATM   10  H   UNK N   1      24.705  25.330  -7.446  0.00  0.00     0.169 HD
ENDROOT
BRANCH   5  11
HETATM   11  C   UNK N   1      28.254  24.186  -3.782  0.00  0.00    -0.024 A 
HETATM   12  C   UNK N   1      29.628  24.395  -4.045  0.00  0.00     0.012 A 
HETATM   13  C   UNK N   1      30.606  23.923  -3.178  0.00  0.00     0.001 A 
HETATM   14  C   UNK N   1      30.224  23.232  -2.032  0.00  0.00     0.000 A 
HETATM   15  C   UNK N   1      28.869  23.017  -1.759  0.00  0.00     0.001 A 
HETATM   16  C   UNK N   1      27.887  23.486  -2.633  0.00  0.00     0.012 A 
ENDBRANCH   5  11
BRANCH   1  17
HETATM   17  C   UNK N   1      26.101  23.165  -7.954  0.00  0.00     0.025 A 
HETATM   18  C   UNK N   1      25.261  22.052  -7.803  0.00  0.00     0.078 A 
HETATM   19  C   UNK N   1      25.244  21.069  -8.789  0.00  0.00     0.039 A 
HETATM   20  C   UNK N   1      26.060  21.188  -9.919  0.00  0.00     0.022 A 
HETATM   21  C   UNK N   1      26.888  22.301 -10.073  0.00  0.00     0.012 A 
HETATM   22  C   UNK N   1      26.908  23.280  -9.096  0.00  0.00     0.035 A 
HETATM   23 Br   UNK N   1      28.035  22.474 -11.580  0.00  0.00    -0.051 Br
BRANCH  18  24
HETATM   24  O   UNK N   1      24.497  21.897  -6.706  0.00  0.00    -0.360 OA
HETATM   25  H   UNK N   1      23.564  21.946  -6.772  0.00  0.00     0.217 HD
ENDBRANCH  18  24
ENDBRANCH   1  17
TORSDOF 3
ENDMDL
MODEL 8
REMARK VINA RESULT:      -7.1      2.169      3.954
REMARK  3 active torsions:
REMARK  status: ('A' for Active; 'I' for Inactive)
REMARK    1  A    between atoms: C_3  and  O_22 
REMARK    2  A    between atoms: C_4  and  C_7 
REMARK    3  A    between atoms: C_11  and  C_13 
ROOT
HETATM    1  C   UNK N   1      23.166  18.014   4.665  0.00  0.00     0.049 A 
HETATM    2  N   UNK N   1      22.594  18.103   5.887  0.00  0.00    -0.321 N 
HETATM    3  C   UNK N   1      21.381  17.541   6.148  0.00  0.00     0.267 A 
HETATM    4  C   UNK N   1      20.684  16.866   5.127  0.00  0.00     0.123 A 
HETATM    5  C   UNK N   1      21.283  16.778   3.834  0.00  0.00     0.003 A 
HETATM    6  C   UNK N   1      22.522  17.353   3.653  0.00  0.00     0.044 A 
HETATM    7  C   UNK N   1      19.386  16.332   5.449  0.00  0.00     0.106 C 
HETATM    8  N   UNK N   1      18.352  15.927   5.770  0.00  0.00    -0.191 NA
HETATM    9  O   UNK N   1      20.896  17.668   7.259  0.00  0.00    -0.266 OA
HETATM   10  H   UNK N   1      23.064  18.584   6.605  0.00  0.00     0.169 HD
ENDROOT
BRANCH   5  11
HETATM   11  C   UNK N   1      20.686  16.203   2.605  0.00  0.00    -0.024 A 
HETATM   12  C   UNK N   1      20.204  17.081   1.606  0.00  0.00     0.012 A 
HETATM   13  C   UNK N   1      19.587  16.598   0.459  0.00  0.00     0.001 A 
HETATM   14  C   UNK N   1      19.443  15.224   0.292  0.00  0.00     0.000 A 
HETATM   15  C   UNK N   1      19.915  14.342   1.271  0.00  0.00     0.001 A 
HETATM   16  C   UNK N   1      20.528  14.829   2.426  0.00  0.00     0.012 A 
ENDBRANCH   5  11
BRANCH   1  17
HETATM   17  C   UNK N   1      24.353  18.786   4.327  0.00  0.00     0.025 A 
HETATM   18  C   UNK N   1      24.268  19.959   3.563  0.00  0.00     0.078 A 
HETATM   19  C   UNK N   1      25.437  20.594   3.151  0.00  0.00     0.039 A 
HETATM   20  C   UNK N   1      26.686  20.066   3.495  0.00  0.00     0.022 A 
HETATM   21  C   UNK N   1      26.769  18.905   4.264  0.00  0.00     0.012 A 
HETATM   22  C   UNK N   1      25.610  18.270   4.675  0.00  0.00     0.035 A 
HETATM   23 Br   UNK N   1      28.452  18.143   4.718  0.00  0.00    -0.051 Br
BRANCH  18  24
HETATM   24  O   UNK N   1      23.077  20.462   3.187  0.00  0.00    -0.360 OA
HETATM   25  H   UNK N   1      23.032  21.093   2.496  0.00  0.00     0.217 HD
ENDBRANCH  18  24
ENDBRANCH   1  17
TORSDOF 3
ENDMDL
MODEL 9
REMARK VINA RESULT:      -7.0     18.780     20.638
REMARK  3 active torsions:
REMARK  status: ('A' for Active; 'I' for Inactive)
REMARK    1  A    between atoms: C_3  and  O_22 
REMARK    2  A    between atoms: C_4  and  C_7 
REMARK    3  A    between atoms: C_11  and  C_13 
ROOT
HETATM    1  C   UNK N   1      35.393  10.594  19.660  0.00  0.00     0.049 A 
HETATM    2  N   UNK N   1      36.113  10.587  20.804  0.00  0.00    -0.321 N 
HETATM    3  C   UNK N   1      35.877   9.676  21.788  0.00  0.00     0.267 A 
HETATM    4  C   UNK N   1      34.850   8.725  21.635  0.00  0.00     0.123 A 
HETATM    5  C   UNK N   1      34.083   8.735  20.432  0.00  0.00     0.003 A 
HETATM    6  C   UNK N   1      34.394   9.674  19.473  0.00  0.00     0.044 A 
HETATM    7  C   UNK N   1      34.616   7.817  22.729  0.00  0.00     0.106 C 
HETATM    8  N   UNK N   1      34.480   7.118  23.640  0.00  0.00    -0.191 NA
HETATM    9  O   UNK N   1      36.538   9.726  22.812  0.00  0.00    -0.266 OA
HETATM   10  H   UNK N   1      36.824  11.256  20.929  0.00  0.00     0.169 HD
ENDROOT
BRANCH   5  11
HETATM   11  C   UNK N   1      32.905   7.894  20.109  0.00  0.00    -0.024 A 
HETATM   12  C   UNK N   1      31.611   8.419  20.336  0.00  0.00     0.012 A 
HETATM   13  C   UNK N   1      30.474   7.655  20.102  0.00  0.00     0.001 A 
HETATM   14  C   UNK N   1      30.614   6.351  19.637  0.00  0.00     0.000 A 
HETATM   15  C   UNK N   1      31.887   5.818  19.408  0.00  0.00     0.001 A 
HETATM   16  C   UNK N   1      33.029   6.584  19.649  0.00  0.00     0.012 A 
ENDBRANCH   5  11
BRANCH   1  17
HETATM   17  C   UNK N   1      35.499  11.687  18.704  0.00  0.00     0.025 A 
HETATM   18  C   UNK N   1      35.210  13.009  19.072  0.00  0.00     0.078 A 
HETATM   19  C   UNK N   1      35.197  14.003  18.097  0.00  0.00     0.039 A 
HETATM   20  C   UNK N   1      35.467  13.687  16.761  0.00  0.00     0.022 A 
HETATM   21  C   UNK N   1      35.765  12.372  16.398  0.00  0.00     0.012 A 
HETATM   22  C   UNK N   1      35.778  11.381  17.364  0.00  0.00     0.035 A 
HETATM   23 Br   UNK N   1      36.101  11.904  14.586  0.00  0.00    -0.051 Br
BRANCH  18  24
HETATM   24  O   UNK N   1      34.908  13.329  20.344  0.00  0.00    -0.360 OA
HETATM   25  H   UNK N   1      34.068  13.689  20.550  0.00  0.00     0.217 HD
ENDBRANCH  18  24
ENDBRANCH   1  17
TORSDOF 3
ENDMDL
