MODEL 1
REMARK VINA RESULT:      -7.9      0.000      0.000
REMARK  7 active torsions:
REMARK  status: ('A' for Active; 'I' for Inactive)
REMARK    1  A    between atoms: C_6  and  C_8 
REMARK    2  A    between atoms: C_8  and  N_12 
REMARK    3  A    between atoms: C_8  and  C_9 
REMARK    4  A    between atoms: C_9  and  O_11 
REMARK    5  A    between atoms: N_12  and  C_13 
REMARK    6  A    between atoms: C_20  and  C_21 
REMARK    7  A    between atoms: C_24  and  C_26 
ROOT
HETATM    1  C   UNK N   1      34.603  15.395   9.189  0.00  0.00     0.149 A 
HETATM    2  S   UNK N   1      34.355  14.884  10.898  0.00  0.00    -0.049 SA
HETATM    3  C   UNK N   1      36.011  14.189  10.771  0.00  0.00     0.079 A 
HETATM    4  C   UNK N   1      36.585  14.478   9.469  0.00  0.00     0.264 A 
HETATM    5  N   UNK N   1      35.738  15.120   8.653  0.00  0.00    -0.303 N 
ATOM      6  HN  UNK N   1      35.974  15.370   7.693  1.00  0.00     0.171 HD
HETATM    7  O   UNK N   1      37.695  14.127   9.112  0.00  0.00    -0.267 OA
HETATM    8  C   UNK N   1      36.632  13.499  11.746  0.00  0.00     0.061 C 
ENDROOT
BRANCH   1   9
HETATM    9  N   UNK N   1      33.560  15.989   8.443  0.00  0.00    -0.352 N 
HETATM   10  H   UNK N   1      33.060  15.441   7.796  0.00  0.00     0.162 HD
BRANCH   9  11
HETATM   11  C   UNK N   1      33.210  17.382   8.602  0.00  0.00     0.215 C 
BRANCH  11  12
HETATM   12  C   UNK N   1      31.742  17.574   8.236  0.00  0.00    -0.025 A 
HETATM   13  C   UNK N   1      30.889  18.418   8.968  0.00  0.00     0.013 A 
HETATM   14  C   UNK N   1      29.544  18.555   8.619  0.00  0.00     0.043 A 
HETATM   15  C   UNK N   1      29.028  17.844   7.535  0.00  0.00     0.116 A 
HETATM   16  C   UNK N   1      29.862  17.001   6.796  0.00  0.00     0.043 A 
HETATM   17  F   UNK N   1      27.720  17.972   7.203  0.00  0.00    -0.206 F 
HETATM   18  C   UNK N   1      31.212  16.868   7.143  0.00  0.00     0.013 A 
ENDBRANCH  11  12
BRANCH  11  19
HETATM   19  C   UNK N   1      34.244  18.189   7.839  0.00  0.00     0.168 C 
HETATM   20  O   UNK N   1      34.388  17.985   6.643  0.00  0.00    -0.648 OA
BRANCH  19  21
HETATM   21  O   UNK N   1      34.998  19.133   8.433  0.00  0.00    -0.775 OA
HETATM   22  H   UNK N   1      34.612  19.935   8.727  0.00  0.00     0.167 HD
ENDBRANCH  19  21
ENDBRANCH  11  19
ENDBRANCH   9  11
ENDBRANCH   1   9
BRANCH   8  23
HETATM   23  C   UNK N   1      35.938  13.111  12.991  0.00  0.00     0.077 A 
HETATM   24  C   UNK N   1      36.043  13.768  14.204  0.00  0.00     0.040 A 
HETATM   25  C   UNK N   1      35.249  13.070  15.084  0.00  0.00     0.035 A 
HETATM   26  C   UNK N   1      34.703  12.034  14.348  0.00  0.00     0.053 A 
HETATM   27  O   UNK N   1      35.122  12.093  13.105  0.00  0.00    -0.315 OA
BRANCH  26  28
HETATM   28  C   UNK N   1      33.795  10.969  14.875  0.00  0.00     0.060 C 
HETATM   29  C   UNK N   1      34.458  10.135  15.963  0.00  0.00     0.012 C 
ENDBRANCH  26  28
ENDBRANCH   8  23
TORSDOF 7
ENDMDL
MODEL 2
REMARK VINA RESULT:      -7.3      1.705      2.332
REMARK  7 active torsions:
REMARK  status: ('A' for Active; 'I' for Inactive)
REMARK    1  A    between atoms: C_6  and  C_8 
REMARK    2  A    between atoms: C_8  and  N_12 
REMARK    3  A    between atoms: C_8  and  C_9 
REMARK    4  A    between atoms: C_9  and  O_11 
REMARK    5  A    between atoms: N_12  and  C_13 
REMARK    6  A    between atoms: C_20  and  C_21 
REMARK    7  A    between atoms: C_24  and  C_26 
ROOT
HETATM    1  C   UNK N   1      33.721  15.839   8.770  0.00  0.00     0.149 A 
HETATM    2  S   UNK N   1      33.746  14.454   9.921  0.00  0.00    -0.049 SA
HETATM    3  C   UNK N   1      34.972  15.419  10.818  0.00  0.00     0.079 A 
HETATM    4  C   UNK N   1      35.177  16.705  10.176  0.00  0.00     0.264 A 
HETATM    5  N   UNK N   1      34.471  16.845   9.046  0.00  0.00    -0.303 N 
ATOM      6  HN  UNK N   1      34.523  17.676   8.457  1.00  0.00     0.171 HD
HETATM    7  O   UNK N   1      35.951  17.558  10.571  0.00  0.00    -0.267 OA
HETATM    8  C   UNK N   1      35.612  15.008  11.929  0.00  0.00     0.061 C 
ENDROOT
BRANCH   1   9
HETATM    9  N   UNK N   1      32.978  15.781   7.569  0.00  0.00    -0.352 N 
HETATM   10  H   UNK N   1      32.809  14.905   7.151  0.00  0.00     0.162 HD
BRANCH   9  11
HETATM   11  C   UNK N   1      32.460  16.972   6.937  0.00  0.00     0.215 C 
BRANCH  11  12
HETATM   12  C   UNK N   1      31.121  17.335   7.571  0.00  0.00    -0.025 A 
HETATM   13  C   UNK N   1      29.897  16.870   7.062  0.00  0.00     0.013 A 
HETATM   14  C   UNK N   1      28.687  17.239   7.655  0.00  0.00     0.043 A 
HETATM   15  C   UNK N   1      28.683  18.085   8.763  0.00  0.00     0.116 A 
HETATM   16  C   UNK N   1      29.891  18.557   9.284  0.00  0.00     0.043 A 
HETATM   17  F   UNK N   1      27.508  18.450   9.332  0.00  0.00    -0.206 F 
HETATM   18  C   UNK N   1      31.104  18.183   8.692  0.00  0.00     0.013 A 
ENDBRANCH  11  12
BRANCH  11  19
HETATM   19  C   UNK N   1      32.493  16.730   5.440  0.00  0.00     0.168 C 
HETATM   20  O   UNK N   1      32.726  17.668   4.694  0.00  0.00    -0.648 OA
BRANCH  19  21
HETATM   21  O   UNK N   1      32.289  15.510   4.906  0.00  0.00    -0.775 OA
HETATM   22  H   UNK N   1      32.990  15.050   4.488  0.00  0.00     0.167 HD
ENDBRANCH  19  21
ENDBRANCH  11  19
ENDBRANCH   9  11
ENDBRANCH   1   9
BRANCH   8  23
HETATM   23  C   UNK N   1      35.470  13.632  12.447  0.00  0.00     0.077 A 
HETATM   24  C   UNK N   1      36.271  12.558  12.099  0.00  0.00     0.040 A 
HETATM   25  C   UNK N   1      35.783  11.479  12.797  0.00  0.00     0.035 A 
HETATM   26  C   UNK N   1      34.718  11.965  13.533  0.00  0.00     0.053 A 
HETATM   27  O   UNK N   1      34.564  13.250  13.312  0.00  0.00    -0.315 OA
BRANCH  26  28
HETATM   28  C   UNK N   1      33.831  11.159  14.429  0.00  0.00     0.060 C 
HETATM   29  C   UNK N   1      34.608  10.112  15.216  0.00  0.00     0.012 C 
ENDBRANCH  26  28
ENDBRANCH   8  23
TORSDOF 7
ENDMDL
MODEL 3
REMARK VINA RESULT:      -7.3      3.275      8.330
REMARK  7 active torsions:
REMARK  status: ('A' for Active; 'I' for Inactive)
REMARK    1  A    between atoms: C_6  and  C_8 
REMARK    2  A    between atoms: C_8  and  N_12 
REMARK    3  A    between atoms: C_8  and  C_9 
REMARK    4  A    between atoms: C_9  and  O_11 
REMARK    5  A    between atoms: N_12  and  C_13 
REMARK    6  A    between atoms: C_20  and  C_21 
REMARK    7  A    between atoms: C_24  and  C_26 
ROOT
HETATM    1  C   UNK N   1      34.466  16.285  10.035  0.00  0.00     0.149 A 
HETATM    2  S   UNK N   1      33.238  15.685   8.862  0.00  0.00    -0.049 SA
HETATM    3  C   UNK N   1      33.549  17.224   7.981  0.00  0.00     0.079 A 
HETATM    4  C   UNK N   1      34.591  17.987   8.644  0.00  0.00     0.264 A 
HETATM    5  N   UNK N   1      35.022  17.414   9.776  0.00  0.00    -0.303 N 
ATOM      6  HN  UNK N   1      35.729  17.835  10.378  1.00  0.00     0.171 HD
HETATM    7  O   UNK N   1      35.003  19.069   8.264  0.00  0.00    -0.267 OA
HETATM    8  C   UNK N   1      32.907  17.615   6.865  0.00  0.00     0.061 C 
ENDROOT
BRANCH   1   9
HETATM    9  N   UNK N   1      34.737  15.587  11.234  0.00  0.00    -0.352 N 
HETATM   10  H   UNK N   1      34.445  15.975  12.091  0.00  0.00     0.162 HD
BRANCH   9  11
HETATM   11  C   UNK N   1      35.432  14.321  11.236  0.00  0.00     0.215 C 
BRANCH  11  12
HETATM   12  C   UNK N   1      35.563  13.824  12.672  0.00  0.00    -0.025 A 
HETATM   13  C   UNK N   1      34.885  12.685  13.139  0.00  0.00     0.013 A 
HETATM   14  C   UNK N   1      35.011  12.269  14.466  0.00  0.00     0.043 A 
HETATM   15  C   UNK N   1      35.811  12.991  15.351  0.00  0.00     0.116 A 
HETATM   16  C   UNK N   1      36.493  14.126  14.905  0.00  0.00     0.043 A 
HETATM   17  F   UNK N   1      35.925  12.591  16.641  0.00  0.00    -0.206 F 
HETATM   18  C   UNK N   1      36.371  14.540  13.572  0.00  0.00     0.013 A 
ENDBRANCH  11  12
BRANCH  11  19
HETATM   19  C   UNK N   1      36.704  14.513  10.433  0.00  0.00     0.168 C 
HETATM   20  O   UNK N   1      37.051  13.637   9.656  0.00  0.00    -0.648 OA
BRANCH  19  21
HETATM   21  O   UNK N   1      37.457  15.625  10.536  0.00  0.00    -0.775 OA
HETATM   22  H   UNK N   1      37.094  16.466  10.336  0.00  0.00     0.167 HD
ENDBRANCH  19  21
ENDBRANCH  11  19
ENDBRANCH   9  11
ENDBRANCH   1   9
BRANCH   8  23
HETATM   23  C   UNK N   1      31.755  16.864   6.325  0.00  0.00     0.077 A 
HETATM   24  C   UNK N   1      31.824  15.879   5.356  0.00  0.00     0.040 A 
HETATM   25  C   UNK N   1      30.530  15.463   5.145  0.00  0.00     0.035 A 
HETATM   26  C   UNK N   1      29.754  16.217   6.006  0.00  0.00     0.053 A 
HETATM   27  O   UNK N   1      30.512  17.033   6.702  0.00  0.00    -0.315 OA
BRANCH  26  28
HETATM   28  C   UNK N   1      28.263  16.159   6.120  0.00  0.00     0.060 C 
HETATM   29  C   UNK N   1      27.658  15.099   5.210  0.00  0.00     0.012 C 
ENDBRANCH  26  28
ENDBRANCH   8  23
TORSDOF 7
ENDMDL
MODEL 4
REMARK VINA RESULT:      -7.1      3.789      8.824
REMARK  7 active torsions:
REMARK  status: ('A' for Active; 'I' for Inactive)
REMARK    1  A    between atoms: C_6  and  C_8 
REMARK    2  A    between atoms: C_8  and  N_12 
REMARK    3  A    between atoms: C_8  and  C_9 
REMARK    4  A    between atoms: C_9  and  O_11 
REMARK    5  A    between atoms: N_12  and  C_13 
REMARK    6  A    between atoms: C_20  and  C_21 
REMARK    7  A    between atoms: C_24  and  C_26 
ROOT
HETATM    1  C   UNK N   1      36.221  13.862  12.499  0.00  0.00     0.149 A 
HETATM    2  S   UNK N   1      34.764  14.320  11.545  0.00  0.00    -0.049 SA
HETATM    3  C   UNK N   1      35.905  14.463  10.159  0.00  0.00     0.079 A 
HETATM    4  C   UNK N   1      37.247  14.088  10.565  0.00  0.00     0.264 A 
HETATM    5  N   UNK N   1      37.339  13.796  11.870  0.00  0.00    -0.303 N 
ATOM      6  HN  UNK N   1      38.217  13.543  12.322  1.00  0.00     0.171 HD
HETATM    7  O   UNK N   1      38.217  14.091   9.828  0.00  0.00    -0.267 OA
HETATM    8  C   UNK N   1      35.564  14.861   8.920  0.00  0.00     0.061 C 
ENDROOT
BRANCH   1   9
HETATM    9  N   UNK N   1      36.151  13.673  13.899  0.00  0.00    -0.352 N 
HETATM   10  H   UNK N   1      36.258  14.450  14.493  0.00  0.00     0.162 HD
BRANCH   9  11
HETATM   11  C   UNK N   1      35.928  12.369  14.480  0.00  0.00     0.215 C 
BRANCH  11  12
HETATM   12  C   UNK N   1      35.654  12.526  15.972  0.00  0.00    -0.025 A 
HETATM   13  C   UNK N   1      35.503  13.783  16.581  0.00  0.00     0.013 A 
HETATM   14  C   UNK N   1      35.273  13.892  17.955  0.00  0.00     0.043 A 
HETATM   15  C   UNK N   1      35.198  12.743  18.742  0.00  0.00     0.116 A 
HETATM   16  C   UNK N   1      35.347  11.484  18.154  0.00  0.00     0.043 A 
HETATM   17  F   UNK N   1      34.985  12.851  20.076  0.00  0.00    -0.206 F 
HETATM   18  C   UNK N   1      35.571  11.376  16.776  0.00  0.00     0.013 A 
ENDBRANCH  11  12
BRANCH  11  19
HETATM   19  C   UNK N   1      37.093  11.493  14.060  0.00  0.00     0.168 C 
HETATM   20  O   UNK N   1      36.865  10.441  13.483  0.00  0.00    -0.648 OA
BRANCH  19  21
HETATM   21  O   UNK N   1      38.373  11.843  14.290  0.00  0.00    -0.775 OA
HETATM   22  H   UNK N   1      38.984  11.904  13.583  0.00  0.00     0.167 HD
ENDBRANCH  19  21
ENDBRANCH  11  19
ENDBRANCH   9  11
ENDBRANCH   1   9
BRANCH   8  23
HETATM   23  C   UNK N   1      34.212  15.372   8.609  0.00  0.00     0.077 A 
HETATM   24  C   UNK N   1      33.187  14.632   8.047  0.00  0.00     0.040 A 
HETATM   25  C   UNK N   1      32.123  15.494   7.921  0.00  0.00     0.035 A 
HETATM   26  C   UNK N   1      32.565  16.705   8.422  0.00  0.00     0.053 A 
HETATM   27  O   UNK N   1      33.807  16.597   8.834  0.00  0.00    -0.315 OA
BRANCH  26  28
HETATM   28  C   UNK N   1      31.777  17.976   8.466  0.00  0.00     0.060 C 
HETATM   29  C   UNK N   1      30.354  17.753   8.961  0.00  0.00     0.012 C 
ENDBRANCH  26  28
ENDBRANCH   8  23
TORSDOF 7
ENDMDL
MODEL 5
REMARK VINA RESULT:      -7.1     11.149     14.337
REMARK  7 active torsions:
REMARK  status: ('A' for Active; 'I' for Inactive)
REMARK    1  A    between atoms: C_6  and  C_8 
REMARK    2  A    between atoms: C_8  and  N_12 
REMARK    3  A    between atoms: C_8  and  C_9 
REMARK    4  A    between atoms: C_9  and  O_11 
REMARK    5  A    between atoms: N_12  and  C_13 
REMARK    6  A    between atoms: C_20  and  C_21 
REMARK    7  A    between atoms: C_24  and  C_26 
ROOT
HETATM    1  C   UNK N   1      21.146  17.111   5.385  0.00  0.00     0.149 A 
HETATM    2  S   UNK N   1      22.729  17.969   5.420  0.00  0.00    -0.049 SA
HETATM    3  C   UNK N   1      22.136  18.804   3.940  0.00  0.00     0.079 A 
HETATM    4  C   UNK N   1      20.783  18.381   3.624  0.00  0.00     0.264 A 
HETATM    5  N   UNK N   1      20.324  17.433   4.452  0.00  0.00    -0.303 N 
ATOM      6  HN  UNK N   1      19.404  17.005   4.350  1.00  0.00     0.171 HD
HETATM    7  O   UNK N   1      20.137  18.787   2.675  0.00  0.00    -0.267 OA
HETATM    8  C   UNK N   1      22.845  19.696   3.223  0.00  0.00     0.061 C 
ENDROOT
BRANCH   1   9
HETATM    9  N   UNK N   1      20.859  16.064   6.291  0.00  0.00    -0.352 N 
HETATM   10  H   UNK N   1      20.512  15.211   5.944  0.00  0.00     0.162 HD
BRANCH   9  11
HETATM   11  C   UNK N   1      21.060  16.214   7.714  0.00  0.00     0.215 C 
BRANCH  11  12
HETATM   12  C   UNK N   1      21.498  14.877   8.302  0.00  0.00    -0.025 A 
HETATM   13  C   UNK N   1      22.407  14.028   7.647  0.00  0.00     0.013 A 
HETATM   14  C   UNK N   1      22.770  12.800   8.203  0.00  0.00     0.043 A 
HETATM   15  C   UNK N   1      22.224  12.397   9.421  0.00  0.00     0.116 A 
HETATM   16  C   UNK N   1      21.318  13.227  10.087  0.00  0.00     0.043 A 
HETATM   17  F   UNK N   1      22.570  11.200   9.956  0.00  0.00    -0.206 F 
HETATM   18  C   UNK N   1      20.958  14.461   9.531  0.00  0.00     0.013 A 
ENDBRANCH  11  12
BRANCH  11  19
HETATM   19  C   UNK N   1      19.806  16.859   8.273  0.00  0.00     0.168 C 
HETATM   20  O   UNK N   1      19.916  17.825   9.011  0.00  0.00    -0.648 OA
BRANCH  19  21
HETATM   21  O   UNK N   1      18.573  16.410   7.970  0.00  0.00    -0.775 OA
HETATM   22  H   UNK N   1      18.271  15.587   8.302  0.00  0.00     0.167 HD
ENDBRANCH  19  21
ENDBRANCH  11  19
ENDBRANCH   9  11
ENDBRANCH   1   9
BRANCH   8  23
HETATM   23  C   UNK N   1      24.269  19.971   3.510  0.00  0.00     0.077 A 
HETATM   24  C   UNK N   1      25.207  20.386   2.581  0.00  0.00     0.040 A 
HETATM   25  C   UNK N   1      26.392  20.507   3.268  0.00  0.00     0.035 A 
HETATM   26  C   UNK N   1      26.099  20.166   4.576  0.00  0.00     0.053 A 
HETATM   27  O   UNK N   1      24.826  19.864   4.690  0.00  0.00    -0.315 OA
BRANCH  26  28
HETATM   28  C   UNK N   1      27.076  20.107   5.706  0.00  0.00     0.060 C 
HETATM   29  C   UNK N   1      27.407  21.489   6.254  0.00  0.00     0.012 C 
ENDBRANCH  26  28
ENDBRANCH   8  23
TORSDOF 7
ENDMDL
MODEL 6
REMARK VINA RESULT:      -7.1     11.827     15.226
REMARK  7 active torsions:
REMARK  status: ('A' for Active; 'I' for Inactive)
REMARK    1  A    between atoms: C_6  and  C_8 
REMARK    2  A    between atoms: C_8  and  N_12 
REMARK    3  A    between atoms: C_8  and  C_9 
REMARK    4  A    between atoms: C_9  and  O_11 
REMARK    5  A    between atoms: N_12  and  C_13 
REMARK    6  A    between atoms: C_20  and  C_21 
REMARK    7  A    between atoms: C_24  and  C_26 
ROOT
HETATM    1  C   UNK N   1      20.277  18.342   3.304  0.00  0.00     0.149 A 
HETATM    2  S   UNK N   1      21.933  18.515   3.991  0.00  0.00    -0.049 SA
HETATM    3  C   UNK N   1      22.078  19.929   2.887  0.00  0.00     0.079 A 
HETATM    4  C   UNK N   1      20.835  20.145   2.170  0.00  0.00     0.264 A 
HETATM    5  N   UNK N   1      19.907  19.216   2.438  0.00  0.00    -0.303 N 
ATOM      6  HN  UNK N   1      18.989  19.203   1.995  1.00  0.00     0.171 HD
HETATM    7  O   UNK N   1      20.651  21.034   1.357  0.00  0.00    -0.267 OA
HETATM    8  C   UNK N   1      23.184  20.683   2.744  0.00  0.00     0.061 C 
ENDROOT
BRANCH   1   9
HETATM    9  N   UNK N   1      19.457  17.240   3.637  0.00  0.00    -0.352 N 
HETATM   10  H   UNK N   1      18.484  17.308   3.501  0.00  0.00     0.162 HD
BRANCH   9  11
HETATM   11  C   UNK N   1      20.008  16.017   4.173  0.00  0.00     0.215 C 
BRANCH  11  12
HETATM   12  C   UNK N   1      20.637  15.212   3.041  0.00  0.00    -0.025 A 
HETATM   13  C   UNK N   1      21.978  14.793   3.070  0.00  0.00     0.013 A 
HETATM   14  C   UNK N   1      22.529  14.076   2.006  0.00  0.00     0.043 A 
HETATM   15  C   UNK N   1      21.748  13.771   0.891  0.00  0.00     0.116 A 
HETATM   16  C   UNK N   1      20.412  14.180   0.844  0.00  0.00     0.043 A 
HETATM   17  F   UNK N   1      22.287  13.083  -0.145  0.00  0.00    -0.206 F 
HETATM   18  C   UNK N   1      19.859  14.895   1.914  0.00  0.00     0.013 A 
ENDBRANCH  11  12
BRANCH  11  19
HETATM   19  C   UNK N   1      18.912  15.358   4.989  0.00  0.00     0.168 C 
HETATM   20  O   UNK N   1      18.950  14.150   5.164  0.00  0.00    -0.648 OA
BRANCH  19  21
HETATM   21  O   UNK N   1      17.906  16.063   5.540  0.00  0.00    -0.775 OA
HETATM   22  H   UNK N   1      17.715  16.931   5.245  0.00  0.00     0.167 HD
ENDBRANCH  19  21
ENDBRANCH  11  19
ENDBRANCH   9  11
ENDBRANCH   1   9
BRANCH   8  23
HETATM   23  C   UNK N   1      24.463  20.322   3.390  0.00  0.00     0.077 A 
HETATM   24  C   UNK N   1      25.464  19.559   2.815  0.00  0.00     0.040 A 
HETATM   25  C   UNK N   1      26.457  19.460   3.761  0.00  0.00     0.035 A 
HETATM   26  C   UNK N   1      26.001  20.177   4.853  0.00  0.00     0.053 A 
HETATM   27  O   UNK N   1      24.818  20.687   4.597  0.00  0.00    -0.315 OA
BRANCH  26  28
HETATM   28  C   UNK N   1      26.714  20.333   6.158  0.00  0.00     0.060 C 
HETATM   29  C   UNK N   1      26.493  21.709   6.773  0.00  0.00     0.012 C 
ENDBRANCH  26  28
ENDBRANCH   8  23
TORSDOF 7
ENDMDL
MODEL 7
REMARK VINA RESULT:      -7.1      2.567      4.351
REMARK  7 active torsions:
REMARK  status: ('A' for Active; 'I' for Inactive)
REMARK    1  A    between atoms: C_6  and  C_8 
REMARK    2  A    between atoms: C_8  and  N_12 
REMARK    3  A    between atoms: C_8  and  C_9 
REMARK    4  A    between atoms: C_9  and  O_11 
REMARK    5  A    between atoms: N_12  and  C_13 
REMARK    6  A    between atoms: C_20  and  C_21 
REMARK    7  A    between atoms: C_24  and  C_26 
ROOT
HETATM    1  C   UNK N   1      34.477  15.449   9.385  0.00  0.00     0.149 A 
HETATM    2  S   UNK N   1      35.683  14.269   8.755  0.00  0.00    -0.049 SA
HETATM    3  C   UNK N   1      36.396  14.347  10.406  0.00  0.00     0.079 A 
HETATM    4  C   UNK N   1      35.604  15.211  11.262  0.00  0.00     0.264 A 
HETATM    5  N   UNK N   1      34.584  15.795  10.618  0.00  0.00    -0.303 N 
ATOM      6  HN  UNK N   1      33.949  16.455  11.066  1.00  0.00     0.171 HD
HETATM    7  O   UNK N   1      35.856  15.445  12.431  0.00  0.00    -0.267 OA
HETATM    8  C   UNK N   1      37.509  13.697  10.795  0.00  0.00     0.061 C 
ENDROOT
BRANCH   1   9
HETATM    9  N   UNK N   1      33.513  16.037   8.535  0.00  0.00    -0.352 N 
HETATM   10  H   UNK N   1      33.064  15.479   7.861  0.00  0.00     0.162 HD
BRANCH   9  11
HETATM   11  C   UNK N   1      33.172  17.438   8.628  0.00  0.00     0.215 C 
BRANCH  11  12
HETATM   12  C   UNK N   1      31.712  17.625   8.231  0.00  0.00    -0.025 A 
HETATM   13  C   UNK N   1      30.833  18.446   8.959  0.00  0.00     0.013 A 
HETATM   14  C   UNK N   1      29.496  18.579   8.580  0.00  0.00     0.043 A 
HETATM   15  C   UNK N   1      29.013  17.887   7.470  0.00  0.00     0.116 A 
HETATM   16  C   UNK N   1      29.872  17.066   6.733  0.00  0.00     0.043 A 
HETATM   17  F   UNK N   1      27.712  18.009   7.109  0.00  0.00    -0.206 F 
HETATM   18  C   UNK N   1      31.214  16.937   7.111  0.00  0.00     0.013 A 
ENDBRANCH  11  12
BRANCH  11  19
HETATM   19  C   UNK N   1      34.224  18.203   7.847  0.00  0.00     0.168 C 
HETATM   20  O   UNK N   1      34.369  17.963   6.658  0.00  0.00    -0.648 OA
BRANCH  19  21
HETATM   21  O   UNK N   1      34.994  19.149   8.417  0.00  0.00    -0.775 OA
HETATM   22  H   UNK N   1      35.574  19.669   7.896  0.00  0.00     0.167 HD
ENDBRANCH  19  21
ENDBRANCH  11  19
ENDBRANCH   9  11
ENDBRANCH   1   9
BRANCH   8  23
HETATM   23  C   UNK N   1      38.353  12.954   9.836  0.00  0.00     0.077 A 
HETATM   24  C   UNK N   1      38.450  11.576   9.756  0.00  0.00     0.040 A 
HETATM   25  C   UNK N   1      39.346  11.317   8.746  0.00  0.00     0.035 A 
HETATM   26  C   UNK N   1      39.734  12.555   8.269  0.00  0.00     0.053 A 
HETATM   27  O   UNK N   1      39.118  13.508   8.929  0.00  0.00    -0.315 OA
BRANCH  26  28
HETATM   28  C   UNK N   1      40.735  12.802   7.185  0.00  0.00     0.060 C 
HETATM   29  C   UNK N   1      40.621  14.206   6.606  0.00  0.00     0.012 C 
ENDBRANCH  26  28
ENDBRANCH   8  23
TORSDOF 7
ENDMDL
MODEL 8
REMARK VINA RESULT:      -7.0      3.948      8.760
REMARK  7 active torsions:
REMARK  status: ('A' for Active; 'I' for Inactive)
REMARK    1  A    between atoms: C_6  and  C_8 
REMARK    2  A    between atoms: C_8  and  N_12 
REMARK    3  A    between atoms: C_8  and  C_9 
REMARK    4  A    between atoms: C_9  and  O_11 
REMARK    5  A    between atoms: N_12  and  C_13 
REMARK    6  A    between atoms: C_20  and  C_21 
REMARK    7  A    between atoms: C_24  and  C_26 
ROOT
HETATM    1  C   UNK N   1      31.095  17.611   8.685  0.00  0.00     0.149 A 
HETATM    2  S   UNK N   1      30.716  17.195   6.974  0.00  0.00    -0.049 SA
HETATM    3  C   UNK N   1      29.002  17.158   7.522  0.00  0.00     0.079 A 
HETATM    4  C   UNK N   1      28.908  17.524   8.924  0.00  0.00     0.264 A 
HETATM    5  N   UNK N   1      30.104  17.733   9.493  0.00  0.00    -0.303 N 
ATOM      6  HN  UNK N   1      30.216  17.968  10.479  1.00  0.00     0.171 HD
HETATM    7  O   UNK N   1      27.867  17.582   9.554  0.00  0.00    -0.267 OA
HETATM    8  C   UNK N   1      27.952  16.835   6.744  0.00  0.00     0.061 C 
ENDROOT
BRANCH   1   9
HETATM    9  N   UNK N   1      32.431  17.707   9.137  0.00  0.00    -0.352 N 
HETATM   10  H   UNK N   1      32.634  18.278   9.914  0.00  0.00     0.162 HD
BRANCH   9  11
HETATM   11  C   UNK N   1      33.506  16.993   8.489  0.00  0.00     0.215 C 
BRANCH  11  12
HETATM   12  C   UNK N   1      34.225  16.128   9.519  0.00  0.00    -0.025 A 
HETATM   13  C   UNK N   1      35.189  16.649  10.399  0.00  0.00     0.013 A 
HETATM   14  C   UNK N   1      35.844  15.824  11.316  0.00  0.00     0.043 A 
HETATM   15  C   UNK N   1      35.551  14.462  11.361  0.00  0.00     0.116 A 
HETATM   16  C   UNK N   1      34.596  13.925  10.494  0.00  0.00     0.043 A 
HETATM   17  F   UNK N   1      36.195  13.661  12.245  0.00  0.00    -0.206 F 
HETATM   18  C   UNK N   1      33.936  14.754   9.578  0.00  0.00     0.013 A 
ENDBRANCH  11  12
BRANCH  11  19
HETATM   19  C   UNK N   1      34.325  18.020   7.729  0.00  0.00     0.168 C 
HETATM   20  O   UNK N   1      34.472  17.885   6.525  0.00  0.00    -0.648 OA
BRANCH  19  21
HETATM   21  O   UNK N   1      34.882  19.085   8.336  0.00  0.00    -0.775 OA
HETATM   22  H   UNK N   1      35.161  19.031   9.230  0.00  0.00     0.167 HD
ENDBRANCH  19  21
ENDBRANCH  11  19
ENDBRANCH   9  11
ENDBRANCH   1   9
BRANCH   8  23
HETATM   23  C   UNK N   1      28.129  16.327   5.368  0.00  0.00     0.077 A 
HETATM   24  C   UNK N   1      28.003  17.080   4.214  0.00  0.00     0.040 A 
HETATM   25  C   UNK N   1      28.235  16.216   3.170  0.00  0.00     0.035 A 
HETATM   26  C   UNK N   1      28.494  14.990   3.755  0.00  0.00     0.053 A 
HETATM   27  O   UNK N   1      28.435  15.091   5.062  0.00  0.00    -0.315 OA
BRANCH  26  28
HETATM   28  C   UNK N   1      28.768  13.712   3.027  0.00  0.00     0.060 C 
HETATM   29  C   UNK N   1      27.635  13.334   2.082  0.00  0.00     0.012 C 
ENDBRANCH  26  28
ENDBRANCH   8  23
TORSDOF 7
ENDMDL
MODEL 9
REMARK VINA RESULT:      -7.0      2.075      2.641
REMARK  7 active torsions:
REMARK  status: ('A' for Active; 'I' for Inactive)
REMARK    1  A    between atoms: C_6  and  C_8 
REMARK    2  A    between atoms: C_8  and  N_12 
REMARK    3  A    between atoms: C_8  and  C_9 
REMARK    4  A    between atoms: C_9  and  O_11 
REMARK    5  A    between atoms: N_12  and  C_13 
REMARK    6  A    between atoms: C_20  and  C_21 
REMARK    7  A    between atoms: C_24  and  C_26 
ROOT
HETATM    1  C   UNK N   1      34.980  14.422   8.942  0.00  0.00     0.149 A 
HETATM    2  S   UNK N   1      35.563  14.313  10.643  0.00  0.00    -0.049 SA
HETATM    3  C   UNK N   1      34.896  12.641  10.603  0.00  0.00     0.079 A 
HETATM    4  C   UNK N   1      34.364  12.337   9.287  0.00  0.00     0.264 A 
HETATM    5  N   UNK N   1      34.427  13.376   8.443  0.00  0.00    -0.303 N 
ATOM      6  HN  UNK N   1      34.068  13.339   7.489  1.00  0.00     0.171 HD
HETATM    7  O   UNK N   1      33.852  11.275   8.978  0.00  0.00    -0.267 OA
HETATM    8  C   UNK N   1      34.890  11.790  11.646  0.00  0.00     0.061 C 
ENDROOT
BRANCH   1   9
HETATM    9  N   UNK N   1      35.048  15.636   8.221  0.00  0.00    -0.352 N 
HETATM   10  H   UNK N   1      35.763  15.760   7.556  0.00  0.00     0.162 HD
BRANCH   9  11
HETATM   11  C   UNK N   1      34.095  16.701   8.434  0.00  0.00     0.215 C 
BRANCH  11  12
HETATM   12  C   UNK N   1      33.260  16.887   7.172  0.00  0.00    -0.025 A 
HETATM   13  C   UNK N   1      33.841  17.043   5.902  0.00  0.00     0.013 A 
HETATM   14  C   UNK N   1      33.047  17.233   4.768  0.00  0.00     0.043 A 
HETATM   15  C   UNK N   1      31.658  17.278   4.889  0.00  0.00     0.116 A 
HETATM   16  C   UNK N   1      31.063  17.125   6.144  0.00  0.00     0.043 A 
HETATM   17  F   UNK N   1      30.890  17.471   3.790  0.00  0.00    -0.206 F 
HETATM   18  C   UNK N   1      31.859  16.929   7.279  0.00  0.00     0.013 A 
ENDBRANCH  11  12
BRANCH  11  19
HETATM   19  C   UNK N   1      34.875  17.895   8.953  0.00  0.00     0.168 C 
HETATM   20  O   UNK N   1      34.835  18.943   8.328  0.00  0.00    -0.648 OA
BRANCH  19  21
HETATM   21  O   UNK N   1      35.598  17.841  10.087  0.00  0.00    -0.775 OA
HETATM   22  H   UNK N   1      35.373  18.379  10.821  0.00  0.00     0.167 HD
ENDBRANCH  19  21
ENDBRANCH  11  19
ENDBRANCH   9  11
ENDBRANCH   1   9
BRANCH   8  23
HETATM   23  C   UNK N   1      35.310  12.212  12.999  0.00  0.00     0.077 A 
HETATM   24  C   UNK N   1      36.617  12.270  13.449  0.00  0.00     0.040 A 
HETATM   25  C   UNK N   1      36.550  12.696  14.755  0.00  0.00     0.035 A 
HETATM   26  C   UNK N   1      35.204  12.878  15.016  0.00  0.00     0.053 A 
HETATM   27  O   UNK N   1      34.494  12.593  13.949  0.00  0.00    -0.315 OA
BRANCH  26  28
HETATM   28  C   UNK N   1      34.615  13.300  16.324  0.00  0.00     0.060 C 
HETATM   29  C   UNK N   1      35.223  12.547  17.500  0.00  0.00     0.012 C 
ENDBRANCH  26  28
ENDBRANCH   8  23
TORSDOF 7
ENDMDL
