REMARK  7 active torsions:
REMARK  status: ('A' for Active; 'I' for Inactive)
REMARK    1  A    between atoms: C_6  and  C_8 
REMARK    2  A    between atoms: C_8  and  N_12 
REMARK    3  A    between atoms: C_8  and  C_9 
REMARK    4  A    between atoms: C_9  and  O_11 
REMARK    5  A    between atoms: N_12  and  C_13 
REMARK    6  A    between atoms: C_20  and  C_21 
REMARK    7  A    between atoms: C_24  and  C_26 
ROOT
HETATM    1  C   UNK N   1      -0.514   0.477   0.519  0.00  0.00     0.149 A 
HETATM    2  S   UNK N   1       1.254   0.264   0.249  0.00  0.00    -0.049 SA
HETATM    3  C   UNK N   1       0.890  -1.499   0.270  0.00  0.00     0.079 A 
HETATM    4  C   UNK N   1      -0.537  -1.722   0.418  0.00  0.00     0.264 A 
HETATM    5  N   UNK N   1      -1.232  -0.587   0.573  0.00  0.00    -0.303 N 
ATOM      6  HN  UNK N   1      -2.241  -0.569   0.720  1.00  0.00     0.171 HD
HETATM    7  O   UNK N   1      -1.063  -2.820   0.462  0.00  0.00    -0.267 OA
HETATM    8  C   UNK N   1       1.810  -2.476   0.164  0.00  0.00     0.061 C 
ENDROOT
BRANCH   1   9
HETATM    9  N   UNK N   1      -1.071   1.755   0.753  0.00  0.00    -0.352 N 
HETATM   10  H   UNK N   1      -1.116   2.097   1.675  0.00  0.00     0.162 HD
BRANCH   9  11
HETATM   11  C   UNK N   1      -1.578   2.572  -0.325  0.00  0.00     0.215 C 
BRANCH  11  12
HETATM   12  C   UNK N   1      -1.124   4.013  -0.118  0.00  0.00    -0.025 A 
HETATM   13  C   UNK N   1      -2.033   5.071   0.055  0.00  0.00     0.013 A 
HETATM   14  C   UNK N   1      -1.584   6.383   0.221  0.00  0.00     0.043 A 
HETATM   15  C   UNK N   1      -0.217   6.659   0.209  0.00  0.00     0.116 A 
HETATM   16  C   UNK N   1       0.702   5.620   0.038  0.00  0.00     0.043 A 
HETATM   17  F   UNK N   1       0.217   7.934   0.361  0.00  0.00    -0.206 F 
HETATM   18  C   UNK N   1       0.251   4.304  -0.123  0.00  0.00     0.013 A 
ENDBRANCH  11  12
BRANCH  11  19
HETATM   19  C   UNK N   1      -3.068   2.304  -0.421  0.00  0.00     0.168 C 
HETATM   20  O   UNK N   1      -3.451   1.168  -0.653  0.00  0.00    -0.648 OA
BRANCH  19  21
HETATM   21  O   UNK N   1      -3.984   3.275  -0.244  0.00  0.00    -0.775 OA
HETATM   22  H   UNK N   1      -3.717   4.165  -0.122  0.00  0.00     0.167 HD
ENDBRANCH  19  21
ENDBRANCH  11  19
ENDBRANCH   9  11
ENDBRANCH   1   9
BRANCH   8  23
HETATM   23  C   UNK N   1       3.259  -2.186   0.166  0.00  0.00     0.077 A 
HETATM   24  C   UNK N   1       3.860  -1.113   0.800  0.00  0.00     0.040 A 
HETATM   25  C   UNK N   1       5.205  -1.221   0.535  0.00  0.00     0.035 A 
HETATM   26  C   UNK N   1       5.340  -2.359  -0.239  0.00  0.00     0.053 A 
HETATM   27  O   UNK N   1       4.167  -2.917  -0.431  0.00  0.00    -0.315 OA
BRANCH  26  28
HETATM   28  C   UNK N   1       6.618  -2.880  -0.816  0.00  0.00     0.060 C 
HETATM   29  C   UNK N   1       7.802  -1.976  -0.500  0.00  0.00     0.012 C 
ENDBRANCH  26  28
ENDBRANCH   8  23
TORSDOF 7
