MODEL 1
REMARK VINA RESULT:      -7.7      0.000      0.000
REMARK  2 active torsions:
REMARK  status: ('A' for Active; 'I' for Inactive)
REMARK       I    between atoms: N_1  and  C_2 
REMARK    1  A    between atoms: C_7  and  C_10 
REMARK    2  A    between atoms: C_17  and  C_18 
ROOT
HETATM    1  C   UNK N   1      26.656  27.805  -4.219  0.00  0.00    -0.008 A 
HETATM    2  C   UNK N   1      25.426  27.933  -4.924  0.00  0.00     0.016 A 
HETATM    3  C   UNK N   1      24.851  26.810  -5.572  0.00  0.00     0.033 A 
HETATM    4  C   UNK N   1      25.538  25.597  -5.486  0.00  0.00     0.068 A 
HETATM    5  N   UNK N   1      25.215  24.396  -6.005  0.00  0.00    -0.260 N 
ATOM      6  HN  UNK N   1      24.388  24.174  -6.561  1.00  0.00     0.195 HD
HETATM    7  O   UNK N   1      26.169  23.566  -5.655  0.00  0.00    -0.236 OA
HETATM    8  C   UNK N   1      27.093  24.183  -4.934  0.00  0.00     0.121 A 
HETATM    9  C   UNK N   1      26.707  25.490  -4.812  0.00  0.00     0.030 A 
HETATM   10  C   UNK N   1      27.294  26.560  -4.171  0.00  0.00     0.030 A 
ENDROOT
BRANCH   1  11
HETATM   11  C   UNK N   1      27.310  28.930  -3.526  0.00  0.00     0.060 A 
HETATM   12  C   UNK N   1      27.805  30.038  -4.219  0.00  0.00     0.048 A 
HETATM   13  C   UNK N   1      28.412  31.062  -3.491  0.00  0.00     0.108 A 
HETATM   14  N   UNK N   1      28.514  30.971  -2.138  0.00  0.00    -0.202 N 
HETATM   15  C   UNK N   1      28.028  29.887  -1.478  0.00  0.00     0.676 A 
ATOM     16  HN  UNK N   1      28.959  31.724  -1.613  1.00  0.00     0.183 HD
HETATM   17  N   UNK N   1      28.139  29.803  -0.076  0.00  0.00    -0.234 N 
HETATM   18  N   UNK N   1      27.436  28.884  -2.170  0.00  0.00    -0.191 N 
HETATM   19  H   UNK N   1      28.573  30.529   0.428  0.00  0.00     0.174 HD
HETATM   20  H   UNK N   1      27.783  29.018   0.399  0.00  0.00     0.174 HD
ATOM     21  HN  UNK N   1      27.076  28.075  -1.663  1.00  0.00     0.184 HD
ENDBRANCH   1  11
BRANCH   8  22
HETATM   22  C   UNK N   1      28.316  23.583  -4.362  0.00  0.00     0.001 A 
HETATM   23  C   UNK N   1      28.529  23.550  -2.979  0.00  0.00     0.016 A 
HETATM   24  C   UNK N   1      29.700  22.974  -2.464  0.00  0.00     0.024 A 
HETATM   25  C   UNK N   1      30.658  22.432  -3.331  0.00  0.00     0.034 A 
HETATM   26 Cl   UNK N   1      32.121  21.712  -2.698  0.00  0.00    -0.084 Cl
HETATM   27  C   UNK N   1      30.448  22.463  -4.707  0.00  0.00     0.024 A 
HETATM   28  C   UNK N   1      29.286  23.034  -5.218  0.00  0.00     0.016 A 
ENDBRANCH   8  22
TORSDOF 2
ENDMDL
MODEL 2
REMARK VINA RESULT:      -7.5      4.212      6.753
REMARK  2 active torsions:
REMARK  status: ('A' for Active; 'I' for Inactive)
REMARK       I    between atoms: N_1  and  C_2 
REMARK    1  A    between atoms: C_7  and  C_10 
REMARK    2  A    between atoms: C_17  and  C_18 
ROOT
HETATM    1  C   UNK N   1      28.592  23.054  -5.849  0.00  0.00    -0.008 A 
HETATM    2  C   UNK N   1      28.255  22.195  -6.934  0.00  0.00     0.016 A 
HETATM    3  C   UNK N   1      27.328  22.617  -7.921  0.00  0.00     0.033 A 
HETATM    4  C   UNK N   1      26.774  23.891  -7.779  0.00  0.00     0.068 A 
HETATM    5  N   UNK N   1      25.881  24.524  -8.565  0.00  0.00    -0.260 N 
ATOM      6  HN  UNK N   1      25.455  24.162  -9.418  1.00  0.00     0.195 HD
HETATM    7  O   UNK N   1      25.666  25.699  -8.020  0.00  0.00    -0.236 OA
HETATM    8  C   UNK N   1      26.383  25.847  -6.917  0.00  0.00     0.121 A 
HETATM    9  C   UNK N   1      27.103  24.697  -6.742  0.00  0.00     0.030 A 
HETATM   10  C   UNK N   1      27.999  24.320  -5.765  0.00  0.00     0.030 A 
ENDROOT
BRANCH   1  11
HETATM   11  C   UNK N   1      29.545  22.679  -4.788  0.00  0.00     0.060 A 
HETATM   12  C   UNK N   1      29.795  23.511  -3.694  0.00  0.00     0.048 A 
HETATM   13  C   UNK N   1      30.712  23.085  -2.731  0.00  0.00     0.108 A 
HETATM   14  N   UNK N   1      31.341  21.887  -2.868  0.00  0.00    -0.202 N 
HETATM   15  C   UNK N   1      31.086  21.090  -3.938  0.00  0.00     0.676 A 
ATOM     16  HN  UNK N   1      32.010  21.584  -2.160  1.00  0.00     0.183 HD
HETATM   17  N   UNK N   1      31.743  19.851  -4.070  0.00  0.00    -0.234 N 
HETATM   18  N   UNK N   1      30.199  21.488  -4.882  0.00  0.00    -0.191 N 
HETATM   19  H   UNK N   1      32.392  19.561  -3.388  0.00  0.00     0.174 HD
HETATM   20  H   UNK N   1      31.553  19.274  -4.845  0.00  0.00     0.174 HD
ATOM     21  HN  UNK N   1      30.017  20.881  -5.681  1.00  0.00     0.184 HD
ENDBRANCH   1  11
BRANCH   8  22
HETATM   22  C   UNK N   1      26.408  27.029  -6.030  0.00  0.00     0.001 A 
HETATM   23  C   UNK N   1      25.567  27.117  -4.915  0.00  0.00     0.016 A 
HETATM   24  C   UNK N   1      25.613  28.251  -4.091  0.00  0.00     0.024 A 
HETATM   25  C   UNK N   1      26.498  29.298  -4.382  0.00  0.00     0.034 A 
HETATM   26 Cl   UNK N   1      26.561  30.717  -3.360  0.00  0.00    -0.084 Cl
HETATM   27  C   UNK N   1      27.335  29.213  -5.491  0.00  0.00     0.024 A 
HETATM   28  C   UNK N   1      27.290  28.087  -6.308  0.00  0.00     0.016 A 
ENDBRANCH   8  22
TORSDOF 2
ENDMDL
MODEL 3
REMARK VINA RESULT:      -7.5     14.260     16.802
REMARK  2 active torsions:
REMARK  status: ('A' for Active; 'I' for Inactive)
REMARK       I    between atoms: N_1  and  C_2 
REMARK    1  A    between atoms: C_7  and  C_10 
REMARK    2  A    between atoms: C_17  and  C_18 
ROOT
HETATM    1  C   UNK N   1      31.282  17.106   7.092  0.00  0.00    -0.008 A 
HETATM    2  C   UNK N   1      31.428  17.193   5.678  0.00  0.00     0.016 A 
HETATM    3  C   UNK N   1      32.612  16.731   5.050  0.00  0.00     0.033 A 
HETATM    4  C   UNK N   1      33.608  16.197   5.871  0.00  0.00     0.068 A 
HETATM    5  N   UNK N   1      34.813  15.696   5.534  0.00  0.00    -0.260 N 
ATOM      6  HN  UNK N   1      35.201  15.623   4.593  1.00  0.00     0.195 HD
HETATM    7  O   UNK N   1      35.390  15.318   6.650  0.00  0.00    -0.236 OA
HETATM    8  C   UNK N   1      34.607  15.556   7.691  0.00  0.00     0.121 A 
HETATM    9  C   UNK N   1      33.456  16.121   7.214  0.00  0.00     0.030 A 
HETATM   10  C   UNK N   1      32.319  16.560   7.857  0.00  0.00     0.030 A 
ENDROOT
BRANCH   1  11
HETATM   11  C   UNK N   1      30.080  17.569   7.810  0.00  0.00     0.060 A 
HETATM   12  C   UNK N   1      29.856  17.256   9.153  0.00  0.00     0.048 A 
HETATM   13  C   UNK N   1      28.693  17.732   9.762  0.00  0.00     0.108 A 
HETATM   14  N   UNK N   1      27.807  18.480   9.052  0.00  0.00    -0.202 N 
HETATM   15  C   UNK N   1      28.039  18.775   7.747  0.00  0.00     0.676 A 
ATOM     16  HN  UNK N   1      26.959  18.823   9.504  1.00  0.00     0.183 HD
HETATM   17  N   UNK N   1      27.114  19.551   7.021  0.00  0.00    -0.234 N 
HETATM   18  N   UNK N   1      29.162  18.322   7.141  0.00  0.00    -0.191 N 
HETATM   19  H   UNK N   1      26.294  19.878   7.458  0.00  0.00     0.174 HD
HETATM   20  H   UNK N   1      27.287  19.767   6.076  0.00  0.00     0.174 HD
ATOM     21  HN  UNK N   1      29.325  18.550   6.160  1.00  0.00     0.184 HD
ENDBRANCH   1  11
BRANCH   8  22
HETATM   22  C   UNK N   1      34.910  15.270   9.109  0.00  0.00     0.001 A 
HETATM   23  C   UNK N   1      35.299  16.288   9.987  0.00  0.00     0.016 A 
HETATM   24  C   UNK N   1      35.580  15.987  11.328  0.00  0.00     0.024 A 
HETATM   25  C   UNK N   1      35.473  14.669  11.791  0.00  0.00     0.034 A 
HETATM   26 Cl   UNK N   1      35.822  14.284  13.462  0.00  0.00    -0.084 Cl
HETATM   27  C   UNK N   1      35.085  13.654  10.920  0.00  0.00     0.024 A 
HETATM   28  C   UNK N   1      34.806  13.953   9.590  0.00  0.00     0.016 A 
ENDBRANCH   8  22
TORSDOF 2
ENDMDL
MODEL 4
REMARK VINA RESULT:      -7.3     11.387     13.933
REMARK  2 active torsions:
REMARK  status: ('A' for Active; 'I' for Inactive)
REMARK       I    between atoms: N_1  and  C_2 
REMARK    1  A    between atoms: C_7  and  C_10 
REMARK    2  A    between atoms: C_17  and  C_18 
ROOT
HETATM    1  C   UNK N   1      28.164  18.555   6.753  0.00  0.00    -0.008 A 
HETATM    2  C   UNK N   1      27.895  18.833   8.123  0.00  0.00     0.016 A 
HETATM    3  C   UNK N   1      28.774  18.368   9.135  0.00  0.00     0.033 A 
HETATM    4  C   UNK N   1      29.893  17.639   8.728  0.00  0.00     0.068 A 
HETATM    5  N   UNK N   1      30.870  17.090   9.476  0.00  0.00    -0.260 N 
ATOM      6  HN  UNK N   1      30.951  17.122  10.493  1.00  0.00     0.195 HD
HETATM    7  O   UNK N   1      31.699  16.506   8.643  0.00  0.00    -0.236 OA
HETATM    8  C   UNK N   1      31.296  16.656   7.391  0.00  0.00     0.121 A 
HETATM    9  C   UNK N   1      30.136  17.382   7.422  0.00  0.00     0.030 A 
HETATM   10  C   UNK N   1      29.305  17.818   6.413  0.00  0.00     0.030 A 
ENDROOT
BRANCH   1  11
HETATM   11  C   UNK N   1      27.294  19.006   5.651  0.00  0.00     0.060 A 
HETATM   12  C   UNK N   1      27.776  19.797   4.605  0.00  0.00     0.048 A 
HETATM   13  C   UNK N   1      26.889  20.183   3.599  0.00  0.00     0.108 A 
HETATM   14  N   UNK N   1      25.587  19.793   3.649  0.00  0.00    -0.202 N 
HETATM   15  C   UNK N   1      25.134  19.024   4.673  0.00  0.00     0.676 A 
ATOM     16  HN  UNK N   1      24.945  20.080   2.910  1.00  0.00     0.183 HD
HETATM   17  N   UNK N   1      23.783  18.624   4.714  0.00  0.00    -0.234 N 
HETATM   18  N   UNK N   1      25.982  18.639   5.657  0.00  0.00    -0.191 N 
HETATM   19  H   UNK N   1      23.164  18.906   4.002  0.00  0.00     0.174 HD
HETATM   20  H   UNK N   1      23.459  18.063   5.455  0.00  0.00     0.174 HD
ATOM     21  HN  UNK N   1      25.629  18.062   6.421  1.00  0.00     0.184 HD
ENDBRANCH   1  11
BRANCH   8  22
HETATM   22  C   UNK N   1      31.965  16.141   6.178  0.00  0.00     0.001 A 
HETATM   23  C   UNK N   1      31.858  14.795   5.808  0.00  0.00     0.016 A 
HETATM   24  C   UNK N   1      32.503  14.334   4.651  0.00  0.00     0.024 A 
HETATM   25  C   UNK N   1      33.257  15.216   3.865  0.00  0.00     0.034 A 
HETATM   26 Cl   UNK N   1      34.066  14.650   2.422  0.00  0.00    -0.084 Cl
HETATM   27  C   UNK N   1      33.365  16.555   4.232  0.00  0.00     0.024 A 
HETATM   28  C   UNK N   1      32.723  17.013   5.379  0.00  0.00     0.016 A 
ENDBRANCH   8  22
TORSDOF 2
ENDMDL
MODEL 5
REMARK VINA RESULT:      -7.3      5.069      7.677
REMARK  2 active torsions:
REMARK  status: ('A' for Active; 'I' for Inactive)
REMARK       I    between atoms: N_1  and  C_2 
REMARK    1  A    between atoms: C_7  and  C_10 
REMARK    2  A    between atoms: C_17  and  C_18 
ROOT
HETATM    1  C   UNK N   1      29.836  20.949  -6.228  0.00  0.00    -0.008 A 
HETATM    2  C   UNK N   1      29.968  19.898  -7.179  0.00  0.00     0.016 A 
HETATM    3  C   UNK N   1      29.109  19.838  -8.305  0.00  0.00     0.033 A 
HETATM    4  C   UNK N   1      28.146  20.842  -8.432  0.00  0.00     0.068 A 
HETATM    5  N   UNK N   1      27.218  21.016  -9.394  0.00  0.00    -0.260 N 
ATOM      6  HN  UNK N   1      27.067  20.422 -10.210  1.00  0.00     0.195 HD
HETATM    7  O   UNK N   1      26.546  22.098  -9.077  0.00  0.00    -0.236 OA
HETATM    8  C   UNK N   1      27.002  22.626  -7.953  0.00  0.00     0.121 A 
HETATM    9  C   UNK N   1      28.031  21.835  -7.520  0.00  0.00     0.030 A 
HETATM   10  C   UNK N   1      28.849  21.924  -6.414  0.00  0.00     0.030 A 
ENDROOT
BRANCH   1  11
HETATM   11  C   UNK N   1      30.693  21.071  -5.034  0.00  0.00     0.060 A 
HETATM   12  C   UNK N   1      30.411  21.980  -4.012  0.00  0.00     0.048 A 
HETATM   13  C   UNK N   1      31.272  22.036  -2.914  0.00  0.00     0.108 A 
HETATM   14  N   UNK N   1      32.357  21.218  -2.854  0.00  0.00    -0.202 N 
HETATM   15  C   UNK N   1      32.618  20.340  -3.857  0.00  0.00     0.676 A 
ATOM     16  HN  UNK N   1      32.981  21.266  -2.049  1.00  0.00     0.183 HD
HETATM   17  N   UNK N   1      33.744  19.497  -3.784  0.00  0.00    -0.234 N 
HETATM   18  N   UNK N   1      31.793  20.272  -4.929  0.00  0.00    -0.191 N 
HETATM   19  H   UNK N   1      34.348  19.547  -3.008  0.00  0.00     0.174 HD
HETATM   20  H   UNK N   1      33.929  18.858  -4.510  0.00  0.00     0.174 HD
ATOM     21  HN  UNK N   1      32.000  19.608  -5.675  1.00  0.00     0.184 HD
ENDBRANCH   1  11
BRANCH   8  22
HETATM   22  C   UNK N   1      26.501  23.843  -7.279  0.00  0.00     0.001 A 
HETATM   23  C   UNK N   1      26.520  25.087  -7.922  0.00  0.00     0.016 A 
HETATM   24  C   UNK N   1      26.038  26.224  -7.258  0.00  0.00     0.024 A 
HETATM   25  C   UNK N   1      25.538  26.120  -5.953  0.00  0.00     0.034 A 
HETATM   26 Cl   UNK N   1      24.936  27.534  -5.118  0.00  0.00    -0.084 Cl
HETATM   27  C   UNK N   1      25.518  24.884  -5.313  0.00  0.00     0.024 A 
HETATM   28  C   UNK N   1      25.996  23.755  -5.971  0.00  0.00     0.016 A 
ENDBRANCH   8  22
TORSDOF 2
ENDMDL
MODEL 6
REMARK VINA RESULT:      -7.2     11.655     13.663
REMARK  2 active torsions:
REMARK  status: ('A' for Active; 'I' for Inactive)
REMARK       I    between atoms: N_1  and  C_2 
REMARK    1  A    between atoms: C_7  and  C_10 
REMARK    2  A    between atoms: C_17  and  C_18 
ROOT
HETATM    1  C   UNK N   1      26.817  19.102   4.982  0.00  0.00    -0.008 A 
HETATM    2  C   UNK N   1      27.020  20.057   3.946  0.00  0.00     0.016 A 
HETATM    3  C   UNK N   1      25.929  20.501   3.156  0.00  0.00     0.033 A 
HETATM    4  C   UNK N   1      24.671  19.966   3.441  0.00  0.00     0.068 A 
HETATM    5  N   UNK N   1      23.486  20.214   2.848  0.00  0.00    -0.260 N 
ATOM      6  HN  UNK N   1      23.314  20.855   2.073  1.00  0.00     0.195 HD
HETATM    7  O   UNK N   1      22.595  19.472   3.463  0.00  0.00    -0.236 OA
HETATM    8  C   UNK N   1      23.157  18.757   4.425  0.00  0.00     0.121 A 
HETATM    9  C   UNK N   1      24.492  19.058   4.428  0.00  0.00     0.030 A 
HETATM   10  C   UNK N   1      25.529  18.605   5.215  0.00  0.00     0.030 A 
ENDROOT
BRANCH   1  11
HETATM   11  C   UNK N   1      27.905  18.595   5.839  0.00  0.00     0.060 A 
HETATM   12  C   UNK N   1      29.015  17.933   5.308  0.00  0.00     0.048 A 
HETATM   13  C   UNK N   1      30.003  17.482   6.185  0.00  0.00     0.108 A 
HETATM   14  N   UNK N   1      29.876  17.689   7.523  0.00  0.00    -0.202 N 
HETATM   15  C   UNK N   1      28.791  18.335   8.023  0.00  0.00     0.676 A 
ATOM     16  HN  UNK N   1      30.602  17.357   8.157  1.00  0.00     0.183 HD
HETATM   17  N   UNK N   1      28.669  18.545   9.411  0.00  0.00    -0.234 N 
HETATM   18  N   UNK N   1      27.822  18.779   7.186  0.00  0.00    -0.191 N 
HETATM   19  H   UNK N   1      29.369  18.219  10.022  0.00  0.00     0.174 HD
HETATM   20  H   UNK N   1      27.884  19.017   9.770  0.00  0.00     0.174 HD
ATOM     21  HN  UNK N   1      27.012  19.262   7.574  1.00  0.00     0.184 HD
ENDBRANCH   1  11
BRANCH   8  22
HETATM   22  C   UNK N   1      22.481  17.806   5.332  0.00  0.00     0.001 A 
HETATM   23  C   UNK N   1      22.849  16.456   5.373  0.00  0.00     0.016 A 
HETATM   24  C   UNK N   1      22.189  15.577   6.243  0.00  0.00     0.024 A 
HETATM   25  C   UNK N   1      21.161  16.045   7.072  0.00  0.00     0.034 A 
HETATM   26 Cl   UNK N   1      20.331  14.955   8.160  0.00  0.00    -0.084 Cl
HETATM   27  C   UNK N   1      20.792  17.387   7.033  0.00  0.00     0.024 A 
HETATM   28  C   UNK N   1      21.448  18.260   6.169  0.00  0.00     0.016 A 
ENDBRANCH   8  22
TORSDOF 2
ENDMDL
MODEL 7
REMARK VINA RESULT:      -7.2     12.894     15.392
REMARK  2 active torsions:
REMARK  status: ('A' for Active; 'I' for Inactive)
REMARK       I    between atoms: N_1  and  C_2 
REMARK    1  A    between atoms: C_7  and  C_10 
REMARK    2  A    between atoms: C_17  and  C_18 
ROOT
HETATM    1  C   UNK N   1      31.220  17.234   8.169  0.00  0.00    -0.008 A 
HETATM    2  C   UNK N   1      30.631  18.202   9.032  0.00  0.00     0.016 A 
HETATM    3  C   UNK N   1      29.328  18.697   8.770  0.00  0.00     0.033 A 
HETATM    4  C   UNK N   1      28.665  18.198   7.647  0.00  0.00     0.068 A 
HETATM    5  N   UNK N   1      27.438  18.498   7.179  0.00  0.00    -0.260 N 
ATOM      6  HN  UNK N   1      26.775  19.159   7.585  1.00  0.00     0.195 HD
HETATM    7  O   UNK N   1      27.259  17.774   6.099  0.00  0.00    -0.236 OA
HETATM    8  C   UNK N   1      28.320  17.022   5.852  0.00  0.00     0.121 A 
HETATM    9  C   UNK N   1      29.238  17.278   6.835  0.00  0.00     0.030 A 
HETATM   10  C   UNK N   1      30.501  16.775   7.059  0.00  0.00     0.030 A 
ENDROOT
BRANCH   1  11
HETATM   11  C   UNK N   1      32.570  16.678   8.380  0.00  0.00     0.060 A 
HETATM   12  C   UNK N   1      33.097  15.685   7.551  0.00  0.00     0.048 A 
HETATM   13  C   UNK N   1      34.383  15.210   7.817  0.00  0.00     0.108 A 
HETATM   14  N   UNK N   1      35.094  15.711   8.862  0.00  0.00    -0.202 N 
HETATM   15  C   UNK N   1      34.566  16.676   9.660  0.00  0.00     0.676 A 
ATOM     16  HN  UNK N   1      36.032  15.358   9.050  1.00  0.00     0.183 HD
HETATM   17  N   UNK N   1      35.312  17.187  10.740  0.00  0.00    -0.234 N 
HETATM   18  N   UNK N   1      33.321  17.148   9.416  0.00  0.00    -0.191 N 
HETATM   19  H   UNK N   1      36.216  16.843  10.922  0.00  0.00     0.174 HD
HETATM   20  H   UNK N   1      34.929  17.890  11.313  0.00  0.00     0.174 HD
ATOM     21  HN  UNK N   1      32.935  17.873  10.022  1.00  0.00     0.184 HD
ENDBRANCH   1  11
BRANCH   8  22
HETATM   22  C   UNK N   1      28.495  16.078   4.728  0.00  0.00     0.001 A 
HETATM   23  C   UNK N   1      28.922  16.521   3.470  0.00  0.00     0.016 A 
HETATM   24  C   UNK N   1      29.078  15.602   2.422  0.00  0.00     0.024 A 
HETATM   25  C   UNK N   1      28.807  14.243   2.629  0.00  0.00     0.034 A 
HETATM   26 Cl   UNK N   1      28.999  13.091   1.327  0.00  0.00    -0.084 Cl
HETATM   27  C   UNK N   1      28.383  13.801   3.879  0.00  0.00     0.024 A 
HETATM   28  C   UNK N   1      28.228  14.712   4.920  0.00  0.00     0.016 A 
ENDBRANCH   8  22
TORSDOF 2
ENDMDL
MODEL 8
REMARK VINA RESULT:      -7.2     11.300     13.271
REMARK  2 active torsions:
REMARK  status: ('A' for Active; 'I' for Inactive)
REMARK       I    between atoms: N_1  and  C_2 
REMARK    1  A    between atoms: C_7  and  C_10 
REMARK    2  A    between atoms: C_17  and  C_18 
ROOT
HETATM    1  C   UNK N   1      26.635  19.052   4.319  0.00  0.00    -0.008 A 
HETATM    2  C   UNK N   1      26.744  20.180   3.456  0.00  0.00     0.016 A 
HETATM    3  C   UNK N   1      25.583  20.751   2.874  0.00  0.00     0.033 A 
HETATM    4  C   UNK N   1      24.355  20.164   3.183  0.00  0.00     0.068 A 
HETATM    5  N   UNK N   1      23.119  20.506   2.768  0.00  0.00    -0.260 N 
ATOM      6  HN  UNK N   1      22.876  21.274   2.142  1.00  0.00     0.195 HD
HETATM    7  O   UNK N   1      22.286  19.658   3.325  0.00  0.00    -0.236 OA
HETATM    8  C   UNK N   1      22.935  18.786   4.081  0.00  0.00     0.121 A 
HETATM    9  C   UNK N   1      24.266  19.092   4.004  0.00  0.00     0.030 A 
HETATM   10  C   UNK N   1      25.372  18.512   4.587  0.00  0.00     0.030 A 
ENDROOT
BRANCH   1  11
HETATM   11  C   UNK N   1      27.799  18.408   4.956  0.00  0.00     0.060 A 
HETATM   12  C   UNK N   1      27.742  17.901   6.257  0.00  0.00     0.048 A 
HETATM   13  C   UNK N   1      28.886  17.306   6.790  0.00  0.00     0.108 A 
HETATM   14  N   UNK N   1      30.024  17.228   6.050  0.00  0.00    -0.202 N 
HETATM   15  C   UNK N   1      30.064  17.726   4.786  0.00  0.00     0.676 A 
ATOM     16  HN  UNK N   1      30.856  16.792   6.447  1.00  0.00     0.183 HD
HETATM   17  N   UNK N   1      31.248  17.639   4.028  0.00  0.00    -0.234 N 
HETATM   18  N   UNK N   1      28.962  18.307   4.253  0.00  0.00    -0.191 N 
HETATM   19  H   UNK N   1      32.051  17.222   4.414  0.00  0.00     0.174 HD
HETATM   20  H   UNK N   1      31.272  17.997   3.111  0.00  0.00     0.174 HD
ATOM     21  HN  UNK N   1      29.004  18.677   3.304  1.00  0.00     0.184 HD
ENDBRANCH   1  11
BRANCH   8  22
HETATM   22  C   UNK N   1      22.343  17.682   4.866  0.00  0.00     0.001 A 
HETATM   23  C   UNK N   1      21.803  17.905   6.138  0.00  0.00     0.016 A 
HETATM   24  C   UNK N   1      21.248  16.839   6.860  0.00  0.00     0.024 A 
HETATM   25  C   UNK N   1      21.232  15.549   6.311  0.00  0.00     0.034 A 
HETATM   26 Cl   UNK N   1      20.542  14.212   7.204  0.00  0.00    -0.084 Cl
HETATM   27  C   UNK N   1      21.768  15.325   5.046  0.00  0.00     0.024 A 
HETATM   28  C   UNK N   1      22.319  16.383   4.329  0.00  0.00     0.016 A 
ENDBRANCH   8  22
TORSDOF 2
ENDMDL
MODEL 9
REMARK VINA RESULT:      -7.1     11.938     14.736
REMARK  2 active torsions:
REMARK  status: ('A' for Active; 'I' for Inactive)
REMARK       I    between atoms: N_1  and  C_2 
REMARK    1  A    between atoms: C_7  and  C_10 
REMARK    2  A    between atoms: C_17  and  C_18 
ROOT
HETATM    1  C   UNK N   1      31.283  16.566   6.176  0.00  0.00    -0.008 A 
HETATM    2  C   UNK N   1      31.746  16.284   7.493  0.00  0.00     0.016 A 
HETATM    3  C   UNK N   1      31.035  16.767   8.621  0.00  0.00     0.033 A 
HETATM    4  C   UNK N   1      29.882  17.518   8.380  0.00  0.00     0.068 A 
HETATM    5  N   UNK N   1      29.036  18.087   9.262  0.00  0.00    -0.260 N 
ATOM      6  HN  UNK N   1      29.105  18.057  10.280  1.00  0.00     0.195 HD
HETATM    7  O   UNK N   1      28.105  18.686   8.558  0.00  0.00    -0.236 OA
HETATM    8  C   UNK N   1      28.316  18.526   7.260  0.00  0.00     0.121 A 
HETATM    9  C   UNK N   1      29.454  17.779   7.123  0.00  0.00     0.030 A 
HETATM   10  C   UNK N   1      30.120  17.325   6.004  0.00  0.00     0.030 A 
ENDROOT
BRANCH   1  11
HETATM   11  C   UNK N   1      31.974  16.098   4.960  0.00  0.00     0.060 A 
HETATM   12  C   UNK N   1      32.526  16.988   4.035  0.00  0.00     0.048 A 
HETATM   13  C   UNK N   1      33.163  16.467   2.908  0.00  0.00     0.108 A 
HETATM   14  N   UNK N   1      33.237  15.121   2.726  0.00  0.00    -0.202 N 
HETATM   15  C   UNK N   1      32.695  14.269   3.634  0.00  0.00     0.676 A 
ATOM     16  HN  UNK N   1      33.704  14.748   1.900  1.00  0.00     0.183 HD
HETATM   17  N   UNK N   1      32.778  12.877   3.436  0.00  0.00    -0.234 N 
HETATM   18  N   UNK N   1      32.073  14.758   4.734  0.00  0.00    -0.191 N 
HETATM   19  H   UNK N   1      33.226  12.518   2.636  0.00  0.00     0.174 HD
HETATM   20  H   UNK N   1      32.388  12.261   4.098  0.00  0.00     0.174 HD
ATOM     21  HN  UNK N   1      31.670  14.108   5.408  1.00  0.00     0.184 HD
ENDBRANCH   1  11
BRANCH   8  22
HETATM   22  C   UNK N   1      27.487  19.054   6.157  0.00  0.00     0.001 A 
HETATM   23  C   UNK N   1      27.427  20.426   5.887  0.00  0.00     0.016 A 
HETATM   24  C   UNK N   1      26.631  20.898   4.834  0.00  0.00     0.024 A 
HETATM   25  C   UNK N   1      25.894  20.000   4.050  0.00  0.00     0.034 A 
HETATM   26 Cl   UNK N   1      24.897  20.580   2.734  0.00  0.00    -0.084 Cl
HETATM   27  C   UNK N   1      25.952  18.635   4.316  0.00  0.00     0.024 A 
HETATM   28  C   UNK N   1      26.742  18.166   5.362  0.00  0.00     0.016 A 
ENDBRANCH   8  22
TORSDOF 2
ENDMDL
