REMARK  2 active torsions:
REMARK  status: ('A' for Active; 'I' for Inactive)
REMARK       I    between atoms: N_1  and  C_2 
REMARK    1  A    between atoms: C_7  and  C_10 
REMARK    2  A    between atoms: C_17  and  C_18 
ROOT
HETATM    1  C   UNK N   1       1.743  -1.504  -0.028  0.00  0.00    -0.008 A 
HETATM    2  C   UNK N   1       1.723  -2.928  -0.041  0.00  0.00     0.016 A 
HETATM    3  C   UNK N   1       0.489  -3.627  -0.043  0.00  0.00     0.033 A 
HETATM    4  C   UNK N   1      -0.681  -2.865  -0.032  0.00  0.00     0.068 A 
HETATM    5  N   UNK N   1      -1.965  -3.275  -0.030  0.00  0.00    -0.260 N 
ATOM      6  HN  UNK N   1      -2.297  -4.240  -0.038  1.00  0.00     0.195 HD
HETATM    7  O   UNK N   1      -2.706  -2.192  -0.017  0.00  0.00    -0.236 OA
HETATM    8  C   UNK N   1      -1.953  -1.103  -0.010  0.00  0.00     0.121 A 
HETATM    9  C   UNK N   1      -0.647  -1.512  -0.019  0.00  0.00     0.030 A 
HETATM   10  C   UNK N   1       0.533  -0.800  -0.017  0.00  0.00     0.030 A 
ENDROOT
BRANCH   1  11
HETATM   11  C   UNK N   1       2.988  -0.714  -0.023  0.00  0.00     0.060 A 
HETATM   12  C   UNK N   1       4.247  -1.320  -0.029  0.00  0.00     0.048 A 
HETATM   13  C   UNK N   1       5.379  -0.503  -0.023  0.00  0.00     0.108 A 
HETATM   14  N   UNK N   1       5.245   0.850  -0.011  0.00  0.00    -0.202 N 
HETATM   15  C   UNK N   1       4.014   1.424  -0.005  0.00  0.00     0.676 A 
ATOM     16  HN  UNK N   1       6.077   1.440  -0.006  1.00  0.00     0.183 HD
HETATM   17  N   UNK N   1       3.887   2.827   0.007  0.00  0.00    -0.234 N 
HETATM   18  N   UNK N   1       2.905   0.646  -0.011  0.00  0.00    -0.191 N 
HETATM   19  H   UNK N   1       4.691   3.395   0.016  0.00  0.00     0.174 HD
HETATM   20  H   UNK N   1       2.993   3.240   0.007  0.00  0.00     0.174 HD
ATOM     21  HN  UNK N   1       1.986   1.089  -0.006  1.00  0.00     0.184 HD
ENDBRANCH   1  11
BRANCH   8  22
HETATM   22  C   UNK N   1      -2.423   0.298   0.006  0.00  0.00     0.001 A 
HETATM   23  C   UNK N   1      -3.789   0.604   0.017  0.00  0.00     0.016 A 
HETATM   24  C   UNK N   1      -4.206   1.943   0.032  0.00  0.00     0.024 A 
HETATM   25  C   UNK N   1      -3.259   2.976   0.035  0.00  0.00     0.034 A 
HETATM   26 Cl   UNK N   1      -3.770   4.649   0.053  0.00  0.00    -0.084 Cl
HETATM   27  C   UNK N   1      -1.900   2.674   0.024  0.00  0.00     0.024 A 
HETATM   28  C   UNK N   1      -1.486   1.345   0.010  0.00  0.00     0.016 A 
ENDBRANCH   8  22
TORSDOF 2
