MODEL 1
REMARK VINA RESULT:      -7.6      0.000      0.000
REMARK  4 active torsions:
REMARK  status: ('A' for Active; 'I' for Inactive)
REMARK    1  A    between atoms: C_1  and  C_11 
REMARK    2  A    between atoms: N_22  and  C_9 
REMARK    3  A    between atoms: C_10  and  N_22 
REMARK    4  A    between atoms: C_21  and  C_20 
ROOT
HETATM    1  N   UNK N   1      25.522  24.607  -6.213  0.00  0.00    -0.282 N 
ATOM      2  HN  UNK N   1      24.864  24.382  -6.960  1.00  0.00     0.188 HD
HETATM    3  C   UNK N   1      25.598  25.763  -5.531  0.00  0.00     0.143 A 
HETATM    4  C   UNK N   1      24.785  26.877  -5.659  0.00  0.00     0.056 A 
HETATM    5  C   UNK N   1      26.111  27.871  -3.876  0.00  0.00     0.116 A 
HETATM    6  C   UNK N   1      25.046  27.950  -4.794  0.00  0.00     0.053 A 
HETATM    7  N   UNK N   1      26.472  23.811  -5.723  0.00  0.00    -0.282 N 
ATOM      8  HN  UNK N   1      26.677  22.859  -6.024  1.00  0.00     0.188 HD
HETATM    9  C   UNK N   1      27.115  24.501  -4.749  0.00  0.00     0.154 A 
HETATM   10  N   UNK N   1      26.873  26.737  -3.813  0.00  0.00    -0.276 N 
ATOM     11  HN  UNK N   1      27.649  26.667  -3.156  1.00  0.00     0.189 HD
HETATM   12  N   UNK N   1      26.579  25.727  -4.631  0.00  0.00    -0.219 N 
ENDROOT
BRANCH   9  13
HETATM   13  C   UNK N   1      28.205  23.951  -3.920  0.00  0.00     0.012 A 
HETATM   14  C   UNK N   1      29.485  23.767  -4.466  0.00  0.00     0.031 A 
HETATM   15  C   UNK N   1      30.518  23.217  -3.687  0.00  0.00     0.048 A 
HETATM   16  C   UNK N   1      30.260  22.854  -2.359  0.00  0.00     0.016 A 
HETATM   17  C   UNK N   1      28.988  23.033  -1.813  0.00  0.00     0.002 A 
HETATM   18  C   UNK N   1      27.966  23.578  -2.591  0.00  0.00     0.015 A 
BRANCH  15  19
HETATM   19  C   UNK N   1      31.892  23.010  -4.255  0.00  0.00     0.417 C 
HETATM   20  F   UNK N   1      32.624  22.202  -3.404  0.00  0.00    -0.166 F 
HETATM   21  F   UNK N   1      32.558  24.213  -4.412  0.00  0.00    -0.166 F 
HETATM   22  F   UNK N   1      31.792  22.392  -5.488  0.00  0.00    -0.166 F 
ENDBRANCH  15  19
ENDBRANCH   9  13
BRANCH   5  23
HETATM   23  N   UNK N   1      26.367  28.967  -3.027  0.00  0.00    -0.371 N 
HETATM   24  H   UNK N   1      26.234  28.864  -2.058  0.00  0.00     0.161 HD
BRANCH  23  25
HETATM   25  C   UNK N   1      26.815  30.235  -3.544  0.00  0.00     0.083 C 
HETATM   26  C   UNK N   1      27.928  30.019  -4.580  0.00  0.00     0.025 C 
HETATM   27  C   UNK N   1      29.310  29.717  -3.969  0.00  0.00     0.002 C 
HETATM   28  C   UNK N   1      29.227  29.288  -2.505  0.00  0.00     0.000 C 
HETATM   29  C   UNK N   1      28.535  30.362  -1.655  0.00  0.00     0.002 C 
HETATM   30  C   UNK N   1      27.364  31.062  -2.376  0.00  0.00     0.025 C 
ENDBRANCH  23  25
ENDBRANCH   5  23
TORSDOF 4
ENDMDL
MODEL 2
REMARK VINA RESULT:      -7.5     12.181     14.728
REMARK  4 active torsions:
REMARK  status: ('A' for Active; 'I' for Inactive)
REMARK    1  A    between atoms: C_1  and  C_11 
REMARK    2  A    between atoms: N_22  and  C_9 
REMARK    3  A    between atoms: C_10  and  N_22 
REMARK    4  A    between atoms: C_21  and  C_20 
ROOT
HETATM    1  N   UNK N   1      24.437  20.155   3.236  0.00  0.00    -0.282 N 
ATOM      2  HN  UNK N   1      24.364  20.858   2.500  1.00  0.00     0.188 HD
HETATM    3  C   UNK N   1      25.482  19.958   4.058  0.00  0.00     0.143 A 
HETATM    4  C   UNK N   1      26.662  20.682   4.118  0.00  0.00     0.056 A 
HETATM    5  C   UNK N   1      27.306  19.208   5.945  0.00  0.00     0.116 A 
HETATM    6  C   UNK N   1      27.586  20.300   5.100  0.00  0.00     0.053 A 
HETATM    7  N   UNK N   1      23.514  19.254   3.570  0.00  0.00    -0.282 N 
ATOM      8  HN  UNK N   1      22.597  19.139   3.137  1.00  0.00     0.188 HD
HETATM    9  C   UNK N   1      24.016  18.518   4.591  0.00  0.00     0.154 A 
HETATM   10  N   UNK N   1      26.119  18.539   5.821  0.00  0.00    -0.276 N 
ATOM     11  HN  UNK N   1      25.904  17.745   6.423  1.00  0.00     0.189 HD
HETATM   12  N   UNK N   1      25.252  18.947   4.894  0.00  0.00    -0.219 N 
ENDROOT
BRANCH   9  13
HETATM   13  C   UNK N   1      23.280  17.444   5.285  0.00  0.00     0.012 A 
HETATM   14  C   UNK N   1      22.196  17.756   6.121  0.00  0.00     0.031 A 
HETATM   15  C   UNK N   1      21.511  16.737   6.806  0.00  0.00     0.048 A 
HETATM   16  C   UNK N   1      21.917  15.407   6.648  0.00  0.00     0.016 A 
HETATM   17  C   UNK N   1      22.996  15.093   5.819  0.00  0.00     0.002 A 
HETATM   18  C   UNK N   1      23.674  16.107   5.143  0.00  0.00     0.015 A 
BRANCH  15  19
HETATM   19  C   UNK N   1      20.351  17.053   7.707  0.00  0.00     0.417 C 
HETATM   20  F   UNK N   1      20.566  16.481   8.948  0.00  0.00    -0.166 F 
HETATM   21  F   UNK N   1      19.164  16.565   7.189  0.00  0.00    -0.166 F 
HETATM   22  F   UNK N   1      20.243  18.423   7.855  0.00  0.00    -0.166 F 
ENDBRANCH  15  19
ENDBRANCH   9  13
BRANCH   5  23
HETATM   23  N   UNK N   1      28.256  18.830   6.915  0.00  0.00    -0.371 N 
HETATM   24  H   UNK N   1      28.983  19.452   7.142  0.00  0.00     0.161 HD
BRANCH  23  25
HETATM   25  C   UNK N   1      28.189  17.554   7.580  0.00  0.00     0.083 C 
HETATM   26  C   UNK N   1      28.031  17.756   9.094  0.00  0.00     0.025 C 
HETATM   27  C   UNK N   1      29.337  18.130   9.822  0.00  0.00     0.002 C 
HETATM   28  C   UNK N   1      30.423  18.624   8.868  0.00  0.00     0.000 C 
HETATM   29  C   UNK N   1      30.738  17.569   7.798  0.00  0.00     0.002 C 
HETATM   30  C   UNK N   1      29.495  16.800   7.304  0.00  0.00     0.025 C 
ENDBRANCH  23  25
ENDBRANCH   5  23
TORSDOF 4
ENDMDL
MODEL 3
REMARK VINA RESULT:      -7.4     11.447     14.092
REMARK  4 active torsions:
REMARK  status: ('A' for Active; 'I' for Inactive)
REMARK    1  A    between atoms: C_1  and  C_11 
REMARK    2  A    between atoms: N_22  and  C_9 
REMARK    3  A    between atoms: C_10  and  N_22 
REMARK    4  A    between atoms: C_21  and  C_20 
ROOT
HETATM    1  N   UNK N   1      26.704  20.509   3.216  0.00  0.00    -0.282 N 
ATOM      2  HN  UNK N   1      26.625  21.223   2.492  1.00  0.00     0.188 HD
HETATM    3  C   UNK N   1      25.701  19.783   3.741  0.00  0.00     0.143 A 
HETATM    4  C   UNK N   1      24.361  19.812   3.392  0.00  0.00     0.056 A 
HETATM    5  C   UNK N   1      24.036  18.073   5.064  0.00  0.00     0.116 A 
HETATM    6  C   UNK N   1      23.515  18.919   4.066  0.00  0.00     0.053 A 
HETATM    7  N   UNK N   1      27.821  20.113   3.825  0.00  0.00    -0.282 N 
ATOM      8  HN  UNK N   1      28.762  20.468   3.652  1.00  0.00     0.188 HD
HETATM    9  C   UNK N   1      27.478  19.152   4.717  0.00  0.00     0.154 A 
HETATM   10  N   UNK N   1      25.372  18.107   5.356  0.00  0.00    -0.276 N 
ATOM     11  HN  UNK N   1      25.763  17.502   6.078  1.00  0.00     0.189 HD
HETATM   12  N   UNK N   1      26.151  18.948   4.677  0.00  0.00    -0.219 N 
ENDROOT
BRANCH   9  13
HETATM   13  C   UNK N   1      28.440  18.416   5.561  0.00  0.00     0.012 A 
HETATM   14  C   UNK N   1      28.372  18.514   6.960  0.00  0.00     0.031 A 
HETATM   15  C   UNK N   1      29.304  17.837   7.764  0.00  0.00     0.048 A 
HETATM   16  C   UNK N   1      30.303  17.063   7.161  0.00  0.00     0.016 A 
HETATM   17  C   UNK N   1      30.374  16.965   5.770  0.00  0.00     0.002 A 
HETATM   18  C   UNK N   1      29.448  17.640   4.974  0.00  0.00     0.015 A 
BRANCH  15  19
HETATM   19  C   UNK N   1      29.249  17.932   9.262  0.00  0.00     0.417 C 
HETATM   20  F   UNK N   1      29.957  19.045   9.677  0.00  0.00    -0.166 F 
HETATM   21  F   UNK N   1      29.794  16.808   9.859  0.00  0.00    -0.166 F 
HETATM   22  F   UNK N   1      27.933  18.058   9.668  0.00  0.00    -0.166 F 
ENDBRANCH  15  19
ENDBRANCH   9  13
BRANCH   5  23
HETATM   23  N   UNK N   1      23.166  17.195   5.741  0.00  0.00    -0.371 N 
HETATM   24  H   UNK N   1      23.540  16.546   6.380  0.00  0.00     0.161 HD
BRANCH  23  25
HETATM   25  C   UNK N   1      21.743  17.221   5.519  0.00  0.00     0.083 C 
HETATM   26  C   UNK N   1      21.008  17.503   6.836  0.00  0.00     0.025 C 
HETATM   27  C   UNK N   1      20.896  16.285   7.772  0.00  0.00     0.002 C 
HETATM   28  C   UNK N   1      21.872  15.168   7.407  0.00  0.00     0.000 C 
HETATM   29  C   UNK N   1      21.659  14.702   5.960  0.00  0.00     0.002 C 
HETATM   30  C   UNK N   1      21.316  15.848   4.985  0.00  0.00     0.025 C 
ENDBRANCH  23  25
ENDBRANCH   5  23
TORSDOF 4
ENDMDL
MODEL 4
REMARK VINA RESULT:      -7.3     18.931     21.633
REMARK  4 active torsions:
REMARK  status: ('A' for Active; 'I' for Inactive)
REMARK    1  A    between atoms: C_1  and  C_11 
REMARK    2  A    between atoms: N_22  and  C_9 
REMARK    3  A    between atoms: C_10  and  N_22 
REMARK    4  A    between atoms: C_21  and  C_20 
ROOT
HETATM    1  N   UNK N   1      38.081  13.200  11.172  0.00  0.00    -0.282 N 
ATOM      2  HN  UNK N   1      38.993  13.080  10.730  1.00  0.00     0.188 HD
HETATM    3  C   UNK N   1      37.046  13.915  10.697  0.00  0.00     0.143 A 
HETATM    4  C   UNK N   1      36.971  14.604   9.497  0.00  0.00     0.056 A 
HETATM    5  C   UNK N   1      34.696  15.184  10.139  0.00  0.00     0.116 A 
HETATM    6  C   UNK N   1      35.755  15.240   9.212  0.00  0.00     0.053 A 
HETATM    7  N   UNK N   1      37.685  12.679  12.332  0.00  0.00    -0.282 N 
ATOM      8  HN  UNK N   1      38.238  12.080  12.947  1.00  0.00     0.188 HD
HETATM    9  C   UNK N   1      36.411  13.089  12.547  0.00  0.00     0.154 A 
HETATM   10  N   UNK N   1      34.848  14.487  11.305  0.00  0.00    -0.276 N 
ATOM     11  HN  UNK N   1      34.092  14.441  11.987  1.00  0.00     0.189 HD
HETATM   12  N   UNK N   1      36.009  13.871  11.532  0.00  0.00    -0.219 N 
ENDROOT
BRANCH   9  13
HETATM   13  C   UNK N   1      35.588  12.685  13.704  0.00  0.00     0.012 A 
HETATM   14  C   UNK N   1      35.785  13.287  14.957  0.00  0.00     0.031 A 
HETATM   15  C   UNK N   1      35.023  12.884  16.066  0.00  0.00     0.048 A 
HETATM   16  C   UNK N   1      34.064  11.876  15.914  0.00  0.00     0.016 A 
HETATM   17  C   UNK N   1      33.867  11.272  14.671  0.00  0.00     0.002 A 
HETATM   18  C   UNK N   1      34.627  11.674  13.572  0.00  0.00     0.015 A 
BRANCH  15  19
HETATM   19  C   UNK N   1      35.223  13.515  17.414  0.00  0.00     0.417 C 
HETATM   20  F   UNK N   1      36.292  14.391  17.357  0.00  0.00    -0.166 F 
HETATM   21  F   UNK N   1      35.478  12.562  18.384  0.00  0.00    -0.166 F 
HETATM   22  F   UNK N   1      34.084  14.216  17.767  0.00  0.00    -0.166 F 
ENDBRANCH  15  19
ENDBRANCH   9  13
BRANCH   5  23
HETATM   23  N   UNK N   1      33.487  15.845   9.840  0.00  0.00    -0.371 N 
HETATM   24  H   UNK N   1      33.191  16.587  10.414  0.00  0.00     0.161 HD
BRANCH  23  25
HETATM   25  C   UNK N   1      32.673  15.459   8.715  0.00  0.00     0.083 C 
HETATM   26  C   UNK N   1      33.462  15.629   7.410  0.00  0.00     0.025 C 
HETATM   27  C   UNK N   1      33.557  17.085   6.913  0.00  0.00     0.002 C 
HETATM   28  C   UNK N   1      33.216  18.103   8.000  0.00  0.00     0.000 C 
HETATM   29  C   UNK N   1      31.807  17.861   8.558  0.00  0.00     0.002 C 
HETATM   30  C   UNK N   1      31.439  16.367   8.682  0.00  0.00     0.025 C 
ENDBRANCH  23  25
ENDBRANCH   5  23
TORSDOF 4
ENDMDL
MODEL 5
REMARK VINA RESULT:      -7.2     11.625     13.898
REMARK  4 active torsions:
REMARK  status: ('A' for Active; 'I' for Inactive)
REMARK    1  A    between atoms: C_1  and  C_11 
REMARK    2  A    between atoms: N_22  and  C_9 
REMARK    3  A    between atoms: C_10  and  N_22 
REMARK    4  A    between atoms: C_21  and  C_20 
ROOT
HETATM    1  N   UNK N   1      31.426  16.505   9.290  0.00  0.00    -0.282 N 
ATOM      2  HN  UNK N   1      31.681  16.331  10.263  1.00  0.00     0.188 HD
HETATM    3  C   UNK N   1      30.338  17.160   8.850  0.00  0.00     0.143 A 
HETATM    4  C   UNK N   1      29.354  17.774   9.607  0.00  0.00     0.056 A 
HETATM    5  C   UNK N   1      28.333  18.422   7.494  0.00  0.00     0.116 A 
HETATM    6  C   UNK N   1      28.336  18.433   8.903  0.00  0.00     0.053 A 
HETATM    7  N   UNK N   1      32.108  16.128   8.209  0.00  0.00    -0.282 N 
ATOM      8  HN  UNK N   1      32.987  15.610   8.199  1.00  0.00     0.188 HD
HETATM    9  C   UNK N   1      31.418  16.558   7.124  0.00  0.00     0.154 A 
HETATM   10  N   UNK N   1      29.338  17.789   6.817  0.00  0.00    -0.276 N 
ATOM     11  HN  UNK N   1      29.347  17.769   5.797  1.00  0.00     0.189 HD
HETATM   12  N   UNK N   1      30.304  17.196   7.518  0.00  0.00    -0.219 N 
ENDROOT
BRANCH   9  13
HETATM   13  C   UNK N   1      31.867  16.385   5.729  0.00  0.00     0.012 A 
HETATM   14  C   UNK N   1      31.629  15.177   5.054  0.00  0.00     0.031 A 
HETATM   15  C   UNK N   1      32.080  15.000   3.735  0.00  0.00     0.048 A 
HETATM   16  C   UNK N   1      32.770  16.038   3.097  0.00  0.00     0.016 A 
HETATM   17  C   UNK N   1      33.010  17.239   3.765  0.00  0.00     0.002 A 
HETATM   18  C   UNK N   1      32.562  17.411   5.076  0.00  0.00     0.015 A 
BRANCH  15  19
HETATM   19  C   UNK N   1      31.838  13.713   2.999  0.00  0.00     0.417 C 
HETATM   20  F   UNK N   1      32.759  13.590   1.975  0.00  0.00    -0.166 F 
HETATM   21  F   UNK N   1      30.563  13.674   2.461  0.00  0.00    -0.166 F 
HETATM   22  F   UNK N   1      31.986  12.649   3.870  0.00  0.00    -0.166 F 
ENDBRANCH  15  19
ENDBRANCH   9  13
BRANCH   5  23
HETATM   23  N   UNK N   1      27.291  19.076   6.806  0.00  0.00    -0.371 N 
HETATM   24  H   UNK N   1      26.378  18.712   6.859  0.00  0.00     0.161 HD
BRANCH  23  25
HETATM   25  C   UNK N   1      27.531  20.261   6.024  0.00  0.00     0.083 C 
HETATM   26  C   UNK N   1      26.202  20.959   5.703  0.00  0.00     0.025 C 
HETATM   27  C   UNK N   1      25.401  20.301   4.562  0.00  0.00     0.002 C 
HETATM   28  C   UNK N   1      25.868  18.879   4.258  0.00  0.00     0.000 C 
HETATM   29  C   UNK N   1      27.359  18.855   3.894  0.00  0.00     0.002 C 
HETATM   30  C   UNK N   1      28.212  19.844   4.715  0.00  0.00     0.025 C 
ENDBRANCH  23  25
ENDBRANCH   5  23
TORSDOF 4
ENDMDL
MODEL 6
REMARK VINA RESULT:      -7.2     12.962     14.964
REMARK  4 active torsions:
REMARK  status: ('A' for Active; 'I' for Inactive)
REMARK    1  A    between atoms: C_1  and  C_11 
REMARK    2  A    between atoms: N_22  and  C_9 
REMARK    3  A    between atoms: C_10  and  N_22 
REMARK    4  A    between atoms: C_21  and  C_20 
ROOT
HETATM    1  N   UNK N   1      20.222  16.970   4.271  0.00  0.00    -0.282 N 
ATOM      2  HN  UNK N   1      19.502  17.176   3.579  1.00  0.00     0.188 HD
HETATM    3  C   UNK N   1      21.432  17.550   4.369  0.00  0.00     0.143 A 
HETATM    4  C   UNK N   1      21.947  18.572   3.588  0.00  0.00     0.056 A 
HETATM    5  C   UNK N   1      23.936  18.442   4.985  0.00  0.00     0.116 A 
HETATM    6  C   UNK N   1      23.228  19.034   3.921  0.00  0.00     0.053 A 
HETATM    7  N   UNK N   1      20.148  16.075   5.256  0.00  0.00    -0.282 N 
ATOM      8  HN  UNK N   1      19.355  15.466   5.460  1.00  0.00     0.188 HD
HETATM    9  C   UNK N   1      21.319  16.123   5.936  0.00  0.00     0.154 A 
HETATM   10  N   UNK N   1      23.361  17.433   5.707  0.00  0.00    -0.276 N 
ATOM     11  HN  UNK N   1      23.862  16.992   6.478  1.00  0.00     0.189 HD
HETATM   12  N   UNK N   1      22.131  17.037   5.380  0.00  0.00    -0.219 N 
ENDROOT
BRANCH   9  13
HETATM   13  C   UNK N   1      21.618  15.319   7.137  0.00  0.00     0.012 A 
HETATM   14  C   UNK N   1      22.723  14.453   7.152  0.00  0.00     0.031 A 
HETATM   15  C   UNK N   1      22.994  13.666   8.283  0.00  0.00     0.048 A 
HETATM   16  C   UNK N   1      22.153  13.750   9.399  0.00  0.00     0.016 A 
HETATM   17  C   UNK N   1      21.052  14.609   9.389  0.00  0.00     0.002 A 
HETATM   18  C   UNK N   1      20.785  15.388   8.262  0.00  0.00     0.015 A 
BRANCH  15  19
HETATM   19  C   UNK N   1      24.169  12.732   8.315  0.00  0.00     0.417 C 
HETATM   20  F   UNK N   1      25.150  13.256   9.136  0.00  0.00    -0.166 F 
HETATM   21  F   UNK N   1      24.698  12.545   7.050  0.00  0.00    -0.166 F 
HETATM   22  F   UNK N   1      23.770  11.506   8.816  0.00  0.00    -0.166 F 
ENDBRANCH  15  19
ENDBRANCH   9  13
BRANCH   5  23
HETATM   23  N   UNK N   1      25.229  18.910   5.294  0.00  0.00    -0.371 N 
HETATM   24  H   UNK N   1      25.811  18.367   5.871  0.00  0.00     0.161 HD
BRANCH  23  25
HETATM   25  C   UNK N   1      25.718  20.166   4.786  0.00  0.00     0.083 C 
HETATM   26  C   UNK N   1      26.858  19.925   3.787  0.00  0.00     0.025 C 
HETATM   27  C   UNK N   1      28.214  19.597   4.442  0.00  0.00     0.002 C 
HETATM   28  C   UNK N   1      28.077  19.177   5.904  0.00  0.00     0.000 C 
HETATM   29  C   UNK N   1      27.380  20.268   6.728  0.00  0.00     0.002 C 
HETATM   30  C   UNK N   1      26.247  20.988   5.968  0.00  0.00     0.025 C 
ENDBRANCH  23  25
ENDBRANCH   5  23
TORSDOF 4
ENDMDL
MODEL 7
REMARK VINA RESULT:      -7.1     11.867     14.451
REMARK  4 active torsions:
REMARK  status: ('A' for Active; 'I' for Inactive)
REMARK    1  A    between atoms: C_1  and  C_11 
REMARK    2  A    between atoms: N_22  and  C_9 
REMARK    3  A    between atoms: C_10  and  N_22 
REMARK    4  A    between atoms: C_21  and  C_20 
ROOT
HETATM    1  N   UNK N   1      24.588  20.123   3.114  0.00  0.00    -0.282 N 
ATOM      2  HN  UNK N   1      24.573  20.746   2.307  1.00  0.00     0.188 HD
HETATM    3  C   UNK N   1      25.618  19.922   3.955  0.00  0.00     0.143 A 
HETATM    4  C   UNK N   1      26.857  20.540   3.940  0.00  0.00     0.056 A 
HETATM    5  C   UNK N   1      27.380  19.218   5.916  0.00  0.00     0.116 A 
HETATM    6  C   UNK N   1      27.751  20.184   4.960  0.00  0.00     0.053 A 
HETATM    7  N   UNK N   1      23.591  19.348   3.540  0.00  0.00    -0.282 N 
ATOM      8  HN  UNK N   1      22.664  19.270   3.120  1.00  0.00     0.188 HD
HETATM    9  C   UNK N   1      24.033  18.684   4.636  0.00  0.00     0.154 A 
HETATM   10  N   UNK N   1      26.138  18.649   5.862  0.00  0.00    -0.276 N 
ATOM     11  HN  UNK N   1      25.857  17.946   6.545  1.00  0.00     0.189 HD
HETATM   12  N   UNK N   1      25.304  19.031   4.894  0.00  0.00    -0.219 N 
ENDROOT
BRANCH   9  13
HETATM   13  C   UNK N   1      23.209  17.760   5.439  0.00  0.00     0.012 A 
HETATM   14  C   UNK N   1      23.655  16.453   5.694  0.00  0.00     0.031 A 
HETATM   15  C   UNK N   1      22.859  15.563   6.435  0.00  0.00     0.048 A 
HETATM   16  C   UNK N   1      21.616  15.989   6.919  0.00  0.00     0.016 A 
HETATM   17  C   UNK N   1      21.168  17.286   6.666  0.00  0.00     0.002 A 
HETATM   18  C   UNK N   1      21.960  18.167   5.928  0.00  0.00     0.015 A 
BRANCH  15  19
HETATM   19  C   UNK N   1      23.319  14.161   6.714  0.00  0.00     0.417 C 
HETATM   20  F   UNK N   1      24.688  14.083   6.534  0.00  0.00    -0.166 F 
HETATM   21  F   UNK N   1      22.705  13.252   5.869  0.00  0.00    -0.166 F 
HETATM   22  F   UNK N   1      23.016  13.829   8.021  0.00  0.00    -0.166 F 
ENDBRANCH  15  19
ENDBRANCH   9  13
BRANCH   5  23
HETATM   23  N   UNK N   1      28.300  18.863   6.924  0.00  0.00    -0.371 N 
HETATM   24  H   UNK N   1      29.008  19.499   7.173  0.00  0.00     0.161 HD
BRANCH  23  25
HETATM   25  C   UNK N   1      28.230  17.591   7.595  0.00  0.00     0.083 C 
HETATM   26  C   UNK N   1      28.059  17.800   9.106  0.00  0.00     0.025 C 
HETATM   27  C   UNK N   1      29.358  18.180   9.843  0.00  0.00     0.002 C 
HETATM   28  C   UNK N   1      30.452  18.671   8.896  0.00  0.00     0.000 C 
HETATM   29  C   UNK N   1      30.777  17.612   7.834  0.00  0.00     0.002 C 
HETATM   30  C   UNK N   1      29.539  16.837   7.334  0.00  0.00     0.025 C 
ENDBRANCH  23  25
ENDBRANCH   5  23
TORSDOF 4
ENDMDL
MODEL 8
REMARK VINA RESULT:      -7.1     12.931     15.152
REMARK  4 active torsions:
REMARK  status: ('A' for Active; 'I' for Inactive)
REMARK    1  A    between atoms: C_1  and  C_11 
REMARK    2  A    between atoms: N_22  and  C_9 
REMARK    3  A    between atoms: C_10  and  N_22 
REMARK    4  A    between atoms: C_21  and  C_20 
ROOT
HETATM    1  N   UNK N   1      21.533  19.256   3.405  0.00  0.00    -0.282 N 
ATOM      2  HN  UNK N   1      21.186  19.834   2.639  1.00  0.00     0.188 HD
HETATM    3  C   UNK N   1      22.808  19.151   3.818  0.00  0.00     0.143 A 
HETATM    4  C   UNK N   1      23.915  19.828   3.332  0.00  0.00     0.056 A 
HETATM    5  C   UNK N   1      25.203  18.642   5.023  0.00  0.00     0.116 A 
HETATM    6  C   UNK N   1      25.139  19.571   3.967  0.00  0.00     0.053 A 
HETATM    7  N   UNK N   1      20.811  18.458   4.190  0.00  0.00    -0.282 N 
ATOM      8  HN  UNK N   1      19.802  18.312   4.139  1.00  0.00     0.188 HD
HETATM    9  C   UNK N   1      21.662  17.876   5.070  0.00  0.00     0.154 A 
HETATM   10  N   UNK N   1      24.066  18.010   5.444  0.00  0.00    -0.276 N 
ATOM     11  HN  UNK N   1      24.098  17.332   6.205  1.00  0.00     0.189 HD
HETATM   12  N   UNK N   1      22.915  18.298   4.836  0.00  0.00    -0.219 N 
ENDROOT
BRANCH   9  13
HETATM   13  C   UNK N   1      21.247  16.958   6.148  0.00  0.00     0.012 A 
HETATM   14  C   UNK N   1      20.173  17.293   6.989  0.00  0.00     0.031 A 
HETATM   15  C   UNK N   1      19.794  16.434   8.034  0.00  0.00     0.048 A 
HETATM   16  C   UNK N   1      20.495  15.239   8.232  0.00  0.00     0.016 A 
HETATM   17  C   UNK N   1      21.564  14.902   7.400  0.00  0.00     0.002 A 
HETATM   18  C   UNK N   1      21.939  15.759   6.364  0.00  0.00     0.015 A 
BRANCH  15  19
HETATM   19  C   UNK N   1      18.651  16.778   8.944  0.00  0.00     0.417 C 
HETATM   20  F   UNK N   1      17.507  16.972   8.191  0.00  0.00    -0.166 F 
HETATM   21  F   UNK N   1      18.911  17.930   9.666  0.00  0.00    -0.166 F 
HETATM   22  F   UNK N   1      18.437  15.737   9.829  0.00  0.00    -0.166 F 
ENDBRANCH  15  19
ENDBRANCH   9  13
BRANCH   5  23
HETATM   23  N   UNK N   1      26.446  18.386   5.637  0.00  0.00    -0.371 N 
HETATM   24  H   UNK N   1      26.536  17.608   6.232  0.00  0.00     0.161 HD
BRANCH  23  25
HETATM   25  C   UNK N   1      27.587  19.237   5.416  0.00  0.00     0.083 C 
HETATM   26  C   UNK N   1      28.787  18.402   4.949  0.00  0.00     0.025 C 
HETATM   27  C   UNK N   1      29.505  17.639   6.078  0.00  0.00     0.002 C 
HETATM   28  C   UNK N   1      28.660  17.529   7.346  0.00  0.00     0.000 C 
HETATM   29  C   UNK N   1      28.260  18.918   7.863  0.00  0.00     0.002 C 
HETATM   30  C   UNK N   1      27.935  19.926   6.741  0.00  0.00     0.025 C 
ENDBRANCH  23  25
ENDBRANCH   5  23
TORSDOF 4
ENDMDL
MODEL 9
REMARK VINA RESULT:      -7.1      2.822      4.311
REMARK  4 active torsions:
REMARK  status: ('A' for Active; 'I' for Inactive)
REMARK    1  A    between atoms: C_1  and  C_11 
REMARK    2  A    between atoms: N_22  and  C_9 
REMARK    3  A    between atoms: C_10  and  N_22 
REMARK    4  A    between atoms: C_21  and  C_20 
ROOT
HETATM    1  N   UNK N   1      27.894  21.239  -9.291  0.00  0.00    -0.282 N 
ATOM      2  HN  UNK N   1      27.753  20.837 -10.218  1.00  0.00     0.188 HD
HETATM    3  C   UNK N   1      27.169  22.219  -8.722  0.00  0.00     0.143 A 
HETATM    4  C   UNK N   1      26.058  22.863  -9.242  0.00  0.00     0.056 A 
HETATM    5  C   UNK N   1      25.993  24.122  -7.160  0.00  0.00     0.116 A 
HETATM    6  C   UNK N   1      25.451  23.828  -8.426  0.00  0.00     0.053 A 
HETATM    7  N   UNK N   1      28.832  20.897  -8.409  0.00  0.00    -0.282 N 
ATOM      8  HN  UNK N   1      29.545  20.177  -8.534  1.00  0.00     0.188 HD
HETATM    9  C   UNK N   1      28.664  21.679  -7.315  0.00  0.00     0.154 A 
HETATM   10  N   UNK N   1      27.097  23.446  -6.718  0.00  0.00    -0.276 N 
ATOM     11  HN  UNK N   1      27.502  23.650  -5.805  1.00  0.00     0.189 HD
HETATM   12  N   UNK N   1      27.632  22.515  -7.508  0.00  0.00    -0.219 N 
ENDROOT
BRANCH   9  13
HETATM   13  C   UNK N   1      29.474  21.576  -6.085  0.00  0.00     0.012 A 
HETATM   14  C   UNK N   1      29.313  22.513  -5.052  0.00  0.00     0.031 A 
HETATM   15  C   UNK N   1      30.102  22.434  -3.892  0.00  0.00     0.048 A 
HETATM   16  C   UNK N   1      31.052  21.412  -3.773  0.00  0.00     0.016 A 
HETATM   17  C   UNK N   1      31.217  20.479  -4.799  0.00  0.00     0.002 A 
HETATM   18  C   UNK N   1      30.432  20.563  -5.950  0.00  0.00     0.015 A 
BRANCH  15  19
HETATM   19  C   UNK N   1      29.946  23.429  -2.779  0.00  0.00     0.417 C 
HETATM   20  F   UNK N   1      28.648  23.905  -2.767  0.00  0.00    -0.166 F 
HETATM   21  F   UNK N   1      30.813  24.497  -2.933  0.00  0.00    -0.166 F 
HETATM   22  F   UNK N   1      30.211  22.813  -1.569  0.00  0.00    -0.166 F 
ENDBRANCH  15  19
ENDBRANCH   9  13
BRANCH   5  23
HETATM   23  N   UNK N   1      25.377  25.108  -6.363  0.00  0.00    -0.371 N 
HETATM   24  H   UNK N   1      24.907  24.836  -5.542  0.00  0.00     0.161 HD
BRANCH  23  25
HETATM   25  C   UNK N   1      25.417  26.502  -6.720  0.00  0.00     0.083 C 
HETATM   26  C   UNK N   1      26.868  26.946  -6.955  0.00  0.00     0.025 C 
HETATM   27  C   UNK N   1      27.669  27.197  -5.663  0.00  0.00     0.002 C 
HETATM   28  C   UNK N   1      27.015  26.573  -4.432  0.00  0.00     0.000 C 
HETATM   29  C   UNK N   1      25.587  27.102  -4.240  0.00  0.00     0.002 C 
HETATM   30  C   UNK N   1      24.822  27.312  -5.563  0.00  0.00     0.025 C 
ENDBRANCH  23  25
ENDBRANCH   5  23
TORSDOF 4
ENDMDL
