MODEL 1
REMARK VINA RESULT:      -7.7      0.000      0.000
REMARK  4 active torsions:
REMARK  status: ('A' for Active; 'I' for Inactive)
REMARK    1  A    between atoms: C_16  and  C_2 
REMARK    2  A    between atoms: C_4  and  O_5 
REMARK    3  A    between atoms: C_6  and  C_4 
REMARK    4  A    between atoms: C_10  and  C_9 
ROOT
HETATM    1  C   UNK N   1      28.091  24.362  -5.739  0.00  0.00     0.014 A 
HETATM    2  C   UNK N   1      30.279  22.263  -3.858  0.00  0.00     0.065 A 
HETATM    3  C   UNK N   1      29.444  23.276  -4.345  0.00  0.00     0.061 A 
HETATM    4  N   UNK N   1      29.132  24.424  -3.723  0.00  0.00    -0.353 N 
HETATM    5  C   UNK N   1      28.296  25.102  -4.544  0.00  0.00     0.055 A 
HETATM    6  C   UNK N   1      28.827  23.195  -5.564  0.00  0.00     0.005 A 
HETATM    7  C   UNK N   1      29.016  22.088  -6.395  0.00  0.00     0.014 A 
HETATM    8  C   UNK N   1      29.843  21.046  -5.938  0.00  0.00     0.002 A 
HETATM    9  C   UNK N   1      30.469  21.131  -4.677  0.00  0.00     0.021 A 
HETATM   10  H   UNK N   1      29.450  24.717  -2.839  0.00  0.00     0.166 HD
ENDROOT
BRANCH   1  11
HETATM   11  C   UNK N   1      27.317  24.699  -6.976  0.00  0.00    -0.023 A 
HETATM   12  C   UNK N   1      26.225  23.924  -7.385  0.00  0.00     0.012 A 
HETATM   13  C   UNK N   1      25.474  24.265  -8.512  0.00  0.00     0.001 A 
HETATM   14  C   UNK N   1      25.805  25.402  -9.248  0.00  0.00     0.000 A 
HETATM   15  C   UNK N   1      26.881  26.198  -8.849  0.00  0.00     0.001 A 
HETATM   16  C   UNK N   1      27.625  25.854  -7.715  0.00  0.00     0.012 A 
ENDBRANCH   1  11
BRANCH   5  17
HETATM   17  C   UNK N   1      27.718  26.395  -4.087  0.00  0.00    -0.009 A 
HETATM   18  C   UNK N   1      26.323  26.497  -3.956  0.00  0.00     0.014 A 
HETATM   19  C   UNK N   1      25.727  27.699  -3.566  0.00  0.00     0.001 A 
HETATM   20  C   UNK N   1      26.519  28.822  -3.320  0.00  0.00     0.000 A 
HETATM   21  C   UNK N   1      27.904  28.742  -3.470  0.00  0.00     0.001 A 
HETATM   22  C   UNK N   1      28.494  27.536  -3.856  0.00  0.00     0.014 A 
ENDBRANCH   5  17
BRANCH   2  23
HETATM   23  C   UNK N   1      30.947  22.360  -2.538  0.00  0.00     0.178 C 
HETATM   24  O   UNK N   1      30.498  23.100  -1.676  0.00  0.00    -0.646 OA
BRANCH  23  25
HETATM   25  O   UNK N   1      32.048  21.630  -2.271  0.00  0.00    -0.773 OA
HETATM   26  H   UNK N   1      32.711  21.522  -2.924  0.00  0.00     0.167 HD
ENDBRANCH  23  25
ENDBRANCH   2  23
TORSDOF 4
ENDMDL
MODEL 2
REMARK VINA RESULT:      -7.5     20.239     24.478
REMARK  4 active torsions:
REMARK  status: ('A' for Active; 'I' for Inactive)
REMARK    1  A    between atoms: C_16  and  C_2 
REMARK    2  A    between atoms: C_4  and  O_5 
REMARK    3  A    between atoms: C_6  and  C_4 
REMARK    4  A    between atoms: C_10  and  C_9 
ROOT
HETATM    1  C   UNK N   1      37.096  11.903  13.712  0.00  0.00     0.014 A 
HETATM    2  C   UNK N   1      36.946  13.649  10.605  0.00  0.00     0.065 A 
HETATM    3  C   UNK N   1      36.926  13.245  11.945  0.00  0.00     0.061 A 
HETATM    4  N   UNK N   1      36.630  14.009  13.006  0.00  0.00    -0.353 N 
HETATM    5  C   UNK N   1      36.738  13.221  14.102  0.00  0.00     0.055 A 
HETATM    6  C   UNK N   1      37.223  11.965  12.328  0.00  0.00     0.005 A 
HETATM    7  C   UNK N   1      37.552  10.988  11.386  0.00  0.00     0.014 A 
HETATM    8  C   UNK N   1      37.589  11.357  10.029  0.00  0.00     0.002 A 
HETATM    9  C   UNK N   1      37.291  12.680   9.640  0.00  0.00     0.021 A 
HETATM   10  H   UNK N   1      36.380  14.962  12.993  0.00  0.00     0.166 HD
ENDROOT
BRANCH   1  11
HETATM   11  C   UNK N   1      37.273  10.657  14.525  0.00  0.00    -0.023 A 
HETATM   12  C   UNK N   1      38.531  10.066  14.686  0.00  0.00     0.012 A 
HETATM   13  C   UNK N   1      38.703   8.932  15.483  0.00  0.00     0.001 A 
HETATM   14  C   UNK N   1      37.608   8.373  16.140  0.00  0.00     0.000 A 
HETATM   15  C   UNK N   1      36.346   8.955  16.005  0.00  0.00     0.001 A 
HETATM   16  C   UNK N   1      36.182  10.096  15.211  0.00  0.00     0.012 A 
ENDBRANCH   1  11
BRANCH   5  17
HETATM   17  C   UNK N   1      36.537  13.818  15.451  0.00  0.00    -0.009 A 
HETATM   18  C   UNK N   1      35.570  13.250  16.298  0.00  0.00     0.014 A 
HETATM   19  C   UNK N   1      35.315  13.795  17.559  0.00  0.00     0.001 A 
HETATM   20  C   UNK N   1      36.012  14.928  17.982  0.00  0.00     0.000 A 
HETATM   21  C   UNK N   1      36.958  15.516  17.141  0.00  0.00     0.001 A 
HETATM   22  C   UNK N   1      37.211  14.965  15.883  0.00  0.00     0.014 A 
ENDBRANCH   5  17
BRANCH   2  23
HETATM   23  C   UNK N   1      36.619  15.037  10.196  0.00  0.00     0.178 C 
HETATM   24  O   UNK N   1      35.881  15.239   9.245  0.00  0.00    -0.646 OA
BRANCH  23  25
HETATM   25  O   UNK N   1      37.124  16.088  10.873  0.00  0.00    -0.773 OA
HETATM   26  H   UNK N   1      36.556  16.766  11.182  0.00  0.00     0.167 HD
ENDBRANCH  23  25
ENDBRANCH   2  23
TORSDOF 4
ENDMDL
MODEL 3
REMARK VINA RESULT:      -7.4      2.397      5.430
REMARK  4 active torsions:
REMARK  status: ('A' for Active; 'I' for Inactive)
REMARK    1  A    between atoms: C_16  and  C_2 
REMARK    2  A    between atoms: C_4  and  O_5 
REMARK    3  A    between atoms: C_6  and  C_4 
REMARK    4  A    between atoms: C_10  and  C_9 
ROOT
HETATM    1  C   UNK N   1      27.029  24.051  -5.738  0.00  0.00     0.014 A 
HETATM    2  C   UNK N   1      26.799  27.321  -4.332  0.00  0.00     0.065 A 
HETATM    3  C   UNK N   1      27.133  26.008  -4.685  0.00  0.00     0.061 A 
HETATM    4  N   UNK N   1      28.122  25.267  -4.163  0.00  0.00    -0.353 N 
HETATM    5  C   UNK N   1      28.092  24.070  -4.796  0.00  0.00     0.055 A 
HETATM    6  C   UNK N   1      26.453  25.314  -5.648  0.00  0.00     0.005 A 
HETATM    7  C   UNK N   1      25.372  25.886  -6.322  0.00  0.00     0.014 A 
HETATM    8  C   UNK N   1      25.010  27.206  -6.000  0.00  0.00     0.002 A 
HETATM    9  C   UNK N   1      25.720  27.922  -5.013  0.00  0.00     0.021 A 
HETATM   10  H   UNK N   1      28.749  25.539  -3.455  0.00  0.00     0.166 HD
ENDROOT
BRANCH   1  11
HETATM   11  C   UNK N   1      26.536  22.955  -6.633  0.00  0.00    -0.023 A 
HETATM   12  C   UNK N   1      25.279  22.368  -6.441  0.00  0.00     0.012 A 
HETATM   13  C   UNK N   1      24.801  21.380  -7.304  0.00  0.00     0.001 A 
HETATM   14  C   UNK N   1      25.579  20.967  -8.385  0.00  0.00     0.000 A 
HETATM   15  C   UNK N   1      26.828  21.550  -8.604  0.00  0.00     0.001 A 
HETATM   16  C   UNK N   1      27.299  22.545  -7.740  0.00  0.00     0.012 A 
ENDBRANCH   1  11
BRANCH   5  17
HETATM   17  C   UNK N   1      29.130  23.052  -4.476  0.00  0.00    -0.009 A 
HETATM   18  C   UNK N   1      29.653  23.015  -3.173  0.00  0.00     0.014 A 
HETATM   19  C   UNK N   1      30.655  22.103  -2.830  0.00  0.00     0.001 A 
HETATM   20  C   UNK N   1      31.162  21.229  -3.793  0.00  0.00     0.000 A 
HETATM   21  C   UNK N   1      30.668  21.273  -5.098  0.00  0.00     0.001 A 
HETATM   22  C   UNK N   1      29.663  22.183  -5.434  0.00  0.00     0.014 A 
ENDBRANCH   5  17
BRANCH   2  23
HETATM   23  C   UNK N   1      27.538  28.067  -3.284  0.00  0.00     0.178 C 
HETATM   24  O   UNK N   1      26.934  28.593  -2.363  0.00  0.00    -0.646 OA
BRANCH  23  25
HETATM   25  O   UNK N   1      28.882  28.165  -3.332  0.00  0.00    -0.773 OA
HETATM   26  H   UNK N   1      29.415  27.412  -3.167  0.00  0.00     0.167 HD
ENDBRANCH  23  25
ENDBRANCH   2  23
TORSDOF 4
ENDMDL
MODEL 4
REMARK VINA RESULT:      -7.3     13.156     16.073
REMARK  4 active torsions:
REMARK  status: ('A' for Active; 'I' for Inactive)
REMARK    1  A    between atoms: C_16  and  C_2 
REMARK    2  A    between atoms: C_4  and  O_5 
REMARK    3  A    between atoms: C_6  and  C_4 
REMARK    4  A    between atoms: C_10  and  C_9 
ROOT
HETATM    1  C   UNK N   1      32.970  16.085   7.022  0.00  0.00     0.014 A 
HETATM    2  C   UNK N   1      34.965  14.951   9.754  0.00  0.00     0.065 A 
HETATM    3  C   UNK N   1      33.994  15.505   8.911  0.00  0.00     0.061 A 
HETATM    4  N   UNK N   1      32.887  16.162   9.289  0.00  0.00    -0.353 N 
HETATM    5  C   UNK N   1      32.234  16.517   8.157  0.00  0.00     0.055 A 
HETATM    6  C   UNK N   1      34.078  15.428   7.547  0.00  0.00     0.005 A 
HETATM    7  C   UNK N   1      35.157  14.795   6.926  0.00  0.00     0.014 A 
HETATM    8  C   UNK N   1      36.150  14.220   7.739  0.00  0.00     0.002 A 
HETATM    9  C   UNK N   1      36.054  14.294   9.145  0.00  0.00     0.021 A 
HETATM   10  H   UNK N   1      32.603  16.351  10.213  0.00  0.00     0.166 HD
ENDROOT
BRANCH   1  11
HETATM   11  C   UNK N   1      32.717  16.284   5.560  0.00  0.00    -0.023 A 
HETATM   12  C   UNK N   1      32.221  15.248   4.759  0.00  0.00     0.012 A 
HETATM   13  C   UNK N   1      31.940  15.448   3.406  0.00  0.00     0.001 A 
HETATM   14  C   UNK N   1      32.147  16.702   2.832  0.00  0.00     0.000 A 
HETATM   15  C   UNK N   1      32.626  17.754   3.616  0.00  0.00     0.001 A 
HETATM   16  C   UNK N   1      32.899  17.548   4.972  0.00  0.00     0.012 A 
ENDBRANCH   1  11
BRANCH   5  17
HETATM   17  C   UNK N   1      30.918  17.204   8.262  0.00  0.00    -0.009 A 
HETATM   18  C   UNK N   1      30.708  18.092   9.331  0.00  0.00     0.014 A 
HETATM   19  C   UNK N   1      29.478  18.734   9.497  0.00  0.00     0.001 A 
HETATM   20  C   UNK N   1      28.434  18.482   8.605  0.00  0.00     0.000 A 
HETATM   21  C   UNK N   1      28.621  17.584   7.554  0.00  0.00     0.001 A 
HETATM   22  C   UNK N   1      29.854  16.948   7.390  0.00  0.00     0.014 A 
ENDBRANCH   5  17
BRANCH   2  23
HETATM   23  C   UNK N   1      34.869  15.042  11.231  0.00  0.00     0.178 C 
HETATM   24  O   UNK N   1      35.578  15.823  11.845  0.00  0.00    -0.646 OA
BRANCH  23  25
HETATM   25  O   UNK N   1      33.995  14.272  11.910  0.00  0.00    -0.773 OA
HETATM   26  H   UNK N   1      33.148  14.605  12.133  0.00  0.00     0.167 HD
ENDBRANCH  23  25
ENDBRANCH   2  23
TORSDOF 4
ENDMDL
MODEL 5
REMARK VINA RESULT:      -7.2     11.354     13.750
REMARK  4 active torsions:
REMARK  status: ('A' for Active; 'I' for Inactive)
REMARK    1  A    between atoms: C_16  and  C_2 
REMARK    2  A    between atoms: C_4  and  O_5 
REMARK    3  A    between atoms: C_6  and  C_4 
REMARK    4  A    between atoms: C_10  and  C_9 
ROOT
HETATM    1  C   UNK N   1      23.227  17.355   4.402  0.00  0.00     0.014 A 
HETATM    2  C   UNK N   1      21.023  19.604   2.726  0.00  0.00     0.065 A 
HETATM    3  C   UNK N   1      22.099  18.953   3.341  0.00  0.00     0.061 A 
HETATM    4  N   UNK N   1      23.338  19.438   3.505  0.00  0.00    -0.353 N 
HETATM    5  C   UNK N   1      24.055  18.479   4.139  0.00  0.00     0.055 A 
HETATM    6  C   UNK N   1      21.991  17.692   3.861  0.00  0.00     0.005 A 
HETATM    7  C   UNK N   1      20.783  16.993   3.813  0.00  0.00     0.014 A 
HETATM    8  C   UNK N   1      19.680  17.611   3.197  0.00  0.00     0.002 A 
HETATM    9  C   UNK N   1      19.798  18.907   2.653  0.00  0.00     0.021 A 
HETATM   10  H   UNK N   1      23.666  20.321   3.221  0.00  0.00     0.166 HD
ENDROOT
BRANCH   1  11
HETATM   11  C   UNK N   1      23.516  16.078   5.129  0.00  0.00    -0.023 A 
HETATM   12  C   UNK N   1      23.004  15.837   6.410  0.00  0.00     0.012 A 
HETATM   13  C   UNK N   1      23.235  14.627   7.067  0.00  0.00     0.001 A 
HETATM   14  C   UNK N   1      23.981  13.629   6.442  0.00  0.00     0.000 A 
HETATM   15  C   UNK N   1      24.488  13.842   5.159  0.00  0.00     0.001 A 
HETATM   16  C   UNK N   1      24.247  15.054   4.503  0.00  0.00     0.012 A 
ENDBRANCH   1  11
BRANCH   5  17
HETATM   17  C   UNK N   1      25.504  18.704   4.396  0.00  0.00    -0.009 A 
HETATM   18  C   UNK N   1      25.885  19.834   5.139  0.00  0.00     0.014 A 
HETATM   19  C   UNK N   1      27.234  20.112   5.377  0.00  0.00     0.001 A 
HETATM   20  C   UNK N   1      28.221  19.272   4.857  0.00  0.00     0.000 A 
HETATM   21  C   UNK N   1      27.857  18.160   4.097  0.00  0.00     0.001 A 
HETATM   22  C   UNK N   1      26.507  17.885   3.866  0.00  0.00     0.014 A 
ENDBRANCH   5  17
BRANCH   2  23
HETATM   23  C   UNK N   1      21.146  20.972   2.168  0.00  0.00     0.178 C 
HETATM   24  O   UNK N   1      20.576  21.265   1.129  0.00  0.00    -0.646 OA
BRANCH  23  25
HETATM   25  O   UNK N   1      21.880  21.909   2.803  0.00  0.00    -0.773 OA
HETATM   26  H   UNK N   1      21.457  22.578   3.304  0.00  0.00     0.167 HD
ENDBRANCH  23  25
ENDBRANCH   2  23
TORSDOF 4
ENDMDL
MODEL 6
REMARK VINA RESULT:      -7.2     11.335     13.195
REMARK  4 active torsions:
REMARK  status: ('A' for Active; 'I' for Inactive)
REMARK    1  A    between atoms: C_16  and  C_2 
REMARK    2  A    between atoms: C_4  and  O_5 
REMARK    3  A    between atoms: C_6  and  C_4 
REMARK    4  A    between atoms: C_10  and  C_9 
ROOT
HETATM    1  C   UNK N   1      28.569  17.432   4.504  0.00  0.00     0.014 A 
HETATM    2  C   UNK N   1      28.072  14.618   2.367  0.00  0.00     0.065 A 
HETATM    3  C   UNK N   1      28.559  15.604   3.234  0.00  0.00     0.061 A 
HETATM    4  N   UNK N   1      29.798  15.683   3.740  0.00  0.00    -0.353 N 
HETATM    5  C   UNK N   1      29.832  16.781   4.531  0.00  0.00     0.055 A 
HETATM    6  C   UNK N   1      27.780  16.638   3.678  0.00  0.00     0.005 A 
HETATM    7  C   UNK N   1      26.450  16.765   3.271  0.00  0.00     0.014 A 
HETATM    8  C   UNK N   1      25.923  15.791   2.404  0.00  0.00     0.002 A 
HETATM    9  C   UNK N   1      26.727  14.722   1.956  0.00  0.00     0.021 A 
HETATM   10  H   UNK N   1      30.543  15.061   3.570  0.00  0.00     0.166 HD
ENDROOT
BRANCH   1  11
HETATM   11  C   UNK N   1      28.112  18.705   5.145  0.00  0.00    -0.023 A 
HETATM   12  C   UNK N   1      27.699  19.801   4.377  0.00  0.00     0.012 A 
HETATM   13  C   UNK N   1      27.228  20.971   4.975  0.00  0.00     0.001 A 
HETATM   14  C   UNK N   1      27.157  21.059   6.365  0.00  0.00     0.000 A 
HETATM   15  C   UNK N   1      27.550  19.973   7.151  0.00  0.00     0.001 A 
HETATM   16  C   UNK N   1      28.013  18.801   6.544  0.00  0.00     0.012 A 
ENDBRANCH   1  11
BRANCH   5  17
HETATM   17  C   UNK N   1      31.071  17.091   5.295  0.00  0.00    -0.009 A 
HETATM   18  C   UNK N   1      32.255  17.338   4.580  0.00  0.00     0.014 A 
HETATM   19  C   UNK N   1      33.455  17.596   5.249  0.00  0.00     0.001 A 
HETATM   20  C   UNK N   1      33.489  17.592   6.645  0.00  0.00     0.000 A 
HETATM   21  C   UNK N   1      32.325  17.324   7.367  0.00  0.00     0.001 A 
HETATM   22  C   UNK N   1      31.128  17.071   6.692  0.00  0.00     0.014 A 
ENDBRANCH   5  17
BRANCH   2  23
HETATM   23  C   UNK N   1      28.923  13.503   1.887  0.00  0.00     0.178 C 
HETATM   24  O   UNK N   1      28.424  12.564   1.286  0.00  0.00    -0.646 OA
BRANCH  23  25
HETATM   25  O   UNK N   1      30.255  13.516   2.099  0.00  0.00    -0.773 OA
HETATM   26  H   UNK N   1      30.715  14.331   2.153  0.00  0.00     0.167 HD
ENDBRANCH  23  25
ENDBRANCH   2  23
TORSDOF 4
ENDMDL
MODEL 7
REMARK VINA RESULT:      -7.1     12.589     16.079
REMARK  4 active torsions:
REMARK  status: ('A' for Active; 'I' for Inactive)
REMARK    1  A    between atoms: C_16  and  C_2 
REMARK    2  A    between atoms: C_4  and  O_5 
REMARK    3  A    between atoms: C_6  and  C_4 
REMARK    4  A    between atoms: C_10  and  C_9 
ROOT
HETATM    1  C   UNK N   1      31.601  16.875   7.581  0.00  0.00     0.014 A 
HETATM    2  C   UNK N   1      28.426  18.397   7.005  0.00  0.00     0.065 A 
HETATM    3  C   UNK N   1      29.672  17.764   6.917  0.00  0.00     0.061 A 
HETATM    4  N   UNK N   1      30.281  17.350   5.796  0.00  0.00    -0.353 N 
HETATM    5  C   UNK N   1      31.456  16.790   6.170  0.00  0.00     0.055 A 
HETATM    6  C   UNK N   1      30.432  17.487   8.020  0.00  0.00     0.005 A 
HETATM    7  C   UNK N   1      30.000  17.840   9.301  0.00  0.00     0.014 A 
HETATM    8  C   UNK N   1      28.750  18.472   9.431  0.00  0.00     0.002 A 
HETATM    9  C   UNK N   1      27.966  18.747   8.291  0.00  0.00     0.021 A 
HETATM   10  H   UNK N   1      29.941  17.437   4.876  0.00  0.00     0.166 HD
ENDROOT
BRANCH   1  11
HETATM   11  C   UNK N   1      32.733  16.468   8.473  0.00  0.00    -0.023 A 
HETATM   12  C   UNK N   1      33.799  17.336   8.737  0.00  0.00     0.012 A 
HETATM   13  C   UNK N   1      34.830  16.974   9.606  0.00  0.00     0.001 A 
HETATM   14  C   UNK N   1      34.805  15.729  10.234  0.00  0.00     0.000 A 
HETATM   15  C   UNK N   1      33.743  14.854   9.995  0.00  0.00     0.001 A 
HETATM   16  C   UNK N   1      32.710  15.226   9.129  0.00  0.00     0.012 A 
ENDBRANCH   1  11
BRANCH   5  17
HETATM   17  C   UNK N   1      32.327  16.168   5.136  0.00  0.00    -0.009 A 
HETATM   18  C   UNK N   1      32.484  16.828   3.906  0.00  0.00     0.014 A 
HETATM   19  C   UNK N   1      33.261  16.270   2.887  0.00  0.00     0.001 A 
HETATM   20  C   UNK N   1      33.877  15.031   3.080  0.00  0.00     0.000 A 
HETATM   21  C   UNK N   1      33.709  14.353   4.288  0.00  0.00     0.001 A 
HETATM   22  C   UNK N   1      32.935  14.919   5.304  0.00  0.00     0.014 A 
ENDBRANCH   5  17
BRANCH   2  23
HETATM   23  C   UNK N   1      27.610  18.698   5.804  0.00  0.00     0.178 C 
HETATM   24  O   UNK N   1      28.108  19.276   4.851  0.00  0.00    -0.646 OA
BRANCH  23  25
HETATM   25  O   UNK N   1      26.314  18.329   5.746  0.00  0.00    -0.773 OA
HETATM   26  H   UNK N   1      26.084  17.424   5.676  0.00  0.00     0.167 HD
ENDBRANCH  23  25
ENDBRANCH   2  23
TORSDOF 4
ENDMDL
MODEL 8
REMARK VINA RESULT:      -7.1      1.930      2.714
REMARK  4 active torsions:
REMARK  status: ('A' for Active; 'I' for Inactive)
REMARK    1  A    between atoms: C_16  and  C_2 
REMARK    2  A    between atoms: C_4  and  O_5 
REMARK    3  A    between atoms: C_6  and  C_4 
REMARK    4  A    between atoms: C_10  and  C_9 
ROOT
HETATM    1  C   UNK N   1      28.293  22.532  -6.806  0.00  0.00     0.014 A 
HETATM    2  C   UNK N   1      30.637  22.030  -4.164  0.00  0.00     0.065 A 
HETATM    3  C   UNK N   1      29.643  22.487  -5.037  0.00  0.00     0.061 A 
HETATM    4  N   UNK N   1      28.916  23.606  -4.906  0.00  0.00    -0.353 N 
HETATM    5  C   UNK N   1      28.073  23.655  -5.964  0.00  0.00     0.055 A 
HETATM    6  C   UNK N   1      29.291  21.802  -6.169  0.00  0.00     0.005 A 
HETATM    7  C   UNK N   1      29.926  20.608  -6.516  0.00  0.00     0.014 A 
HETATM    8  C   UNK N   1      30.927  20.113  -5.661  0.00  0.00     0.002 A 
HETATM    9  C   UNK N   1      31.279  20.817  -4.490  0.00  0.00     0.021 A 
HETATM   10  H   UNK N   1      28.982  24.267  -4.180  0.00  0.00     0.166 HD
ENDROOT
BRANCH   1  11
HETATM   11  C   UNK N   1      27.676  22.159  -8.119  0.00  0.00    -0.023 A 
HETATM   12  C   UNK N   1      26.460  21.469  -8.182  0.00  0.00     0.012 A 
HETATM   13  C   UNK N   1      25.862  21.163  -9.406  0.00  0.00     0.001 A 
HETATM   14  C   UNK N   1      26.476  21.554 -10.596  0.00  0.00     0.000 A 
HETATM   15  C   UNK N   1      27.682  22.257 -10.556  0.00  0.00     0.001 A 
HETATM   16  C   UNK N   1      28.272  22.567  -9.326  0.00  0.00     0.012 A 
ENDBRANCH   1  11
BRANCH   5  17
HETATM   17  C   UNK N   1      27.080  24.761  -6.054  0.00  0.00    -0.009 A 
HETATM   18  C   UNK N   1      26.194  24.955  -4.981  0.00  0.00     0.014 A 
HETATM   19  C   UNK N   1      25.219  25.955  -5.030  0.00  0.00     0.001 A 
HETATM   20  C   UNK N   1      25.105  26.762  -6.163  0.00  0.00     0.000 A 
HETATM   21  C   UNK N   1      25.963  26.564  -7.246  0.00  0.00     0.001 A 
HETATM   22  C   UNK N   1      26.939  25.565  -7.189  0.00  0.00     0.014 A 
ENDBRANCH   5  17
BRANCH   2  23
HETATM   23  C   UNK N   1      31.016  22.779  -2.942  0.00  0.00     0.178 C 
HETATM   24  O   UNK N   1      31.619  22.218  -2.040  0.00  0.00    -0.646 OA
BRANCH  23  25
HETATM   25  O   UNK N   1      30.707  24.085  -2.815  0.00  0.00    -0.773 OA
HETATM   26  H   UNK N   1      30.338  24.554  -3.537  0.00  0.00     0.167 HD
ENDBRANCH  23  25
ENDBRANCH   2  23
TORSDOF 4
ENDMDL
MODEL 9
REMARK VINA RESULT:      -7.1     17.118     19.749
REMARK  4 active torsions:
REMARK  status: ('A' for Active; 'I' for Inactive)
REMARK    1  A    between atoms: C_16  and  C_2 
REMARK    2  A    between atoms: C_4  and  O_5 
REMARK    3  A    between atoms: C_6  and  C_4 
REMARK    4  A    between atoms: C_10  and  C_9 
ROOT
HETATM    1  C   UNK N   1      21.657  13.109   8.100  0.00  0.00     0.014 A 
HETATM    2  C   UNK N   1      19.550  15.437   6.407  0.00  0.00     0.065 A 
HETATM    3  C   UNK N   1      20.329  14.347   6.814  0.00  0.00     0.061 A 
HETATM    4  N   UNK N   1      20.554  13.222   6.119  0.00  0.00    -0.353 N 
HETATM    5  C   UNK N   1      21.351  12.440   6.885  0.00  0.00     0.055 A 
HETATM    6  C   UNK N   1      20.970  14.316   8.022  0.00  0.00     0.005 A 
HETATM    7  C   UNK N   1      20.886  15.390   8.911  0.00  0.00     0.014 A 
HETATM    8  C   UNK N   1      20.107  16.501   8.541  0.00  0.00     0.002 A 
HETATM    9  C   UNK N   1      19.440  16.525   7.299  0.00  0.00     0.021 A 
HETATM   10  H   UNK N   1      20.207  13.005   5.224  0.00  0.00     0.166 HD
ENDROOT
BRANCH   1  11
HETATM   11  C   UNK N   1      22.541  12.708   9.240  0.00  0.00    -0.023 A 
HETATM   12  C   UNK N   1      23.932  12.850   9.168  0.00  0.00     0.012 A 
HETATM   13  C   UNK N   1      24.752  12.520  10.249  0.00  0.00     0.001 A 
HETATM   14  C   UNK N   1      24.185  12.046  11.431  0.00  0.00     0.000 A 
HETATM   15  C   UNK N   1      22.799  11.911  11.531  0.00  0.00     0.001 A 
HETATM   16  C   UNK N   1      21.982  12.250  10.446  0.00  0.00     0.012 A 
ENDBRANCH   1  11
BRANCH   5  17
HETATM   17  C   UNK N   1      21.715  11.080   6.403  0.00  0.00    -0.009 A 
HETATM   18  C   UNK N   1      20.741  10.324   5.729  0.00  0.00     0.014 A 
HETATM   19  C   UNK N   1      21.019   9.027   5.289  0.00  0.00     0.001 A 
HETATM   20  C   UNK N   1      22.272   8.462   5.534  0.00  0.00     0.000 A 
HETATM   21  C   UNK N   1      23.240   9.192   6.223  0.00  0.00     0.001 A 
HETATM   22  C   UNK N   1      22.958  10.490   6.657  0.00  0.00     0.014 A 
ENDBRANCH   5  17
BRANCH   2  23
HETATM   23  C   UNK N   1      18.860  15.466   5.095  0.00  0.00     0.178 C 
HETATM   24  O   UNK N   1      18.320  14.460   4.663  0.00  0.00    -0.646 OA
BRANCH  23  25
HETATM   25  O   UNK N   1      18.815  16.601   4.368  0.00  0.00    -0.773 OA
HETATM   26  H   UNK N   1      18.624  17.419   4.784  0.00  0.00     0.167 HD
ENDBRANCH  23  25
ENDBRANCH   2  23
TORSDOF 4
ENDMDL
