REMARK  4 active torsions:
REMARK  status: ('A' for Active; 'I' for Inactive)
REMARK    1  A    between atoms: C_16  and  C_2 
REMARK    2  A    between atoms: C_4  and  O_5 
REMARK    3  A    between atoms: C_6  and  C_4 
REMARK    4  A    between atoms: C_10  and  C_9 
ROOT
HETATM    1  C   UNK N   1       0.794  -0.503  -0.005  0.00  0.00     0.014 A 
HETATM    2  C   UNK N   1       3.230   2.102  -0.092  0.00  0.00     0.065 A 
HETATM    3  C   UNK N   1       2.069   1.320  -0.060  0.00  0.00     0.061 A 
HETATM    4  N   UNK N   1       0.804   1.766  -0.068  0.00  0.00    -0.353 N 
HETATM    5  C   UNK N   1       0.002   0.676  -0.021  0.00  0.00     0.055 A 
HETATM    6  C   UNK N   1       2.108  -0.047  -0.013  0.00  0.00     0.005 A 
HETATM    7  C   UNK N   1       3.324  -0.734  -0.007  0.00  0.00     0.014 A 
HETATM    8  C   UNK N   1       4.513   0.017  -0.032  0.00  0.00     0.002 A 
HETATM    9  C   UNK N   1       4.468   1.426  -0.071  0.00  0.00     0.021 A 
HETATM   10  H   UNK N   1       0.513   2.706  -0.102  0.00  0.00     0.166 HD
ENDROOT
BRANCH   1  11
HETATM   11  C   UNK N   1       0.397  -1.947  -0.022  0.00  0.00    -0.023 A 
HETATM   12  C   UNK N   1      -0.890  -2.344  -0.404  0.00  0.00     0.012 A 
HETATM   13  C   UNK N   1      -1.245  -3.693  -0.465  0.00  0.00     0.001 A 
HETATM   14  C   UNK N   1      -0.305  -4.673  -0.148  0.00  0.00     0.000 A 
HETATM   15  C   UNK N   1       0.989  -4.300   0.221  0.00  0.00     0.001 A 
HETATM   16  C   UNK N   1       1.340  -2.947   0.273  0.00  0.00     0.012 A 
ENDBRANCH   1  11
BRANCH   5  17
HETATM   17  C   UNK N   1      -1.473   0.861   0.056  0.00  0.00    -0.009 A 
HETATM   18  C   UNK N   1      -2.002   2.140  -0.186  0.00  0.00     0.014 A 
HETATM   19  C   UNK N   1      -3.376   2.376  -0.090  0.00  0.00     0.001 A 
HETATM   20  C   UNK N   1      -4.238   1.338   0.269  0.00  0.00     0.000 A 
HETATM   21  C   UNK N   1      -3.723   0.069   0.536  0.00  0.00     0.001 A 
HETATM   22  C   UNK N   1      -2.349  -0.162   0.434  0.00  0.00     0.014 A 
ENDBRANCH   5  17
BRANCH   2  23
HETATM   23  C   UNK N   1       3.180   3.583  -0.147  0.00  0.00     0.178 C 
HETATM   24  O   UNK N   1       4.212   4.234  -0.109  0.00  0.00    -0.646 OA
BRANCH  23  25
HETATM   25  O   UNK N   1       1.999   4.226  -0.248  0.00  0.00    -0.773 OA
HETATM   26  H   UNK N   1       1.976   5.160  -0.318  0.00  0.00     0.167 HD
ENDBRANCH  23  25
ENDBRANCH   2  23
TORSDOF 4
