REMARK  6 active torsions:
REMARK  status: ('A' for Active; 'I' for Inactive)
REMARK    1  A    between atoms: C_1  and  C_6 
REMARK    2  A    between atoms: C_4  and  C_8 
REMARK    3  A    between atoms: C_11  and  N_15 
REMARK    4  A    between atoms: C_16  and  N_15 
REMARK    5  A    between atoms: C_16  and  C_18 
REMARK    6  A    between atoms: C_16  and  C_17 
ROOT
HETATM    1  N   UNK N   1      -0.154  -2.889  -0.054  0.00  0.00    -0.355 N 
HETATM    2  H   UNK N   1       0.679  -2.370  -0.122  0.00  0.00     0.162 HD
ENDROOT
BRANCH   1   3
HETATM    3  C   UNK N   1      -1.080  -1.821  -0.061  0.00  0.00     0.149 A 
HETATM    4  S   UNK N   1      -0.402  -0.170  -0.054  0.00  0.00    -0.049 SA
HETATM    5  C   UNK N   1      -2.089   0.393  -0.018  0.00  0.00     0.079 A 
HETATM    6  C   UNK N   1      -2.447   1.696   0.000  0.00  0.00     0.061 C 
HETATM    7  C   UNK N   1      -2.997  -0.753  -0.012  0.00  0.00     0.264 A 
HETATM    8  N   UNK N   1      -2.361  -1.944  -0.027  0.00  0.00    -0.303 N 
HETATM    9  O   UNK N   1      -4.215  -0.661   0.008  0.00  0.00    -0.267 OA
ATOM     10  HN  UNK N   1      -2.843  -2.842  -0.013  1.00  0.00     0.171 HD
BRANCH   6  11
HETATM   11  C   UNK N   1      -1.467   2.825  -0.001  0.00  0.00     0.077 A 
HETATM   12  C   UNK N   1      -0.084   2.722  -0.000  0.00  0.00     0.040 A 
HETATM   13  C   UNK N   1       0.401   4.008   0.000  0.00  0.00     0.035 A 
HETATM   14  C   UNK N   1      -0.715   4.821   0.001  0.00  0.00     0.053 A 
HETATM   15  O   UNK N   1      -1.808   4.091   0.001  0.00  0.00    -0.315 OA
BRANCH  14  16
HETATM   16  C   UNK N   1      -0.708   6.319   0.001  0.00  0.00     0.060 C 
HETATM   17  C   UNK N   1       0.704   6.892   0.000  0.00  0.00     0.012 C 
ENDBRANCH  14  16
ENDBRANCH   6  11
ENDBRANCH   1   3
BRANCH   1  18
HETATM   18  C   UNK N   1       0.405  -4.206  -0.017  0.00  0.00     0.187 C 
BRANCH  18  19
HETATM   19  C   UNK N   1      -0.712  -5.250   0.033  0.00  0.00     0.141 A 
HETATM   20  N   UNK N   1      -0.534  -6.581  -0.030  0.00  0.00    -0.270 N 
HETATM   21  N   UNK N   1      -1.758  -7.099  -0.041  0.00  0.00    -0.227 N 
ATOM     22  HN  UNK N   1       0.352  -7.086  -0.063  1.00  0.00     0.190 HD
HETATM   23  N   UNK N   1      -2.647  -6.129   0.004  0.00  0.00    -0.227 N 
ATOM     24  HN  UNK N   1      -1.975  -8.095  -0.078  1.00  0.00     0.210 HD
HETATM   25  N   UNK N   1      -2.023  -4.956   0.039  0.00  0.00    -0.270 N 
ATOM     26  HN  UNK N   1      -3.659  -6.258   0.009  1.00  0.00     0.210 HD
HETATM   27  H   UNK N   1      -2.434  -4.061   0.065  0.00  0.00     0.190 HD
ENDBRANCH  18  19
BRANCH  18  28
HETATM   28  C   UNK N   1       1.905  -4.693  -0.026  0.00  0.00    -0.028 A 
HETATM   29  C   UNK N   1       3.017  -3.788  -0.032  0.00  0.00     0.012 A 
HETATM   30  C   UNK N   1       4.334  -4.241  -0.027  0.00  0.00     0.043 A 
HETATM   31  C   UNK N   1       4.595  -5.606  -0.018  0.00  0.00     0.116 A 
HETATM   32  C   UNK N   1       3.536  -6.519  -0.011  0.00  0.00     0.043 A 
HETATM   33  F   UNK N   1       5.876  -6.046  -0.014  0.00  0.00    -0.206 F 
HETATM   34  C   UNK N   1       2.209  -6.067  -0.010  0.00  0.00     0.012 A 
ENDBRANCH  18  28
ENDBRANCH   1  18
TORSDOF 6
