MODEL 1
REMARK VINA RESULT:      -8.4      0.000      0.000
REMARK  6 active torsions:
REMARK  status: ('A' for Active; 'I' for Inactive)
REMARK    1  A    between atoms: C_1  and  C_6 
REMARK    2  A    between atoms: C_4  and  C_8 
REMARK    3  A    between atoms: C_11  and  N_15 
REMARK    4  A    between atoms: C_16  and  N_15 
REMARK    5  A    between atoms: C_16  and  C_18 
REMARK    6  A    between atoms: C_16  and  C_17 
ROOT
HETATM    1  N   UNK N   1      21.539  17.099   5.133  0.00  0.00    -0.355 N 
HETATM    2  H   UNK N   1      22.145  16.360   4.900  0.00  0.00     0.162 HD
ENDROOT
BRANCH   1   3
HETATM    3  C   UNK N   1      20.954  16.546   6.295  0.00  0.00     0.149 A 
HETATM    4  S   UNK N   1      21.852  15.228   7.097  0.00  0.00    -0.049 SA
HETATM    5  C   UNK N   1      20.496  15.165   8.246  0.00  0.00     0.079 A 
HETATM    6  C   UNK N   1      20.432  14.307   9.288  0.00  0.00     0.061 C 
HETATM    7  C   UNK N   1      19.492  16.165   7.887  0.00  0.00     0.264 A 
HETATM    8  N   UNK N   1      19.814  16.883   6.790  0.00  0.00    -0.303 N 
HETATM    9  O   UNK N   1      18.454  16.346   8.507  0.00  0.00    -0.267 OA
ATOM     10  HN  UNK N   1      19.220  17.612   6.396  1.00  0.00     0.171 HD
BRANCH   6  11
HETATM   11  C   UNK N   1      21.492  13.300   9.598  0.00  0.00     0.077 A 
HETATM   12  C   UNK N   1      21.958  12.300   8.757  0.00  0.00     0.040 A 
HETATM   13  C   UNK N   1      22.923  11.620   9.460  0.00  0.00     0.035 A 
HETATM   14  C   UNK N   1      22.989  12.243  10.690  0.00  0.00     0.053 A 
HETATM   15  O   UNK N   1      22.129  13.235  10.743  0.00  0.00    -0.315 OA
BRANCH  14  16
HETATM   16  C   UNK N   1      23.901  11.864  11.817  0.00  0.00     0.060 C 
HETATM   17  C   UNK N   1      23.184  11.844  13.161  0.00  0.00     0.012 C 
ENDBRANCH  14  16
ENDBRANCH   6  11
ENDBRANCH   1   3
BRANCH   1  18
HETATM   18  C   UNK N   1      21.857  17.996   4.064  0.00  0.00     0.187 C 
BRANCH  18  19
HETATM   19  C   UNK N   1      20.661  18.133   3.120  0.00  0.00     0.141 A 
HETATM   20  N   UNK N   1      19.762  19.132   3.145  0.00  0.00    -0.270 N 
HETATM   21  N   UNK N   1      18.858  18.814   2.224  0.00  0.00    -0.227 N 
ATOM     22  HN  UNK N   1      19.772  19.958   3.744  1.00  0.00     0.190 HD
HETATM   23  N   UNK N   1      19.182  17.667   1.666  0.00  0.00    -0.227 N 
ATOM     24  HN  UNK N   1      18.039  19.374   1.986  1.00  0.00     0.210 HD
HETATM   25  N   UNK N   1      20.302  17.207   2.214  0.00  0.00    -0.270 N 
ATOM     26  HN  UNK N   1      18.654  17.202   0.927  1.00  0.00     0.210 HD
HETATM   27  H   UNK N   1      20.771  16.367   2.001  0.00  0.00     0.190 HD
ENDBRANCH  18  19
BRANCH  18  28
HETATM   28  C   UNK N   1      23.172  18.808   3.752  0.00  0.00    -0.028 A 
HETATM   29  C   UNK N   1      24.480  18.335   4.101  0.00  0.00     0.012 A 
HETATM   30  C   UNK N   1      25.629  19.063   3.804  0.00  0.00     0.043 A 
HETATM   31  C   UNK N   1      25.523  20.286   3.153  0.00  0.00     0.116 A 
HETATM   32  C   UNK N   1      24.264  20.780   2.796  0.00  0.00     0.043 A 
HETATM   33  F   UNK N   1      26.641  20.995   2.865  0.00  0.00    -0.206 F 
HETATM   34  C   UNK N   1      23.105  20.047   3.088  0.00  0.00     0.012 A 
ENDBRANCH  18  28
ENDBRANCH   1  18
TORSDOF 6
ENDMDL
MODEL 2
REMARK VINA RESULT:      -8.4      2.331      2.936
REMARK  6 active torsions:
REMARK  status: ('A' for Active; 'I' for Inactive)
REMARK    1  A    between atoms: C_1  and  C_6 
REMARK    2  A    between atoms: C_4  and  C_8 
REMARK    3  A    between atoms: C_11  and  N_15 
REMARK    4  A    between atoms: C_16  and  N_15 
REMARK    5  A    between atoms: C_16  and  C_18 
REMARK    6  A    between atoms: C_16  and  C_17 
ROOT
HETATM    1  N   UNK N   1      21.149  18.060   3.551  0.00  0.00    -0.355 N 
HETATM    2  H   UNK N   1      20.415  18.579   3.952  0.00  0.00     0.162 HD
ENDROOT
BRANCH   1   3
HETATM    3  C   UNK N   1      20.645  16.758   3.774  0.00  0.00     0.149 A 
HETATM    4  S   UNK N   1      21.224  15.914   5.237  0.00  0.00    -0.049 SA
HETATM    5  C   UNK N   1      20.226  14.545   4.694  0.00  0.00     0.079 A 
HETATM    6  C   UNK N   1      20.124  13.376   5.365  0.00  0.00     0.061 C 
HETATM    7  C   UNK N   1      19.555  14.883   3.440  0.00  0.00     0.264 A 
HETATM    8  N   UNK N   1      19.846  16.123   2.991  0.00  0.00    -0.303 N 
HETATM    9  O   UNK N   1      18.803  14.129   2.841  0.00  0.00    -0.267 OA
ATOM     10  HN  UNK N   1      19.473  16.512   2.126  1.00  0.00     0.171 HD
BRANCH   6  11
HETATM   11  C   UNK N   1      20.844  13.088   6.643  0.00  0.00     0.077 A 
HETATM   12  C   UNK N   1      22.026  12.379   6.787  0.00  0.00     0.040 A 
HETATM   13  C   UNK N   1      22.310  12.365   8.132  0.00  0.00     0.035 A 
HETATM   14  C   UNK N   1      21.282  13.066   8.731  0.00  0.00     0.053 A 
HETATM   15  O   UNK N   1      20.427  13.482   7.823  0.00  0.00    -0.315 OA
BRANCH  14  16
HETATM   16  C   UNK N   1      21.139  13.329  10.199  0.00  0.00     0.060 C 
HETATM   17  C   UNK N   1      21.784  12.240  11.048  0.00  0.00     0.012 C 
ENDBRANCH  14  16
ENDBRANCH   6  11
ENDBRANCH   1   3
BRANCH   1  18
HETATM   18  C   UNK N   1      21.990  19.143   3.141  0.00  0.00     0.187 C 
BRANCH  18  19
HETATM   19  C   UNK N   1      21.225  20.079   2.204  0.00  0.00     0.141 A 
HETATM   20  N   UNK N   1      20.796  19.761   0.970  0.00  0.00    -0.270 N 
HETATM   21  N   UNK N   1      20.265  20.879   0.485  0.00  0.00    -0.227 N 
ATOM     22  HN  UNK N   1      20.864  18.856   0.505  1.00  0.00     0.190 HD
HETATM   23  N   UNK N   1      20.372  21.841   1.377  0.00  0.00    -0.227 N 
ATOM     24  HN  UNK N   1      19.840  20.976  -0.438  1.00  0.00     0.210 HD
HETATM   25  N   UNK N   1      20.981  21.374   2.463  0.00  0.00    -0.270 N 
ATOM     26  HN  UNK N   1      20.041  22.798   1.253  1.00  0.00     0.210 HD
HETATM   27  H   UNK N   1      21.204  21.872   3.283  0.00  0.00     0.190 HD
ENDBRANCH  18  19
BRANCH  18  28
HETATM   28  C   UNK N   1      23.488  19.481   3.502  0.00  0.00    -0.028 A 
HETATM   29  C   UNK N   1      24.153  18.939   4.651  0.00  0.00     0.012 A 
HETATM   30  C   UNK N   1      25.481  19.242   4.943  0.00  0.00     0.043 A 
HETATM   31  C   UNK N   1      26.195  20.094   4.109  0.00  0.00     0.116 A 
HETATM   32  C   UNK N   1      25.579  20.642   2.979  0.00  0.00     0.043 A 
HETATM   33  F   UNK N   1      27.485  20.390   4.394  0.00  0.00    -0.206 F 
HETATM   34  C   UNK N   1      24.245  20.334   2.678  0.00  0.00     0.012 A 
ENDBRANCH  18  28
ENDBRANCH   1  18
TORSDOF 6
ENDMDL
MODEL 3
REMARK VINA RESULT:      -8.4      3.760      8.161
REMARK  6 active torsions:
REMARK  status: ('A' for Active; 'I' for Inactive)
REMARK    1  A    between atoms: C_1  and  C_6 
REMARK    2  A    between atoms: C_4  and  C_8 
REMARK    3  A    between atoms: C_11  and  N_15 
REMARK    4  A    between atoms: C_16  and  N_15 
REMARK    5  A    between atoms: C_16  and  C_18 
REMARK    6  A    between atoms: C_16  and  C_17 
ROOT
HETATM    1  N   UNK N   1      20.480  16.841   6.470  0.00  0.00    -0.355 N 
HETATM    2  H   UNK N   1      19.687  16.468   6.023  0.00  0.00     0.162 HD
ENDROOT
BRANCH   1   3
HETATM    3  C   UNK N   1      21.034  17.551   5.381  0.00  0.00     0.149 A 
HETATM    4  S   UNK N   1      22.753  18.013   5.514  0.00  0.00    -0.049 SA
HETATM    5  C   UNK N   1      22.542  18.792   3.929  0.00  0.00     0.079 A 
HETATM    6  C   UNK N   1      23.528  19.443   3.273  0.00  0.00     0.061 C 
HETATM    7  C   UNK N   1      21.166  18.616   3.466  0.00  0.00     0.264 A 
HETATM    8  N   UNK N   1      20.391  17.927   4.331  0.00  0.00    -0.303 N 
HETATM    9  O   UNK N   1      20.740  19.046   2.405  0.00  0.00    -0.267 OA
ATOM     10  HN  UNK N   1      19.405  17.726   4.169  1.00  0.00     0.171 HD
BRANCH   6  11
HETATM   11  C   UNK N   1      24.917  19.594   3.804  0.00  0.00     0.077 A 
HETATM   12  C   UNK N   1      26.028  18.848   3.443  0.00  0.00     0.040 A 
HETATM   13  C   UNK N   1      27.080  19.334   4.183  0.00  0.00     0.035 A 
HETATM   14  C   UNK N   1      26.547  20.347   4.955  0.00  0.00     0.053 A 
HETATM   15  O   UNK N   1      25.263  20.478   4.709  0.00  0.00    -0.315 OA
BRANCH  14  16
HETATM   16  C   UNK N   1      27.303  21.190   5.936  0.00  0.00     0.060 C 
HETATM   17  C   UNK N   1      26.443  21.609   7.123  0.00  0.00     0.012 C 
ENDBRANCH  14  16
ENDBRANCH   6  11
ENDBRANCH   1   3
BRANCH   1  18
HETATM   18  C   UNK N   1      20.279  16.292   7.777  0.00  0.00     0.187 C 
BRANCH  18  19
HETATM   19  C   UNK N   1      19.332  17.185   8.582  0.00  0.00     0.141 A 
HETATM   20  N   UNK N   1      19.695  18.287   9.261  0.00  0.00    -0.270 N 
HETATM   21  N   UNK N   1      18.591  18.698   9.878  0.00  0.00    -0.227 N 
ATOM     22  HN  UNK N   1      20.620  18.716   9.296  1.00  0.00     0.190 HD
HETATM   23  N   UNK N   1      17.599  17.879   9.597  0.00  0.00    -0.227 N 
ATOM     24  HN  UNK N   1      18.524  19.521  10.476  1.00  0.00     0.210 HD
HETATM   25  N   UNK N   1      18.034  16.912   8.796  0.00  0.00    -0.270 N 
ATOM     26  HN  UNK N   1      16.644  17.972   9.943  1.00  0.00     0.210 HD
HETATM   27  H   UNK N   1      17.515  16.157   8.434  0.00  0.00     0.190 HD
ENDBRANCH  18  19
BRANCH  18  28
HETATM   28  C   UNK N   1      20.852  14.986   8.449  0.00  0.00    -0.028 A 
HETATM   29  C   UNK N   1      20.278  14.399   9.625  0.00  0.00     0.012 A 
HETATM   30  C   UNK N   1      20.794  13.238  10.194  0.00  0.00     0.043 A 
HETATM   31  C   UNK N   1      21.897  12.618   9.619  0.00  0.00     0.116 A 
HETATM   32  C   UNK N   1      22.483  13.160   8.471  0.00  0.00     0.043 A 
HETATM   33  F   UNK N   1      22.399  11.488  10.173  0.00  0.00    -0.206 F 
HETATM   34  C   UNK N   1      21.963  14.326   7.892  0.00  0.00     0.012 A 
ENDBRANCH  18  28
ENDBRANCH   1  18
TORSDOF 6
ENDMDL
MODEL 4
REMARK VINA RESULT:      -8.3      7.804     10.019
REMARK  6 active torsions:
REMARK  status: ('A' for Active; 'I' for Inactive)
REMARK    1  A    between atoms: C_1  and  C_6 
REMARK    2  A    between atoms: C_4  and  C_8 
REMARK    3  A    between atoms: C_11  and  N_15 
REMARK    4  A    between atoms: C_16  and  N_15 
REMARK    5  A    between atoms: C_16  and  C_18 
REMARK    6  A    between atoms: C_16  and  C_17 
ROOT
HETATM    1  N   UNK N   1      28.978  17.922   4.825  0.00  0.00    -0.355 N 
HETATM    2  H   UNK N   1      28.734  17.743   3.889  0.00  0.00     0.162 HD
ENDROOT
BRANCH   1   3
HETATM    3  C   UNK N   1      30.339  17.542   4.775  0.00  0.00     0.149 A 
HETATM    4  S   UNK N   1      31.173  17.331   6.338  0.00  0.00    -0.049 SA
HETATM    5  C   UNK N   1      32.625  16.965   5.378  0.00  0.00     0.079 A 
HETATM    6  C   UNK N   1      33.825  16.659   5.917  0.00  0.00     0.061 C 
HETATM    7  C   UNK N   1      32.313  17.047   3.952  0.00  0.00     0.264 A 
HETATM    8  N   UNK N   1      31.029  17.381   3.700  0.00  0.00    -0.303 N 
HETATM    9  O   UNK N   1      33.123  16.840   3.061  0.00  0.00    -0.267 OA
ATOM     10  HN  UNK N   1      30.648  17.494   2.761  1.00  0.00     0.171 HD
BRANCH   6  11
HETATM   11  C   UNK N   1      34.082  16.597   7.388  0.00  0.00     0.077 A 
HETATM   12  C   UNK N   1      34.520  17.635   8.197  0.00  0.00     0.040 A 
HETATM   13  C   UNK N   1      34.617  17.122   9.469  0.00  0.00     0.035 A 
HETATM   14  C   UNK N   1      34.234  15.799   9.361  0.00  0.00     0.053 A 
HETATM   15  O   UNK N   1      33.923  15.517   8.115  0.00  0.00    -0.315 OA
BRANCH  14  16
HETATM   16  C   UNK N   1      34.172  14.810  10.484  0.00  0.00     0.060 C 
HETATM   17  C   UNK N   1      35.556  14.371  10.946  0.00  0.00     0.012 C 
ENDBRANCH  14  16
ENDBRANCH   6  11
ENDBRANCH   1   3
BRANCH   1  18
HETATM   18  C   UNK N   1      27.712  18.388   5.302  0.00  0.00     0.187 C 
BRANCH  18  19
HETATM   19  C   UNK N   1      27.621  18.206   6.818  0.00  0.00     0.141 A 
HETATM   20  N   UNK N   1      27.782  19.181   7.729  0.00  0.00    -0.270 N 
HETATM   21  N   UNK N   1      27.709  18.575   8.909  0.00  0.00    -0.227 N 
ATOM     22  HN  UNK N   1      27.931  20.175   7.551  1.00  0.00     0.190 HD
HETATM   23  N   UNK N   1      27.520  17.284   8.731  0.00  0.00    -0.227 N 
ATOM     24  HN  UNK N   1      27.787  19.039   9.814  1.00  0.00     0.210 HD
HETATM   25  N   UNK N   1      27.472  17.018   7.429  0.00  0.00    -0.270 N 
ATOM     26  HN  UNK N   1      27.427  16.595   9.477  1.00  0.00     0.210 HD
HETATM   27  H   UNK N   1      27.352  16.138   7.003  0.00  0.00     0.190 HD
ENDBRANCH  18  19
BRANCH  18  28
HETATM   28  C   UNK N   1      26.489  19.024   4.535  0.00  0.00    -0.028 A 
HETATM   29  C   UNK N   1      26.639  20.058   3.553  0.00  0.00     0.012 A 
HETATM   30  C   UNK N   1      25.545  20.596   2.879  0.00  0.00     0.043 A 
HETATM   31  C   UNK N   1      24.266  20.130   3.155  0.00  0.00     0.116 A 
HETATM   32  C   UNK N   1      24.081  19.121   4.106  0.00  0.00     0.043 A 
HETATM   33  F   UNK N   1      23.203  20.654   2.500  0.00  0.00    -0.206 F 
HETATM   34  C   UNK N   1      25.179  18.573   4.782  0.00  0.00     0.012 A 
ENDBRANCH  18  28
ENDBRANCH   1  18
TORSDOF 6
ENDMDL
MODEL 5
REMARK VINA RESULT:      -8.1     10.953     12.990
REMARK  6 active torsions:
REMARK  status: ('A' for Active; 'I' for Inactive)
REMARK    1  A    between atoms: C_1  and  C_6 
REMARK    2  A    between atoms: C_4  and  C_8 
REMARK    3  A    between atoms: C_11  and  N_15 
REMARK    4  A    between atoms: C_16  and  N_15 
REMARK    5  A    between atoms: C_16  and  C_18 
REMARK    6  A    between atoms: C_16  and  C_17 
ROOT
HETATM    1  N   UNK N   1      33.455  16.412   9.010  0.00  0.00    -0.355 N 
HETATM    2  H   UNK N   1      33.437  17.077   9.735  0.00  0.00     0.162 HD
ENDROOT
BRANCH   1   3
HETATM    3  C   UNK N   1      34.504  15.594   9.487  0.00  0.00     0.149 A 
HETATM    4  S   UNK N   1      34.338  14.961  11.148  0.00  0.00    -0.049 SA
HETATM    5  C   UNK N   1      35.931  14.211  10.892  0.00  0.00     0.079 A 
HETATM    6  C   UNK N   1      36.566  13.461  11.819  0.00  0.00     0.061 C 
HETATM    7  C   UNK N   1      36.424  14.531   9.554  0.00  0.00     0.264 A 
HETATM    8  N   UNK N   1      35.581  15.309   8.841  0.00  0.00    -0.303 N 
HETATM    9  O   UNK N   1      37.493  14.144   9.107  0.00  0.00    -0.267 OA
ATOM     10  HN  UNK N   1      35.776  15.634   7.895  1.00  0.00     0.171 HD
BRANCH   6  11
HETATM   11  C   UNK N   1      36.010  13.175  13.177  0.00  0.00     0.077 A 
HETATM   12  C   UNK N   1      35.049  12.227  13.497  0.00  0.00     0.040 A 
HETATM   13  C   UNK N   1      34.849  12.320  14.853  0.00  0.00     0.035 A 
HETATM   14  C   UNK N   1      35.698  13.321  15.282  0.00  0.00     0.053 A 
HETATM   15  O   UNK N   1      36.373  13.809  14.266  0.00  0.00    -0.315 OA
BRANCH  14  16
HETATM   16  C   UNK N   1      35.847  13.798  16.694  0.00  0.00     0.060 C 
HETATM   17  C   UNK N   1      35.012  12.982  17.673  0.00  0.00     0.012 C 
ENDBRANCH  14  16
ENDBRANCH   6  11
ENDBRANCH   1   3
BRANCH   1  18
HETATM   18  C   UNK N   1      32.400  16.938   8.198  0.00  0.00     0.187 C 
BRANCH  18  19
HETATM   19  C   UNK N   1      31.243  17.410   9.081  0.00  0.00     0.141 A 
HETATM   20  N   UNK N   1      30.433  16.608   9.793  0.00  0.00    -0.270 N 
HETATM   21  N   UNK N   1      29.527  17.416  10.334  0.00  0.00    -0.227 N 
ATOM     22  HN  UNK N   1      30.499  15.595   9.897  1.00  0.00     0.190 HD
HETATM   23  N   UNK N   1      29.765  18.656   9.963  0.00  0.00    -0.227 N 
ATOM     24  HN  UNK N   1      28.764  17.120  10.944  1.00  0.00     0.210 HD
HETATM   25  N   UNK N   1      30.828  18.685   9.166  0.00  0.00    -0.270 N 
ATOM     26  HN  UNK N   1      29.216  19.470  10.242  1.00  0.00     0.210 HD
HETATM   27  H   UNK N   1      31.228  19.473   8.731  0.00  0.00     0.190 HD
ENDBRANCH  18  19
BRANCH  18  28
HETATM   28  C   UNK N   1      32.278  17.091   6.633  0.00  0.00    -0.028 A 
HETATM   29  C   UNK N   1      31.027  17.006   5.938  0.00  0.00     0.012 A 
HETATM   30  C   UNK N   1      30.942  17.157   4.556  0.00  0.00     0.043 A 
HETATM   31  C   UNK N   1      32.093  17.396   3.815  0.00  0.00     0.116 A 
HETATM   32  C   UNK N   1      33.331  17.487   4.459  0.00  0.00     0.043 A 
HETATM   33  F   UNK N   1      32.010  17.543   2.471  0.00  0.00    -0.206 F 
HETATM   34  C   UNK N   1      33.420  17.341   5.850  0.00  0.00     0.012 A 
ENDBRANCH  18  28
ENDBRANCH   1  18
TORSDOF 6
ENDMDL
MODEL 6
REMARK VINA RESULT:      -8.1      1.103      2.134
REMARK  6 active torsions:
REMARK  status: ('A' for Active; 'I' for Inactive)
REMARK    1  A    between atoms: C_1  and  C_6 
REMARK    2  A    between atoms: C_4  and  C_8 
REMARK    3  A    between atoms: C_11  and  N_15 
REMARK    4  A    between atoms: C_16  and  N_15 
REMARK    5  A    between atoms: C_16  and  C_18 
REMARK    6  A    between atoms: C_16  and  C_17 
ROOT
HETATM    1  N   UNK N   1      21.136  17.694   5.794  0.00  0.00    -0.355 N 
HETATM    2  H   UNK N   1      20.889  18.566   6.176  0.00  0.00     0.162 HD
ENDROOT
BRANCH   1   3
HETATM    3  C   UNK N   1      20.764  16.866   6.877  0.00  0.00     0.149 A 
HETATM    4  S   UNK N   1      21.839  15.488   7.241  0.00  0.00    -0.049 SA
HETATM    5  C   UNK N   1      20.679  15.078   8.526  0.00  0.00     0.079 A 
HETATM    6  C   UNK N   1      20.818  14.020   9.356  0.00  0.00     0.061 C 
HETATM    7  C   UNK N   1      19.583  16.046   8.536  0.00  0.00     0.264 A 
HETATM    8  N   UNK N   1      19.698  16.999   7.587  0.00  0.00    -0.303 N 
HETATM    9  O   UNK N   1      18.645  16.010   9.318  0.00  0.00    -0.267 OA
ATOM     10  HN  UNK N   1      19.015  17.743   7.448  1.00  0.00     0.171 HD
BRANCH   6  11
HETATM   11  C   UNK N   1      21.962  13.060   9.290  0.00  0.00     0.077 A 
HETATM   12  C   UNK N   1      23.039  12.993  10.161  0.00  0.00     0.040 A 
HETATM   13  C   UNK N   1      23.837  11.966   9.714  0.00  0.00     0.035 A 
HETATM   14  C   UNK N   1      23.201  11.468   8.594  0.00  0.00     0.053 A 
HETATM   15  O   UNK N   1      22.092  12.137   8.367  0.00  0.00    -0.315 OA
BRANCH  14  16
HETATM   16  C   UNK N   1      23.682  10.332   7.745  0.00  0.00     0.060 C 
HETATM   17  C   UNK N   1      23.876  10.738   6.289  0.00  0.00     0.012 C 
ENDBRANCH  14  16
ENDBRANCH   6  11
ENDBRANCH   1   3
BRANCH   1  18
HETATM   18  C   UNK N   1      21.623  18.136   4.523  0.00  0.00     0.187 C 
BRANCH  18  19
HETATM   19  C   UNK N   1      20.582  17.864   3.436  0.00  0.00     0.141 A 
HETATM   20  N   UNK N   1      20.565  16.789   2.629  0.00  0.00    -0.270 N 
HETATM   21  N   UNK N   1      19.555  16.996   1.790  0.00  0.00    -0.227 N 
ATOM     22  HN  UNK N   1      21.194  15.986   2.654  1.00  0.00     0.190 HD
HETATM   23  N   UNK N   1      18.984  18.150   2.064  0.00  0.00    -0.227 N 
ATOM     24  HN  UNK N   1      19.267  16.359   1.047  1.00  0.00     0.210 HD
HETATM   25  N   UNK N   1      19.612  18.725   3.085  0.00  0.00    -0.270 N 
ATOM     26  HN  UNK N   1      18.183  18.543   1.569  1.00  0.00     0.210 HD
HETATM   27  H   UNK N   1      19.409  19.596   3.497  0.00  0.00     0.190 HD
ENDBRANCH  18  19
BRANCH  18  28
HETATM   28  C   UNK N   1      22.986  18.821   4.120  0.00  0.00    -0.028 A 
HETATM   29  C   UNK N   1      23.061  19.934   3.220  0.00  0.00     0.012 A 
HETATM   30  C   UNK N   1      24.274  20.531   2.888  0.00  0.00     0.043 A 
HETATM   31  C   UNK N   1      25.456  20.045   3.435  0.00  0.00     0.116 A 
HETATM   32  C   UNK N   1      25.422  18.961   4.317  0.00  0.00     0.043 A 
HETATM   33  F   UNK N   1      26.636  20.625   3.111  0.00  0.00    -0.206 F 
HETATM   34  C   UNK N   1      24.202  18.361   4.659  0.00  0.00     0.012 A 
ENDBRANCH  18  28
ENDBRANCH   1  18
TORSDOF 6
ENDMDL
MODEL 7
REMARK VINA RESULT:      -8.1      3.763      4.564
REMARK  6 active torsions:
REMARK  status: ('A' for Active; 'I' for Inactive)
REMARK    1  A    between atoms: C_1  and  C_6 
REMARK    2  A    between atoms: C_4  and  C_8 
REMARK    3  A    between atoms: C_11  and  N_15 
REMARK    4  A    between atoms: C_16  and  N_15 
REMARK    5  A    between atoms: C_16  and  C_18 
REMARK    6  A    between atoms: C_16  and  C_17 
ROOT
HETATM    1  N   UNK N   1      20.383  15.641   3.293  0.00  0.00    -0.355 N 
HETATM    2  H   UNK N   1      19.445  15.928   3.217  0.00  0.00     0.162 HD
ENDROOT
BRANCH   1   3
HETATM    3  C   UNK N   1      20.652  16.113   4.598  0.00  0.00     0.149 A 
HETATM    4  S   UNK N   1      20.679  14.896   5.903  0.00  0.00    -0.049 SA
HETATM    5  C   UNK N   1      20.994  16.258   7.003  0.00  0.00     0.079 A 
HETATM    6  C   UNK N   1      21.160  16.124   8.337  0.00  0.00     0.061 C 
HETATM    7  C   UNK N   1      21.042  17.508   6.247  0.00  0.00     0.264 A 
HETATM    8  N   UNK N   1      20.834  17.345   4.923  0.00  0.00    -0.303 N 
HETATM    9  O   UNK N   1      21.246  18.603   6.748  0.00  0.00    -0.267 OA
ATOM     10  HN  UNK N   1      20.822  18.115   4.254  1.00  0.00     0.171 HD
BRANCH   6  11
HETATM   11  C   UNK N   1      21.092  14.813   9.054  0.00  0.00     0.077 A 
HETATM   12  C   UNK N   1      20.001  14.297   9.736  0.00  0.00     0.040 A 
HETATM   13  C   UNK N   1      20.395  13.078  10.233  0.00  0.00     0.035 A 
HETATM   14  C   UNK N   1      21.705  12.922   9.826  0.00  0.00     0.053 A 
HETATM   15  O   UNK N   1      22.091  13.967   9.129  0.00  0.00    -0.315 OA
BRANCH  14  16
HETATM   16  C   UNK N   1      22.580  11.743  10.121  0.00  0.00     0.060 C 
HETATM   17  C   UNK N   1      23.495  11.984  11.316  0.00  0.00     0.012 C 
ENDBRANCH  14  16
ENDBRANCH   6  11
ENDBRANCH   1   3
BRANCH   1  18
HETATM   18  C   UNK N   1      20.536  15.032   2.007  0.00  0.00     0.187 C 
BRANCH  18  19
HETATM   19  C   UNK N   1      19.378  15.436   1.093  0.00  0.00     0.141 A 
HETATM   20  N   UNK N   1      18.480  14.590   0.557  0.00  0.00    -0.270 N 
HETATM   21  N   UNK N   1      17.716  15.341  -0.229  0.00  0.00    -0.227 N 
ATOM     22  HN  UNK N   1      18.403  13.586   0.719  1.00  0.00     0.190 HD
HETATM   23  N   UNK N   1      18.131  16.590  -0.185  0.00  0.00    -0.227 N 
ATOM     24  HN  UNK N   1      16.928  15.002  -0.781  1.00  0.00     0.210 HD
HETATM   25  N   UNK N   1      19.180  16.681   0.627  0.00  0.00    -0.270 N 
ATOM     26  HN  UNK N   1      17.713  17.368  -0.696  1.00  0.00     0.210 HD
HETATM   27  H   UNK N   1      19.701  17.489   0.842  0.00  0.00     0.190 HD
ENDBRANCH  18  19
BRANCH  18  28
HETATM   28  C   UNK N   1      21.656  14.077   1.442  0.00  0.00    -0.028 A 
HETATM   29  C   UNK N   1      21.411  12.707   1.099  0.00  0.00     0.012 A 
HETATM   30  C   UNK N   1      22.413  11.885   0.590  0.00  0.00     0.043 A 
HETATM   31  C   UNK N   1      23.694  12.391   0.404  0.00  0.00     0.116 A 
HETATM   32  C   UNK N   1      23.971  13.723   0.726  0.00  0.00     0.043 A 
HETATM   33  F   UNK N   1      24.668  11.591  -0.090  0.00  0.00    -0.206 F 
HETATM   34  C   UNK N   1      22.964  14.555   1.234  0.00  0.00     0.012 A 
ENDBRANCH  18  28
ENDBRANCH   1  18
TORSDOF 6
ENDMDL
MODEL 8
REMARK VINA RESULT:      -7.8      9.828     11.699
REMARK  6 active torsions:
REMARK  status: ('A' for Active; 'I' for Inactive)
REMARK    1  A    between atoms: C_1  and  C_6 
REMARK    2  A    between atoms: C_4  and  C_8 
REMARK    3  A    between atoms: C_11  and  N_15 
REMARK    4  A    between atoms: C_16  and  N_15 
REMARK    5  A    between atoms: C_16  and  C_18 
REMARK    6  A    between atoms: C_16  and  C_17 
ROOT
HETATM    1  N   UNK N   1      31.291  16.879   7.614  0.00  0.00    -0.355 N 
HETATM    2  H   UNK N   1      31.123  16.019   8.061  0.00  0.00     0.162 HD
ENDROOT
BRANCH   1   3
HETATM    3  C   UNK N   1      32.580  17.147   8.130  0.00  0.00     0.149 A 
HETATM    4  S   UNK N   1      33.274  15.925   9.229  0.00  0.00    -0.049 SA
HETATM    5  C   UNK N   1      34.670  17.019   9.369  0.00  0.00     0.079 A 
HETATM    6  C   UNK N   1      35.759  16.756  10.125  0.00  0.00     0.061 C 
HETATM    7  C   UNK N   1      34.451  18.213   8.554  0.00  0.00     0.264 A 
HETATM    8  N   UNK N   1      33.266  18.213   7.907  0.00  0.00    -0.303 N 
HETATM    9  O   UNK N   1      35.249  19.133   8.460  0.00  0.00    -0.267 OA
ATOM     10  HN  UNK N   1      32.950  18.974   7.307  1.00  0.00     0.171 HD
BRANCH   6  11
HETATM   11  C   UNK N   1      35.921  15.515  10.943  0.00  0.00     0.077 A 
HETATM   12  C   UNK N   1      35.586  15.353  12.279  0.00  0.00     0.040 A 
HETATM   13  C   UNK N   1      35.909  14.058  12.606  0.00  0.00     0.035 A 
HETATM   14  C   UNK N   1      36.424  13.505  11.450  0.00  0.00     0.053 A 
HETATM   15  O   UNK N   1      36.419  14.393  10.481  0.00  0.00    -0.315 OA
BRANCH  14  16
HETATM   16  C   UNK N   1      36.921  12.101  11.297  0.00  0.00     0.060 C 
HETATM   17  C   UNK N   1      38.158  12.017  10.411  0.00  0.00     0.012 C 
ENDBRANCH  14  16
ENDBRANCH   6  11
ENDBRANCH   1   3
BRANCH   1  18
HETATM   18  C   UNK N   1      30.064  16.998   6.887  0.00  0.00     0.187 C 
BRANCH  18  19
HETATM   19  C   UNK N   1      29.031  17.760   7.721  0.00  0.00     0.141 A 
HETATM   20  N   UNK N   1      28.631  17.421   8.959  0.00  0.00    -0.270 N 
HETATM   21  N   UNK N   1      27.674  18.290   9.268  0.00  0.00    -0.227 N 
ATOM     22  HN  UNK N   1      28.985  16.659   9.537  1.00  0.00     0.190 HD
HETATM   23  N   UNK N   1      27.490  19.119   8.262  0.00  0.00    -0.227 N 
ATOM     24  HN  UNK N   1      27.162  18.312  10.150  1.00  0.00     0.210 HD
HETATM   25  N   UNK N   1      28.318  18.805   7.271  0.00  0.00    -0.270 N 
ATOM     26  HN  UNK N   1      26.814  19.883   8.245  1.00  0.00     0.210 HD
HETATM   27  H   UNK N   1      28.393  19.246   6.393  0.00  0.00     0.190 HD
ENDBRANCH  18  19
BRANCH  18  28
HETATM   28  C   UNK N   1      29.661  16.494   5.448  0.00  0.00    -0.028 A 
HETATM   29  C   UNK N   1      30.293  16.969   4.252  0.00  0.00     0.012 A 
HETATM   30  C   UNK N   1      29.929  16.500   2.992  0.00  0.00     0.043 A 
HETATM   31  C   UNK N   1      28.926  15.546   2.873  0.00  0.00     0.116 A 
HETATM   32  C   UNK N   1      28.288  15.058   4.018  0.00  0.00     0.043 A 
HETATM   33  F   UNK N   1      28.572  15.091   1.648  0.00  0.00    -0.206 F 
HETATM   34  C   UNK N   1      28.655  15.524   5.288  0.00  0.00     0.012 A 
ENDBRANCH  18  28
ENDBRANCH   1  18
TORSDOF 6
ENDMDL
MODEL 9
REMARK VINA RESULT:      -7.8     12.434     15.727
REMARK  6 active torsions:
REMARK  status: ('A' for Active; 'I' for Inactive)
REMARK    1  A    between atoms: C_1  and  C_6 
REMARK    2  A    between atoms: C_4  and  C_8 
REMARK    3  A    between atoms: C_11  and  N_15 
REMARK    4  A    between atoms: C_16  and  N_15 
REMARK    5  A    between atoms: C_16  and  C_18 
REMARK    6  A    between atoms: C_16  and  C_17 
ROOT
HETATM    1  N   UNK N   1      35.041  15.118  11.037  0.00  0.00    -0.355 N 
HETATM    2  H   UNK N   1      34.181  15.034  11.508  0.00  0.00     0.162 HD
ENDROOT
BRANCH   1   3
HETATM    3  C   UNK N   1      34.675  16.095  10.083  0.00  0.00     0.149 A 
HETATM    4  S   UNK N   1      33.275  15.718   9.043  0.00  0.00    -0.049 SA
HETATM    5  C   UNK N   1      33.587  17.284   8.260  0.00  0.00     0.079 A 
HETATM    6  C   UNK N   1      32.847  17.777   7.242  0.00  0.00     0.061 C 
HETATM    7  C   UNK N   1      34.741  17.931   8.882  0.00  0.00     0.264 A 
HETATM    8  N   UNK N   1      35.294  17.205   9.877  0.00  0.00    -0.303 N 
HETATM    9  O   UNK N   1      35.179  19.021   8.545  0.00  0.00    -0.267 OA
ATOM     10  HN  UNK N   1      36.112  17.503  10.407  1.00  0.00     0.171 HD
BRANCH   6  11
HETATM   11  C   UNK N   1      31.679  17.061   6.645  0.00  0.00     0.077 A 
HETATM   12  C   UNK N   1      30.375  17.065   7.117  0.00  0.00     0.040 A 
HETATM   13  C   UNK N   1      29.649  16.275   6.258  0.00  0.00     0.035 A 
HETATM   14  C   UNK N   1      30.553  15.834   5.312  0.00  0.00     0.053 A 
HETATM   15  O   UNK N   1      31.748  16.316   5.568  0.00  0.00    -0.315 OA
BRANCH  14  16
HETATM   16  C   UNK N   1      30.242  14.937   4.153  0.00  0.00     0.060 C 
HETATM   17  C   UNK N   1      29.806  15.716   2.918  0.00  0.00     0.012 C 
ENDBRANCH  14  16
ENDBRANCH   6  11
ENDBRANCH   1   3
BRANCH   1  18
HETATM   18  C   UNK N   1      35.802  14.167  11.789  0.00  0.00     0.187 C 
BRANCH  18  19
HETATM   19  C   UNK N   1      36.842  13.497  10.890  0.00  0.00     0.141 A 
HETATM   20  N   UNK N   1      38.155  13.396  11.162  0.00  0.00    -0.270 N 
HETATM   21  N   UNK N   1      38.693  12.827  10.088  0.00  0.00    -0.227 N 
ATOM     22  HN  UNK N   1      38.635  13.693  12.012  1.00  0.00     0.190 HD
HETATM   23  N   UNK N   1      37.755  12.598   9.193  0.00  0.00    -0.227 N 
ATOM     24  HN  UNK N   1      39.682  12.603   9.975  1.00  0.00     0.210 HD
HETATM   25  N   UNK N   1      36.584  13.018   9.661  0.00  0.00    -0.270 N 
ATOM     26  HN  UNK N   1      37.905  12.167   8.281  1.00  0.00     0.210 HD
HETATM   27  H   UNK N   1      35.711  12.984   9.205  0.00  0.00     0.190 HD
ENDBRANCH  18  19
BRANCH  18  28
HETATM   28  C   UNK N   1      35.725  13.752  13.308  0.00  0.00    -0.028 A 
HETATM   29  C   UNK N   1      34.845  12.728  13.792  0.00  0.00     0.012 A 
HETATM   30  C   UNK N   1      34.803  12.369  15.136  0.00  0.00     0.043 A 
HETATM   31  C   UNK N   1      35.630  13.012  16.049  0.00  0.00     0.116 A 
HETATM   32  C   UNK N   1      36.503  14.014  15.615  0.00  0.00     0.043 A 
HETATM   33  F   UNK N   1      35.589  12.662  17.357  0.00  0.00    -0.206 F 
HETATM   34  C   UNK N   1      36.552  14.375  14.261  0.00  0.00     0.012 A 
ENDBRANCH  18  28
ENDBRANCH   1  18
TORSDOF 6
ENDMDL
