REMARK  4 active torsions:
REMARK  status: ('A' for Active; 'I' for Inactive)
REMARK    1  A    between atoms: C_1  and  C_8 
REMARK    2  A    between atoms: C_5  and  O_6 
REMARK    3  A    between atoms: C_7  and  O_12 
REMARK    4  A    between atoms: C_8  and  O_11 
ROOT
HETATM    1  C   UNK N   1       2.520  -0.192  -0.000  0.00  0.00     0.042 A 
HETATM    2  C   UNK N   1       2.653  -1.587  -0.000  0.00  0.00     0.020 A 
HETATM    3  C   UNK N   1       1.235   0.362  -0.000  0.00  0.00     0.057 A 
HETATM    4  C   UNK N   1       1.522  -2.407   0.000  0.00  0.00     0.040 A 
HETATM    5  C   UNK N   1       0.092  -0.437  -0.000  0.00  0.00     0.102 A 
HETATM    6  C   UNK N   1       0.241  -1.847   0.000  0.00  0.00     0.099 A 
ENDROOT
BRANCH   1   7
HETATM    7  C   UNK N   1       3.692   0.737  -0.000  0.00  0.00     0.293 C 
HETATM    8  O   UNK N   1       3.477   1.939  -0.000  0.00  0.00    -0.259 OA
BRANCH   7   9
HETATM    9  O   UNK N   1       4.990   0.324  -0.000  0.00  0.00    -0.323 OA
HETATM   10  C   UNK N   1       5.417  -0.981  -0.000  0.00  0.00     0.213 C 
ENDBRANCH   7   9
ENDBRANCH   1   7
BRANCH   5  11
HETATM   11  O   UNK N   1      -1.110   0.196   0.000  0.00  0.00    -0.353 OA
HETATM   12  C   UNK N   1      -2.338  -0.421   0.000  0.00  0.00     0.210 C 
ENDBRANCH   5  11
BRANCH   6  13
HETATM   13  O   UNK N   1      -0.824  -2.667   0.000  0.00  0.00    -0.358 OA
HETATM   14  H   UNK N   1      -1.690  -2.310   0.000  0.00  0.00     0.217 HD
ENDBRANCH   6  13
TORSDOF 4
