MODEL 1
REMARK VINA RESULT:      -5.2      0.000      0.000
REMARK  4 active torsions:
REMARK  status: ('A' for Active; 'I' for Inactive)
REMARK    1  A    between atoms: C_1  and  C_8 
REMARK    2  A    between atoms: C_5  and  O_6 
REMARK    3  A    between atoms: C_7  and  O_12 
REMARK    4  A    between atoms: C_8  and  O_11 
ROOT
HETATM    1  C   UNK N   1      33.601  17.856   7.871  0.00  0.00     0.042 A 
HETATM    2  C   UNK N   1      33.720  17.501   6.520  0.00  0.00     0.020 A 
HETATM    3  C   UNK N   1      32.333  17.842   8.462  0.00  0.00     0.057 A 
HETATM    4  C   UNK N   1      32.591  17.141   5.780  0.00  0.00     0.040 A 
HETATM    5  C   UNK N   1      31.192  17.485   7.742  0.00  0.00     0.102 A 
HETATM    6  C   UNK N   1      31.327  17.129   6.377  0.00  0.00     0.099 A 
ENDROOT
BRANCH   1   7
HETATM    7  C   UNK N   1      34.771  18.251   8.715  0.00  0.00     0.293 C 
HETATM    8  O   UNK N   1      35.366  19.279   8.433  0.00  0.00    -0.259 OA
BRANCH   7   9
HETATM    9  O   UNK N   1      35.217  17.531   9.782  0.00  0.00    -0.323 OA
HETATM   10  C   UNK N   1      35.296  16.162   9.850  0.00  0.00     0.213 C 
ENDBRANCH   7   9
ENDBRANCH   1   7
BRANCH   5  11
HETATM   11  O   UNK N   1      30.007  17.502   8.406  0.00  0.00    -0.353 OA
HETATM   12  C   UNK N   1      29.668  18.374   9.413  0.00  0.00     0.210 C 
ENDBRANCH   5  11
BRANCH   6  13
HETATM   13  O   UNK N   1      30.264  16.776   5.633  0.00  0.00    -0.358 OA
HETATM   14  H   UNK N   1      29.848  17.408   5.081  0.00  0.00     0.217 HD
ENDBRANCH   6  13
TORSDOF 4
ENDMDL
MODEL 2
REMARK VINA RESULT:      -5.0     15.094     16.617
REMARK  4 active torsions:
REMARK  status: ('A' for Active; 'I' for Inactive)
REMARK    1  A    between atoms: C_1  and  C_8 
REMARK    2  A    between atoms: C_5  and  O_6 
REMARK    3  A    between atoms: C_7  and  O_12 
REMARK    4  A    between atoms: C_8  and  O_11 
ROOT
HETATM    1  C   UNK N   1      26.141  27.792  -4.052  0.00  0.00     0.042 A 
HETATM    2  C   UNK N   1      25.454  27.721  -5.271  0.00  0.00     0.020 A 
HETATM    3  C   UNK N   1      26.509  26.600  -3.416  0.00  0.00     0.057 A 
HETATM    4  C   UNK N   1      25.142  26.483  -5.839  0.00  0.00     0.040 A 
HETATM    5  C   UNK N   1      26.208  25.354  -3.964  0.00  0.00     0.102 A 
HETATM    6  C   UNK N   1      25.512  25.297  -5.198  0.00  0.00     0.099 A 
ENDROOT
BRANCH   1   7
HETATM    7  C   UNK N   1      26.503  29.086  -3.396  0.00  0.00     0.293 C 
HETATM    8  O   UNK N   1      26.209  30.125  -3.965  0.00  0.00    -0.259 OA
BRANCH   7   9
HETATM    9  O   UNK N   1      27.143  29.178  -2.197  0.00  0.00    -0.323 OA
HETATM   10  C   UNK N   1      28.430  29.617  -2.006  0.00  0.00     0.213 C 
ENDBRANCH   7   9
ENDBRANCH   1   7
BRANCH   5  11
HETATM   11  O   UNK N   1      26.607  24.256  -3.271  0.00  0.00    -0.353 OA
HETATM   12  C   UNK N   1      27.909  23.851  -3.096  0.00  0.00     0.210 C 
ENDBRANCH   5  11
BRANCH   6  13
HETATM   13  O   UNK N   1      25.195  24.124  -5.774  0.00  0.00    -0.358 OA
HETATM   14  H   UNK N   1      24.298  23.862  -5.839  0.00  0.00     0.217 HD
ENDBRANCH   6  13
TORSDOF 4
ENDMDL
MODEL 3
REMARK VINA RESULT:      -4.9      1.260      2.855
REMARK  4 active torsions:
REMARK  status: ('A' for Active; 'I' for Inactive)
REMARK    1  A    between atoms: C_1  and  C_8 
REMARK    2  A    between atoms: C_5  and  O_6 
REMARK    3  A    between atoms: C_7  and  O_12 
REMARK    4  A    between atoms: C_8  and  O_11 
ROOT
HETATM    1  C   UNK N   1      33.412  17.795   7.721  0.00  0.00     0.042 A 
HETATM    2  C   UNK N   1      32.098  17.629   8.178  0.00  0.00     0.020 A 
HETATM    3  C   UNK N   1      33.679  17.622   6.358  0.00  0.00     0.057 A 
HETATM    4  C   UNK N   1      31.075  17.297   7.286  0.00  0.00     0.040 A 
HETATM    5  C   UNK N   1      32.673  17.291   5.451  0.00  0.00     0.102 A 
HETATM    6  C   UNK N   1      31.348  17.126   5.926  0.00  0.00     0.099 A 
ENDROOT
BRANCH   1   7
HETATM    7  C   UNK N   1      34.549  18.151   8.626  0.00  0.00     0.293 C 
HETATM    8  O   UNK N   1      35.230  19.124   8.343  0.00  0.00    -0.259 OA
BRANCH   7   9
HETATM    9  O   UNK N   1      34.873  17.453   9.750  0.00  0.00    -0.323 OA
HETATM   10  C   UNK N   1      35.189  16.118   9.803  0.00  0.00     0.213 C 
ENDBRANCH   7   9
ENDBRANCH   1   7
BRANCH   5  11
HETATM   11  O   UNK N   1      33.033  17.144   4.149  0.00  0.00    -0.353 OA
HETATM   12  C   UNK N   1      33.357  15.957   3.538  0.00  0.00     0.210 C 
ENDBRANCH   5  11
BRANCH   6  13
HETATM   13  O   UNK N   1      30.338  16.806   5.098  0.00  0.00    -0.358 OA
HETATM   14  H   UNK N   1      30.064  17.412   4.438  0.00  0.00     0.217 HD
ENDBRANCH   6  13
TORSDOF 4
ENDMDL
MODEL 4
REMARK VINA RESULT:      -4.9      9.761     12.934
REMARK  4 active torsions:
REMARK  status: ('A' for Active; 'I' for Inactive)
REMARK    1  A    between atoms: C_1  and  C_8 
REMARK    2  A    between atoms: C_5  and  O_6 
REMARK    3  A    between atoms: C_7  and  O_12 
REMARK    4  A    between atoms: C_8  and  O_11 
ROOT
HETATM    1  C   UNK N   1      20.762  14.236   9.622  0.00  0.00     0.042 A 
HETATM    2  C   UNK N   1      20.124  13.313  10.461  0.00  0.00     0.020 A 
HETATM    3  C   UNK N   1      22.141  14.117   9.416  0.00  0.00     0.057 A 
HETATM    4  C   UNK N   1      20.853  12.295  11.080  0.00  0.00     0.040 A 
HETATM    5  C   UNK N   1      22.889  13.109  10.024  0.00  0.00     0.102 A 
HETATM    6  C   UNK N   1      22.231  12.182  10.871  0.00  0.00     0.099 A 
ENDROOT
BRANCH   1   7
HETATM    7  C   UNK N   1      20.036  15.346   8.932  0.00  0.00     0.293 C 
HETATM    8  O   UNK N   1      20.641  16.004   8.100  0.00  0.00    -0.259 OA
BRANCH   7   9
HETATM    9  O   UNK N   1      18.735  15.670   9.174  0.00  0.00    -0.323 OA
HETATM   10  C   UNK N   1      18.209  16.938   9.163  0.00  0.00     0.213 C 
ENDBRANCH   7   9
ENDBRANCH   1   7
BRANCH   5  11
HETATM   11  O   UNK N   1      24.222  13.079   9.761  0.00  0.00    -0.353 OA
HETATM   12  C   UNK N   1      24.796  13.237   8.523  0.00  0.00     0.210 C 
ENDBRANCH   5  11
BRANCH   6  13
HETATM   13  O   UNK N   1      22.900  11.190  11.483  0.00  0.00    -0.358 OA
HETATM   14  H   UNK N   1      23.830  11.130  11.397  0.00  0.00     0.217 HD
ENDBRANCH   6  13
TORSDOF 4
ENDMDL
MODEL 5
REMARK VINA RESULT:      -4.7     15.532     17.547
REMARK  4 active torsions:
REMARK  status: ('A' for Active; 'I' for Inactive)
REMARK    1  A    between atoms: C_1  and  C_8 
REMARK    2  A    between atoms: C_5  and  O_6 
REMARK    3  A    between atoms: C_7  and  O_12 
REMARK    4  A    between atoms: C_8  and  O_11 
ROOT
HETATM    1  C   UNK N   1      25.677  25.747  -6.345  0.00  0.00     0.042 A 
HETATM    2  C   UNK N   1      25.309  27.086  -6.157  0.00  0.00     0.020 A 
HETATM    3  C   UNK N   1      26.135  25.014  -5.245  0.00  0.00     0.057 A 
HETATM    4  C   UNK N   1      25.399  27.675  -4.894  0.00  0.00     0.040 A 
HETATM    5  C   UNK N   1      26.233  25.581  -3.975  0.00  0.00     0.102 A 
HETATM    6  C   UNK N   1      25.858  26.937  -3.799  0.00  0.00     0.099 A 
ENDROOT
BRANCH   1   7
HETATM    7  C   UNK N   1      25.603  25.062  -7.673  0.00  0.00     0.293 C 
HETATM    8  O   UNK N   1      25.978  25.673  -8.661  0.00  0.00    -0.259 OA
BRANCH   7   9
HETATM    9  O   UNK N   1      25.141  23.793  -7.848  0.00  0.00    -0.323 OA
HETATM   10  C   UNK N   1      25.652  22.867  -8.724  0.00  0.00     0.213 C 
ENDBRANCH   7   9
ENDBRANCH   1   7
BRANCH   5  11
HETATM   11  O   UNK N   1      26.690  24.787  -2.972  0.00  0.00    -0.353 OA
HETATM   12  C   UNK N   1      27.769  23.941  -3.051  0.00  0.00     0.210 C 
ENDBRANCH   5  11
BRANCH   6  13
HETATM   13  O   UNK N   1      25.931  27.537  -2.598  0.00  0.00    -0.358 OA
HETATM   14  H   UNK N   1      25.268  28.146  -2.338  0.00  0.00     0.217 HD
ENDBRANCH   6  13
TORSDOF 4
ENDMDL
MODEL 6
REMARK VINA RESULT:      -4.7     10.966     13.396
REMARK  4 active torsions:
REMARK  status: ('A' for Active; 'I' for Inactive)
REMARK    1  A    between atoms: C_1  and  C_8 
REMARK    2  A    between atoms: C_5  and  O_6 
REMARK    3  A    between atoms: C_7  and  O_12 
REMARK    4  A    between atoms: C_8  and  O_11 
ROOT
HETATM    1  C   UNK N   1      42.109  21.876   2.542  0.00  0.00     0.042 A 
HETATM    2  C   UNK N   1      42.730  20.767   3.131  0.00  0.00     0.020 A 
HETATM    3  C   UNK N   1      42.785  23.101   2.532  0.00  0.00     0.057 A 
HETATM    4  C   UNK N   1      44.003  20.884   3.696  0.00  0.00     0.040 A 
HETATM    5  C   UNK N   1      44.056  23.241   3.090  0.00  0.00     0.102 A 
HETATM    6  C   UNK N   1      44.673  22.111   3.682  0.00  0.00     0.099 A 
ENDROOT
BRANCH   1   7
HETATM    7  C   UNK N   1      40.749  21.812   1.922  0.00  0.00     0.293 C 
HETATM    8  O   UNK N   1      39.884  21.164   2.490  0.00  0.00    -0.259 OA
BRANCH   7   9
HETATM    9  O   UNK N   1      40.415  22.435   0.758  0.00  0.00    -0.323 OA
HETATM   10  C   UNK N   1      40.102  21.811  -0.425  0.00  0.00     0.213 C 
ENDBRANCH   7   9
ENDBRANCH   1   7
BRANCH   5  11
HETATM   11  O   UNK N   1      44.630  24.471   3.030  0.00  0.00    -0.353 OA
HETATM   12  C   UNK N   1      45.526  24.889   2.076  0.00  0.00     0.210 C 
ENDBRANCH   5  11
BRANCH   6  13
HETATM   13  O   UNK N   1      45.896  22.186   4.236  0.00  0.00    -0.358 OA
HETATM   14  H   UNK N   1      45.985  22.306   5.160  0.00  0.00     0.217 HD
ENDBRANCH   6  13
TORSDOF 4
ENDMDL
MODEL 7
REMARK VINA RESULT:      -4.7      8.952     11.752
REMARK  4 active torsions:
REMARK  status: ('A' for Active; 'I' for Inactive)
REMARK    1  A    between atoms: C_1  and  C_8 
REMARK    2  A    between atoms: C_5  and  O_6 
REMARK    3  A    between atoms: C_7  and  O_12 
REMARK    4  A    between atoms: C_8  and  O_11 
ROOT
HETATM    1  C   UNK N   1      35.243  12.459  16.381  0.00  0.00     0.042 A 
HETATM    2  C   UNK N   1      35.239  13.714  17.004  0.00  0.00     0.020 A 
HETATM    3  C   UNK N   1      35.251  11.311  17.180  0.00  0.00     0.057 A 
HETATM    4  C   UNK N   1      35.242  13.814  18.398  0.00  0.00     0.040 A 
HETATM    5  C   UNK N   1      35.255  11.386  18.573  0.00  0.00     0.102 A 
HETATM    6  C   UNK N   1      35.250  12.662  19.190  0.00  0.00     0.099 A 
ENDROOT
BRANCH   1   7
HETATM    7  C   UNK N   1      35.240  12.289  14.895  0.00  0.00     0.293 C 
HETATM    8  O   UNK N   1      35.631  11.228  14.434  0.00  0.00    -0.259 OA
BRANCH   7   9
HETATM    9  O   UNK N   1      34.825  13.247  14.021  0.00  0.00    -0.323 OA
HETATM   10  C   UNK N   1      35.628  13.936  13.145  0.00  0.00     0.213 C 
ENDBRANCH   7   9
ENDBRANCH   1   7
BRANCH   5  11
HETATM   11  O   UNK N   1      35.263  10.214  19.260  0.00  0.00    -0.353 OA
HETATM   12  C   UNK N   1      34.205   9.344  19.367  0.00  0.00     0.210 C 
ENDBRANCH   5  11
BRANCH   6  13
HETATM   13  O   UNK N   1      35.254  12.797  20.528  0.00  0.00    -0.358 OA
HETATM   14  H   UNK N   1      36.002  12.531  21.023  0.00  0.00     0.217 HD
ENDBRANCH   6  13
TORSDOF 4
ENDMDL
MODEL 8
REMARK VINA RESULT:      -4.5     11.259     12.044
REMARK  4 active torsions:
REMARK  status: ('A' for Active; 'I' for Inactive)
REMARK    1  A    between atoms: C_1  and  C_8 
REMARK    2  A    between atoms: C_5  and  O_6 
REMARK    3  A    between atoms: C_7  and  O_12 
REMARK    4  A    between atoms: C_8  and  O_11 
ROOT
HETATM    1  C   UNK N   1      22.315  12.812   9.613  0.00  0.00     0.042 A 
HETATM    2  C   UNK N   1      22.492  12.253   8.340  0.00  0.00     0.020 A 
HETATM    3  C   UNK N   1      21.346  13.807   9.783  0.00  0.00     0.057 A 
HETATM    4  C   UNK N   1      21.714  12.683   7.263  0.00  0.00     0.040 A 
HETATM    5  C   UNK N   1      20.558  14.252   8.722  0.00  0.00     0.102 A 
HETATM    6  C   UNK N   1      20.747  13.678   7.439  0.00  0.00     0.099 A 
ENDROOT
BRANCH   1   7
HETATM    7  C   UNK N   1      23.117  12.394  10.804  0.00  0.00     0.293 C 
HETATM    8  O   UNK N   1      24.333  12.346  10.695  0.00  0.00    -0.259 OA
BRANCH   7   9
HETATM    9  O   UNK N   1      22.574  12.061  12.008  0.00  0.00    -0.323 OA
HETATM   10  C   UNK N   1      23.267  11.891  13.181  0.00  0.00     0.213 C 
ENDBRANCH   7   9
ENDBRANCH   1   7
BRANCH   5  11
HETATM   11  O   UNK N   1      19.645  15.221   8.989  0.00  0.00    -0.353 OA
HETATM   12  C   UNK N   1      19.833  16.570   8.803  0.00  0.00     0.210 C 
ENDBRANCH   5  11
BRANCH   6  13
HETATM   13  O   UNK N   1      20.017  14.066   6.380  0.00  0.00    -0.358 OA
HETATM   14  H   UNK N   1      19.940  13.506   5.633  0.00  0.00     0.217 HD
ENDBRANCH   6  13
TORSDOF 4
ENDMDL
MODEL 9
REMARK VINA RESULT:      -4.4      2.222      3.657
REMARK  4 active torsions:
REMARK  status: ('A' for Active; 'I' for Inactive)
REMARK    1  A    between atoms: C_1  and  C_8 
REMARK    2  A    between atoms: C_5  and  O_6 
REMARK    3  A    between atoms: C_7  and  O_12 
REMARK    4  A    between atoms: C_8  and  O_11 
ROOT
HETATM    1  C   UNK N   1      31.072  17.523   7.558  0.00  0.00     0.042 A 
HETATM    2  C   UNK N   1      30.997  18.137   8.816  0.00  0.00     0.020 A 
HETATM    3  C   UNK N   1      29.884  17.151   6.919  0.00  0.00     0.057 A 
HETATM    4  C   UNK N   1      29.758  18.372   9.417  0.00  0.00     0.040 A 
HETATM    5  C   UNK N   1      28.636  17.376   7.500  0.00  0.00     0.102 A 
HETATM    6  C   UNK N   1      28.575  17.998   8.773  0.00  0.00     0.099 A 
ENDROOT
BRANCH   1   7
HETATM    7  C   UNK N   1      32.367  17.246   6.865  0.00  0.00     0.293 C 
HETATM    8  O   UNK N   1      32.354  17.099   5.653  0.00  0.00    -0.259 OA
BRANCH   7   9
HETATM    9  O   UNK N   1      33.566  17.146   7.504  0.00  0.00    -0.323 OA
HETATM   10  C   UNK N   1      34.504  16.164   7.301  0.00  0.00     0.213 C 
ENDBRANCH   7   9
ENDBRANCH   1   7
BRANCH   5  11
HETATM   11  O   UNK N   1      27.543  16.978   6.799  0.00  0.00    -0.353 OA
HETATM   12  C   UNK N   1      27.075  17.565   5.647  0.00  0.00     0.210 C 
ENDBRANCH   5  11
BRANCH   6  13
HETATM   13  O   UNK N   1      27.401  18.240   9.381  0.00  0.00    -0.358 OA
HETATM   14  H   UNK N   1      27.211  19.096   9.709  0.00  0.00     0.217 HD
ENDBRANCH   6  13
TORSDOF 4
ENDMDL
