MODEL 1
REMARK VINA RESULT:      -4.8      0.000      0.000
REMARK  14 active torsions:
REMARK  status: ('A' for Active; 'I' for Inactive)
REMARK    1  A    between atoms: C_2  and  O_3 
REMARK    2  A    between atoms: C_2  and  C_4 
REMARK    3  A    between atoms: C_4  and  C_5 
REMARK    4  A    between atoms: C_5  and  C_6 
REMARK    5  A    between atoms: C_6  and  C_7 
REMARK    6  A    between atoms: C_7  and  C_8 
REMARK    7  A    between atoms: C_8  and  C_9 
REMARK    8  A    between atoms: C_9  and  C_10 
REMARK    9  A    between atoms: C_10  and  C_11 
REMARK   10  A    between atoms: C_11  and  C_12 
REMARK   11  A    between atoms: C_12  and  C_13 
REMARK   12  A    between atoms: C_13  and  O_14 
REMARK   13  A    between atoms: O_14  and  C_15 
REMARK   14  A    between atoms: C_15  and  S_17 
ROOT
HETATM    1  C   UNK N   1      35.197  13.640  12.488  0.00  0.00     0.000 C 
ENDROOT
BRANCH   1   2
HETATM    2  C   UNK N   1      35.453  13.254  13.920  0.00  0.00     0.000 C 
BRANCH   2   3
HETATM    3  C   UNK N   1      36.614  14.083  14.406  0.00  0.00     0.000 C 
BRANCH   3   4
HETATM    4  C   UNK N   1      36.675  14.035  15.909  0.00  0.00     0.001 C 
BRANCH   4   5
HETATM    5  C   UNK N   1      35.523  13.195  16.396  0.00  0.00     0.010 C 
BRANCH   5   6
HETATM    6  C   UNK N   1      35.061  13.705  17.743  0.00  0.00     0.110 C 
BRANCH   6   7
HETATM    7  C   UNK N   1      35.221  12.659  18.801  0.00  0.00     0.139 C 
HETATM    8  O   UNK N   1      35.173  11.481  18.492  0.00  0.00    -0.650 OA
BRANCH   7   9
HETATM    9  O   UNK N   1      35.416  13.002  20.091  0.00  0.00    -0.776 OA
HETATM   10  H   UNK N   1      36.252  13.321  20.370  0.00  0.00     0.167 HD
ENDBRANCH   7   9
ENDBRANCH   6   7
ENDBRANCH   5   6
ENDBRANCH   4   5
ENDBRANCH   3   4
ENDBRANCH   2   3
ENDBRANCH   1   2
BRANCH   1  11
HETATM   11  C   UNK N   1      36.454  14.174  11.853  0.00  0.00     0.000 C 
BRANCH  11  12
HETATM   12  C   UNK N   1      36.043  15.341  10.993  0.00  0.00     0.002 C 
BRANCH  12  13
HETATM   13  C   UNK N   1      34.541  15.445  10.915  0.00  0.00     0.027 C 
BRANCH  13  14
HETATM   14  C   UNK N   1      34.215  16.104   9.599  0.00  0.00     0.179 C 
BRANCH  14  15
HETATM   15  O   UNK N   1      34.644  17.407   9.597  0.00  0.00    -0.313 OA
BRANCH  15  16
HETATM   16  C   UNK N   1      34.638  18.150   8.466  0.00  0.00     0.319 C 
HETATM   17  O   UNK N   1      35.262  19.200   8.436  0.00  0.00    -0.252 OA
BRANCH  16  18
HETATM   18  S   UNK N   1      33.732  17.627   7.002  0.00  0.00    -0.074 SA
HETATM   19  H   UNK N   1      34.333  16.828   6.079  0.00  0.00     0.112 HD
ENDBRANCH  16  18
ENDBRANCH  15  16
ENDBRANCH  14  15
ENDBRANCH  13  14
ENDBRANCH  12  13
ENDBRANCH  11  12
ENDBRANCH   1  11
TORSDOF 14
ENDMDL
MODEL 2
REMARK VINA RESULT:      -4.7      5.554      9.180
REMARK  14 active torsions:
REMARK  status: ('A' for Active; 'I' for Inactive)
REMARK    1  A    between atoms: C_2  and  O_3 
REMARK    2  A    between atoms: C_2  and  C_4 
REMARK    3  A    between atoms: C_4  and  C_5 
REMARK    4  A    between atoms: C_5  and  C_6 
REMARK    5  A    between atoms: C_6  and  C_7 
REMARK    6  A    between atoms: C_7  and  C_8 
REMARK    7  A    between atoms: C_8  and  C_9 
REMARK    8  A    between atoms: C_9  and  C_10 
REMARK    9  A    between atoms: C_10  and  C_11 
REMARK   10  A    between atoms: C_11  and  C_12 
REMARK   11  A    between atoms: C_12  and  C_13 
REMARK   12  A    between atoms: C_13  and  O_14 
REMARK   13  A    between atoms: O_14  and  C_15 
REMARK   14  A    between atoms: C_15  and  S_17 
ROOT
HETATM    1  C   UNK N   1      32.367  16.153   4.904  0.00  0.00     0.000 C 
ENDROOT
BRANCH   1   2
HETATM    2  C   UNK N   1      30.868  16.215   4.794  0.00  0.00     0.000 C 
BRANCH   2   3
HETATM    3  C   UNK N   1      30.364  16.982   5.989  0.00  0.00     0.000 C 
BRANCH   3   4
HETATM    4  C   UNK N   1      28.987  17.519   5.701  0.00  0.00     0.001 C 
BRANCH   4   5
HETATM    5  C   UNK N   1      28.422  18.070   6.984  0.00  0.00     0.010 C 
BRANCH   5   6
HETATM    6  C   UNK N   1      29.510  18.120   8.033  0.00  0.00     0.110 C 
BRANCH   6   7
HETATM    7  C   UNK N   1      28.932  18.110   9.413  0.00  0.00     0.139 C 
HETATM    8  O   UNK N   1      27.791  17.715   9.581  0.00  0.00    -0.650 OA
BRANCH   7   9
HETATM    9  O   UNK N   1      29.655  18.531  10.471  0.00  0.00    -0.776 OA
HETATM   10  H   UNK N   1      30.268  19.232  10.371  0.00  0.00     0.167 HD
ENDBRANCH   7   9
ENDBRANCH   6   7
ENDBRANCH   5   6
ENDBRANCH   4   5
ENDBRANCH   3   4
ENDBRANCH   2   3
ENDBRANCH   1   2
BRANCH   1  11
HETATM   11  C   UNK N   1      32.924  17.500   5.285  0.00  0.00     0.000 C 
BRANCH  11  12
HETATM   12  C   UNK N   1      33.961  17.254   6.351  0.00  0.00     0.002 C 
BRANCH  12  13
HETATM   13  C   UNK N   1      33.607  17.987   7.619  0.00  0.00     0.027 C 
BRANCH  13  14
HETATM   14  C   UNK N   1      33.653  16.976   8.738  0.00  0.00     0.179 C 
BRANCH  14  15
HETATM   15  O   UNK N   1      34.577  17.348   9.681  0.00  0.00    -0.313 OA
BRANCH  15  16
HETATM   16  C   UNK N   1      35.242  16.428  10.418  0.00  0.00     0.319 C 
HETATM   17  O   UNK N   1      36.420  16.610  10.681  0.00  0.00    -0.252 OA
BRANCH  16  18
HETATM   18  S   UNK N   1      34.428  14.939  11.020  0.00  0.00    -0.074 SA
HETATM   19  H   UNK N   1      34.730  14.450  12.253  0.00  0.00     0.112 HD
ENDBRANCH  16  18
ENDBRANCH  15  16
ENDBRANCH  14  15
ENDBRANCH  13  14
ENDBRANCH  12  13
ENDBRANCH  11  12
ENDBRANCH   1  11
TORSDOF 14
ENDMDL
MODEL 3
REMARK VINA RESULT:      -4.7      7.897     11.060
REMARK  14 active torsions:
REMARK  status: ('A' for Active; 'I' for Inactive)
REMARK    1  A    between atoms: C_2  and  O_3 
REMARK    2  A    between atoms: C_2  and  C_4 
REMARK    3  A    between atoms: C_4  and  C_5 
REMARK    4  A    between atoms: C_5  and  C_6 
REMARK    5  A    between atoms: C_6  and  C_7 
REMARK    6  A    between atoms: C_7  and  C_8 
REMARK    7  A    between atoms: C_8  and  C_9 
REMARK    8  A    between atoms: C_9  and  C_10 
REMARK    9  A    between atoms: C_10  and  C_11 
REMARK   10  A    between atoms: C_11  and  C_12 
REMARK   11  A    between atoms: C_12  and  C_13 
REMARK   12  A    between atoms: C_13  and  O_14 
REMARK   13  A    between atoms: O_14  and  C_15 
REMARK   14  A    between atoms: C_15  and  S_17 
ROOT
HETATM    1  C   UNK N   1      28.120  17.703   7.522  0.00  0.00     0.000 C 
ENDROOT
BRANCH   1   2
HETATM    2  C   UNK N   1      28.254  18.049   8.980  0.00  0.00     0.000 C 
BRANCH   2   3
HETATM    3  C   UNK N   1      29.623  18.651   9.172  0.00  0.00     0.000 C 
BRANCH   3   4
HETATM    4  C   UNK N   1      30.675  17.604   8.917  0.00  0.00     0.001 C 
BRANCH   4   5
HETATM    5  C   UNK N   1      31.821  18.262   8.195  0.00  0.00     0.010 C 
BRANCH   5   6
HETATM    6  C   UNK N   1      33.115  17.571   8.568  0.00  0.00     0.110 C 
BRANCH   6   7
HETATM    7  C   UNK N   1      34.276  18.165   7.835  0.00  0.00     0.139 C 
HETATM    8  O   UNK N   1      34.943  19.033   8.372  0.00  0.00    -0.650 OA
BRANCH   7   9
HETATM    9  O   UNK N   1      34.595  17.754   6.590  0.00  0.00    -0.776 OA
HETATM   10  H   UNK N   1      35.468  17.863   6.271  0.00  0.00     0.167 HD
ENDBRANCH   7   9
ENDBRANCH   6   7
ENDBRANCH   5   6
ENDBRANCH   4   5
ENDBRANCH   3   4
ENDBRANCH   2   3
ENDBRANCH   1   2
BRANCH   1  11
HETATM   11  C   UNK N   1      28.519  18.874   6.663  0.00  0.00     0.000 C 
BRANCH  11  12
HETATM   12  C   UNK N   1      27.254  19.624   6.337  0.00  0.00     0.002 C 
BRANCH  12  13
HETATM   13  C   UNK N   1      27.456  20.519   5.141  0.00  0.00     0.027 C 
BRANCH  13  14
HETATM   14  C   UNK N   1      26.810  19.831   3.965  0.00  0.00     0.179 C 
BRANCH  14  15
HETATM   15  O   UNK N   1      25.854  20.639   3.403  0.00  0.00    -0.313 OA
BRANCH  15  16
HETATM   16  C   UNK N   1      24.544  20.302   3.426  0.00  0.00     0.319 C 
HETATM   17  O   UNK N   1      23.722  21.066   2.943  0.00  0.00    -0.252 OA
BRANCH  16  18
HETATM   18  S   UNK N   1      23.983  18.754   4.152  0.00  0.00    -0.074 SA
HETATM   19  H   UNK N   1      23.692  18.690   5.479  0.00  0.00     0.112 HD
ENDBRANCH  16  18
ENDBRANCH  15  16
ENDBRANCH  14  15
ENDBRANCH  13  14
ENDBRANCH  12  13
ENDBRANCH  11  12
ENDBRANCH   1  11
TORSDOF 14
ENDMDL
MODEL 4
REMARK VINA RESULT:      -4.7     18.669     22.806
REMARK  14 active torsions:
REMARK  status: ('A' for Active; 'I' for Inactive)
REMARK    1  A    between atoms: C_2  and  O_3 
REMARK    2  A    between atoms: C_2  and  C_4 
REMARK    3  A    between atoms: C_4  and  C_5 
REMARK    4  A    between atoms: C_5  and  C_6 
REMARK    5  A    between atoms: C_6  and  C_7 
REMARK    6  A    between atoms: C_7  and  C_8 
REMARK    7  A    between atoms: C_8  and  C_9 
REMARK    8  A    between atoms: C_9  and  C_10 
REMARK    9  A    between atoms: C_10  and  C_11 
REMARK   10  A    between atoms: C_11  and  C_12 
REMARK   11  A    between atoms: C_12  and  C_13 
REMARK   12  A    between atoms: C_13  and  O_14 
REMARK   13  A    between atoms: O_14  and  C_15 
REMARK   14  A    between atoms: C_15  and  S_17 
ROOT
HETATM    1  C   UNK N   1      25.660  24.972  -5.015  0.00  0.00     0.000 C 
ENDROOT
BRANCH   1   2
HETATM    2  C   UNK N   1      25.875  24.864  -6.501  0.00  0.00     0.000 C 
BRANCH   2   3
HETATM    3  C   UNK N   1      26.248  26.237  -6.999  0.00  0.00     0.000 C 
BRANCH   3   4
HETATM    4  C   UNK N   1      25.769  27.276  -6.020  0.00  0.00     0.001 C 
BRANCH   4   5
HETATM    5  C   UNK N   1      26.870  28.287  -5.836  0.00  0.00     0.010 C 
BRANCH   5   6
HETATM    6  C   UNK N   1      27.484  28.120  -4.464  0.00  0.00     0.110 C 
BRANCH   6   7
HETATM    7  C   UNK N   1      26.494  28.431  -3.387  0.00  0.00     0.139 C 
HETATM    8  O   UNK N   1      26.157  27.553  -2.611  0.00  0.00    -0.650 OA
BRANCH   7   9
HETATM    9  O   UNK N   1      25.970  29.668  -3.261  0.00  0.00    -0.776 OA
HETATM   10  H   UNK N   1      25.067  29.817  -3.460  0.00  0.00     0.167 HD
ENDBRANCH   7   9
ENDBRANCH   6   7
ENDBRANCH   5   6
ENDBRANCH   4   5
ENDBRANCH   3   4
ENDBRANCH   2   3
ENDBRANCH   1   2
BRANCH   1  11
HETATM   11  C   UNK N   1      26.551  24.004  -4.282  0.00  0.00     0.000 C 
BRANCH  11  12
HETATM   12  C   UNK N   1      27.886  24.683  -4.116  0.00  0.00     0.002 C 
BRANCH  12  13
HETATM   13  C   UNK N   1      28.971  23.908  -4.818  0.00  0.00     0.027 C 
BRANCH  13  14
HETATM   14  C   UNK N   1      30.287  24.492  -4.371  0.00  0.00     0.179 C 
BRANCH  14  15
HETATM   15  O   UNK N   1      30.419  24.389  -3.010  0.00  0.00    -0.313 OA
BRANCH  15  16
HETATM   16  C   UNK N   1      30.710  23.208  -2.416  0.00  0.00     0.319 C 
HETATM   17  O   UNK N   1      30.243  22.961  -1.316  0.00  0.00    -0.252 OA
BRANCH  16  18
HETATM   18  S   UNK N   1      31.770  21.991  -3.213  0.00  0.00    -0.074 SA
HETATM   19  H   UNK N   1      32.816  22.400  -3.983  0.00  0.00     0.112 HD
ENDBRANCH  16  18
ENDBRANCH  15  16
ENDBRANCH  14  15
ENDBRANCH  13  14
ENDBRANCH  12  13
ENDBRANCH  11  12
ENDBRANCH   1  11
TORSDOF 14
ENDMDL
MODEL 5
REMARK VINA RESULT:      -4.7      1.781      2.475
REMARK  14 active torsions:
REMARK  status: ('A' for Active; 'I' for Inactive)
REMARK    1  A    between atoms: C_2  and  O_3 
REMARK    2  A    between atoms: C_2  and  C_4 
REMARK    3  A    between atoms: C_4  and  C_5 
REMARK    4  A    between atoms: C_5  and  C_6 
REMARK    5  A    between atoms: C_6  and  C_7 
REMARK    6  A    between atoms: C_7  and  C_8 
REMARK    7  A    between atoms: C_8  and  C_9 
REMARK    8  A    between atoms: C_9  and  C_10 
REMARK    9  A    between atoms: C_10  and  C_11 
REMARK   10  A    between atoms: C_11  and  C_12 
REMARK   11  A    between atoms: C_12  and  C_13 
REMARK   12  A    between atoms: C_13  and  O_14 
REMARK   13  A    between atoms: O_14  and  C_15 
REMARK   14  A    between atoms: C_15  and  S_17 
ROOT
HETATM    1  C   UNK N   1      35.201  10.966  13.066  0.00  0.00     0.000 C 
ENDROOT
BRANCH   1   2
HETATM    2  C   UNK N   1      33.925  10.820  13.849  0.00  0.00     0.000 C 
BRANCH   2   3
HETATM    3  C   UNK N   1      34.277  10.964  15.308  0.00  0.00     0.000 C 
BRANCH   3   4
HETATM    4  C   UNK N   1      34.362  12.423  15.666  0.00  0.00     0.001 C 
BRANCH   4   5
HETATM    5  C   UNK N   1      35.553  12.615  16.568  0.00  0.00     0.010 C 
BRANCH   5   6
HETATM    6  C   UNK N   1      35.231  12.085  17.947  0.00  0.00     0.110 C 
BRANCH   6   7
HETATM    7  C   UNK N   1      35.250  13.180  18.966  0.00  0.00     0.139 C 
HETATM    8  O   UNK N   1      35.264  14.342  18.597  0.00  0.00    -0.650 OA
BRANCH   7   9
HETATM    9  O   UNK N   1      35.254  12.900  20.286  0.00  0.00    -0.776 OA
HETATM   10  H   UNK N   1      35.501  13.559  20.904  0.00  0.00     0.167 HD
ENDBRANCH   7   9
ENDBRANCH   6   7
ENDBRANCH   5   6
ENDBRANCH   4   5
ENDBRANCH   3   4
ENDBRANCH   2   3
ENDBRANCH   1   2
BRANCH   1  11
HETATM   11  C   UNK N   1      35.200  12.258  12.292  0.00  0.00     0.000 C 
BRANCH  11  12
HETATM   12  C   UNK N   1      36.445  13.006  12.696  0.00  0.00     0.002 C 
BRANCH  12  13
HETATM   13  C   UNK N   1      36.136  14.459  12.951  0.00  0.00     0.027 C 
BRANCH  13  14
HETATM   14  C   UNK N   1      35.249  14.923  11.824  0.00  0.00     0.179 C 
BRANCH  14  15
HETATM   15  O   UNK N   1      35.566  16.208  11.463  0.00  0.00    -0.313 OA
BRANCH  15  16
HETATM   16  C   UNK N   1      35.181  16.722  10.272  0.00  0.00     0.319 C 
HETATM   17  O   UNK N   1      35.515  17.859   9.975  0.00  0.00    -0.252 OA
BRANCH  16  18
HETATM   18  S   UNK N   1      34.185  15.769   9.114  0.00  0.00    -0.074 SA
HETATM   19  H   UNK N   1      34.585  15.638   7.821  0.00  0.00     0.112 HD
ENDBRANCH  16  18
ENDBRANCH  15  16
ENDBRANCH  14  15
ENDBRANCH  13  14
ENDBRANCH  12  13
ENDBRANCH  11  12
ENDBRANCH   1  11
TORSDOF 14
ENDMDL
MODEL 6
REMARK VINA RESULT:      -4.7     18.855     22.113
REMARK  14 active torsions:
REMARK  status: ('A' for Active; 'I' for Inactive)
REMARK    1  A    between atoms: C_2  and  O_3 
REMARK    2  A    between atoms: C_2  and  C_4 
REMARK    3  A    between atoms: C_4  and  C_5 
REMARK    4  A    between atoms: C_5  and  C_6 
REMARK    5  A    between atoms: C_6  and  C_7 
REMARK    6  A    between atoms: C_7  and  C_8 
REMARK    7  A    between atoms: C_8  and  C_9 
REMARK    8  A    between atoms: C_9  and  C_10 
REMARK    9  A    between atoms: C_10  and  C_11 
REMARK   10  A    between atoms: C_11  and  C_12 
REMARK   11  A    between atoms: C_12  and  C_13 
REMARK   12  A    between atoms: C_13  and  O_14 
REMARK   13  A    between atoms: O_14  and  C_15 
REMARK   14  A    between atoms: C_15  and  S_17 
ROOT
HETATM    1  C   UNK N   1      25.731  26.026  -6.061  0.00  0.00     0.000 C 
ENDROOT
BRANCH   1   2
HETATM    2  C   UNK N   1      25.556  24.876  -5.107  0.00  0.00     0.000 C 
BRANCH   2   3
HETATM    3  C   UNK N   1      26.904  24.221  -4.945  0.00  0.00     0.000 C 
BRANCH   3   4
HETATM    4  C   UNK N   1      27.519  24.649  -3.639  0.00  0.00     0.001 C 
BRANCH   4   5
HETATM    5  C   UNK N   1      29.010  24.458  -3.740  0.00  0.00     0.010 C 
BRANCH   5   6
HETATM    6  C   UNK N   1      29.352  23.009  -3.469  0.00  0.00     0.110 C 
BRANCH   6   7
HETATM    7  C   UNK N   1      30.534  22.894  -2.560  0.00  0.00     0.139 C 
HETATM    8  O   UNK N   1      30.386  23.056  -1.361  0.00  0.00    -0.650 OA
BRANCH   7   9
HETATM    9  O   UNK N   1      31.761  22.613  -3.048  0.00  0.00    -0.776 OA
HETATM   10  H   UNK N   1      32.488  22.525  -2.465  0.00  0.00     0.167 HD
ENDBRANCH   7   9
ENDBRANCH   6   7
ENDBRANCH   5   6
ENDBRANCH   4   5
ENDBRANCH   3   4
ENDBRANCH   2   3
ENDBRANCH   1   2
BRANCH   1  11
HETATM   11  C   UNK N   1      24.896  27.202  -5.629  0.00  0.00     0.000 C 
BRANCH  11  12
HETATM   12  C   UNK N   1      25.369  27.587  -4.251  0.00  0.00     0.002 C 
BRANCH  12  13
HETATM   13  C   UNK N   1      26.303  28.768  -4.318  0.00  0.00     0.027 C 
BRANCH  13  14
HETATM   14  C   UNK N   1      27.449  28.473  -3.382  0.00  0.00     0.179 C 
BRANCH  14  15
HETATM   15  O   UNK N   1      27.291  29.153  -2.202  0.00  0.00    -0.313 OA
BRANCH  15  16
HETATM   16  C   UNK N   1      28.324  29.804  -1.618  0.00  0.00     0.319 C 
HETATM   17  O   UNK N   1      29.224  30.245  -2.316  0.00  0.00    -0.252 OA
BRANCH  16  18
HETATM   18  S   UNK N   1      28.402  30.035   0.165  0.00  0.00    -0.074 SA
HETATM   19  H   UNK N   1      27.257  30.046   0.901  0.00  0.00     0.112 HD
ENDBRANCH  16  18
ENDBRANCH  15  16
ENDBRANCH  14  15
ENDBRANCH  13  14
ENDBRANCH  12  13
ENDBRANCH  11  12
ENDBRANCH   1  11
TORSDOF 14
ENDMDL
MODEL 7
REMARK VINA RESULT:      -4.6     10.367     13.692
REMARK  14 active torsions:
REMARK  status: ('A' for Active; 'I' for Inactive)
REMARK    1  A    between atoms: C_2  and  O_3 
REMARK    2  A    between atoms: C_2  and  C_4 
REMARK    3  A    between atoms: C_4  and  C_5 
REMARK    4  A    between atoms: C_5  and  C_6 
REMARK    5  A    between atoms: C_6  and  C_7 
REMARK    6  A    between atoms: C_7  and  C_8 
REMARK    7  A    between atoms: C_8  and  C_9 
REMARK    8  A    between atoms: C_9  and  C_10 
REMARK    9  A    between atoms: C_10  and  C_11 
REMARK   10  A    between atoms: C_11  and  C_12 
REMARK   11  A    between atoms: C_12  and  C_13 
REMARK   12  A    between atoms: C_13  and  O_14 
REMARK   13  A    between atoms: O_14  and  C_15 
REMARK   14  A    between atoms: C_15  and  S_17 
ROOT
HETATM    1  C   UNK N   1      26.089  17.859   3.846  0.00  0.00     0.000 C 
ENDROOT
BRANCH   1   2
HETATM    2  C   UNK N   1      27.159  16.801   3.884  0.00  0.00     0.000 C 
BRANCH   2   3
HETATM    3  C   UNK N   1      28.363  17.408   4.558  0.00  0.00     0.000 C 
BRANCH   3   4
HETATM    4  C   UNK N   1      28.582  16.746   5.892  0.00  0.00     0.001 C 
BRANCH   4   5
HETATM    5  C   UNK N   1      29.429  17.662   6.735  0.00  0.00     0.010 C 
BRANCH   5   6
HETATM    6  C   UNK N   1      28.542  18.669   7.433  0.00  0.00     0.110 C 
BRANCH   6   7
HETATM    7  C   UNK N   1      28.500  18.422   8.908  0.00  0.00     0.139 C 
HETATM    8  O   UNK N   1      29.472  18.698   9.590  0.00  0.00    -0.650 OA
BRANCH   7   9
HETATM    9  O   UNK N   1      27.402  17.898   9.492  0.00  0.00    -0.776 OA
HETATM   10  H   UNK N   1      26.686  17.603   8.965  0.00  0.00     0.167 HD
ENDBRANCH   7   9
ENDBRANCH   6   7
ENDBRANCH   5   6
ENDBRANCH   4   5
ENDBRANCH   3   4
ENDBRANCH   2   3
ENDBRANCH   1   2
BRANCH   1  11
HETATM   11  C   UNK N   1      26.706  19.233   3.845  0.00  0.00     0.000 C 
BRANCH  11  12
HETATM   12  C   UNK N   1      25.603  20.203   4.184  0.00  0.00     0.002 C 
BRANCH  12  13
HETATM   13  C   UNK N   1      24.806  20.557   2.955  0.00  0.00     0.027 C 
BRANCH  13  14
HETATM   14  C   UNK N   1      23.401  20.062   3.186  0.00  0.00     0.179 C 
BRANCH  14  15
HETATM   15  O   UNK N   1      22.491  20.929   2.635  0.00  0.00    -0.313 OA
BRANCH  15  16
HETATM   16  C   UNK N   1      21.434  20.481   1.920  0.00  0.00     0.319 C 
HETATM   17  O   UNK N   1      21.400  20.676   0.715  0.00  0.00    -0.252 OA
BRANCH  16  18
HETATM   18  S   UNK N   1      20.073  19.601   2.704  0.00  0.00    -0.074 SA
HETATM   19  H   UNK N   1      18.803  20.077   2.595  0.00  0.00     0.112 HD
ENDBRANCH  16  18
ENDBRANCH  15  16
ENDBRANCH  14  15
ENDBRANCH  13  14
ENDBRANCH  12  13
ENDBRANCH  11  12
ENDBRANCH   1  11
TORSDOF 14
ENDMDL
MODEL 8
REMARK VINA RESULT:      -4.5      7.930     12.848
REMARK  14 active torsions:
REMARK  status: ('A' for Active; 'I' for Inactive)
REMARK    1  A    between atoms: C_2  and  O_3 
REMARK    2  A    between atoms: C_2  and  C_4 
REMARK    3  A    between atoms: C_4  and  C_5 
REMARK    4  A    between atoms: C_5  and  C_6 
REMARK    5  A    between atoms: C_6  and  C_7 
REMARK    6  A    between atoms: C_7  and  C_8 
REMARK    7  A    between atoms: C_8  and  C_9 
REMARK    8  A    between atoms: C_9  and  C_10 
REMARK    9  A    between atoms: C_10  and  C_11 
REMARK   10  A    between atoms: C_11  and  C_12 
REMARK   11  A    between atoms: C_12  and  C_13 
REMARK   12  A    between atoms: C_13  and  O_14 
REMARK   13  A    between atoms: O_14  and  C_15 
REMARK   14  A    between atoms: C_15  and  S_17 
ROOT
HETATM    1  C   UNK N   1      28.726  18.711   7.940  0.00  0.00     0.000 C 
ENDROOT
BRANCH   1   2
HETATM    2  C   UNK N   1      27.970  19.074   6.690  0.00  0.00     0.000 C 
BRANCH   2   3
HETATM    3  C   UNK N   1      27.382  20.445   6.907  0.00  0.00     0.000 C 
BRANCH   3   4
HETATM    4  C   UNK N   1      26.877  20.991   5.598  0.00  0.00     0.001 C 
BRANCH   4   5
HETATM    5  C   UNK N   1      25.994  19.947   4.967  0.00  0.00     0.010 C 
BRANCH   5   6
HETATM    6  C   UNK N   1      26.137  20.008   3.462  0.00  0.00     0.110 C 
BRANCH   6   7
HETATM    7  C   UNK N   1      24.875  20.487   2.817  0.00  0.00     0.139 C 
HETATM    8  O   UNK N   1      24.838  20.630   1.607  0.00  0.00    -0.650 OA
BRANCH   7   9
HETATM    9  O   UNK N   1      23.780  20.762   3.555  0.00  0.00    -0.776 OA
HETATM   10  H   UNK N   1      23.787  21.483   4.153  0.00  0.00     0.167 HD
ENDBRANCH   7   9
ENDBRANCH   6   7
ENDBRANCH   5   6
ENDBRANCH   4   5
ENDBRANCH   3   4
ENDBRANCH   2   3
ENDBRANCH   1   2
BRANCH   1  11
HETATM   11  C   UNK N   1      29.032  17.236   7.961  0.00  0.00     0.000 C 
BRANCH  11  12
HETATM   12  C   UNK N   1      30.276  17.064   8.794  0.00  0.00     0.002 C 
BRANCH  12  13
HETATM   13  C   UNK N   1      31.129  18.305   8.743  0.00  0.00     0.027 C 
BRANCH  13  14
HETATM   14  C   UNK N   1      32.538  17.856   8.443  0.00  0.00     0.179 C 
BRANCH  14  15
HETATM   15  O   UNK N   1      32.564  17.084   7.310  0.00  0.00    -0.313 OA
BRANCH  15  16
HETATM   16  C   UNK N   1      33.220  17.487   6.197  0.00  0.00     0.319 C 
HETATM   17  O   UNK N   1      34.348  17.941   6.299  0.00  0.00    -0.252 OA
BRANCH  16  18
HETATM   18  S   UNK N   1      32.466  17.367   4.566  0.00  0.00    -0.074 SA
HETATM   19  H   UNK N   1      33.243  17.437   3.451  0.00  0.00     0.112 HD
ENDBRANCH  16  18
ENDBRANCH  15  16
ENDBRANCH  14  15
ENDBRANCH  13  14
ENDBRANCH  12  13
ENDBRANCH  11  12
ENDBRANCH   1  11
TORSDOF 14
ENDMDL
MODEL 9
REMARK VINA RESULT:      -4.4      6.786     12.061
REMARK  14 active torsions:
REMARK  status: ('A' for Active; 'I' for Inactive)
REMARK    1  A    between atoms: C_2  and  O_3 
REMARK    2  A    between atoms: C_2  and  C_4 
REMARK    3  A    between atoms: C_4  and  C_5 
REMARK    4  A    between atoms: C_5  and  C_6 
REMARK    5  A    between atoms: C_6  and  C_7 
REMARK    6  A    between atoms: C_7  and  C_8 
REMARK    7  A    between atoms: C_8  and  C_9 
REMARK    8  A    between atoms: C_9  and  C_10 
REMARK    9  A    between atoms: C_10  and  C_11 
REMARK   10  A    between atoms: C_11  and  C_12 
REMARK   11  A    between atoms: C_12  and  C_13 
REMARK   12  A    between atoms: C_13  and  O_14 
REMARK   13  A    between atoms: O_14  and  C_15 
REMARK   14  A    between atoms: C_15  and  S_17 
ROOT
HETATM    1  C   UNK N   1      29.247  18.451   8.193  0.00  0.00     0.000 C 
ENDROOT
BRANCH   1   2
HETATM    2  C   UNK N   1      28.420  18.618   6.947  0.00  0.00     0.000 C 
BRANCH   2   3
HETATM    3  C   UNK N   1      27.670  19.918   7.080  0.00  0.00     0.000 C 
BRANCH   3   4
HETATM    4  C   UNK N   1      27.770  20.692   5.793  0.00  0.00     0.001 C 
BRANCH   4   5
HETATM    5  C   UNK N   1      27.479  19.748   4.656  0.00  0.00     0.010 C 
BRANCH   5   6
HETATM    6  C   UNK N   1      26.425  20.353   3.755  0.00  0.00     0.110 C 
BRANCH   6   7
HETATM    7  C   UNK N   1      25.058  19.869   4.120  0.00  0.00     0.139 C 
HETATM    8  O   UNK N   1      24.097  20.237   3.467  0.00  0.00    -0.650 OA
BRANCH   7   9
HETATM    9  O   UNK N   1      24.874  19.031   5.161  0.00  0.00    -0.776 OA
HETATM   10  H   UNK N   1      25.245  18.171   5.142  0.00  0.00     0.167 HD
ENDBRANCH   7   9
ENDBRANCH   6   7
ENDBRANCH   5   6
ENDBRANCH   4   5
ENDBRANCH   3   4
ENDBRANCH   2   3
ENDBRANCH   1   2
BRANCH   1  11
HETATM   11  C   UNK N   1      30.247  17.338   8.018  0.00  0.00     0.000 C 
BRANCH  11  12
HETATM   12  C   UNK N   1      31.595  17.906   8.379  0.00  0.00     0.002 C 
BRANCH  12  13
HETATM   13  C   UNK N   1      32.616  17.572   7.321  0.00  0.00     0.027 C 
BRANCH  13  14
HETATM   14  C   UNK N   1      33.963  17.966   7.872  0.00  0.00     0.179 C 
BRANCH  14  15
HETATM   15  O   UNK N   1      34.020  17.720   9.220  0.00  0.00    -0.313 OA
BRANCH  15  16
HETATM   16  C   UNK N   1      34.968  16.913   9.750  0.00  0.00     0.319 C 
HETATM   17  O   UNK N   1      35.831  17.394  10.467  0.00  0.00    -0.252 OA
BRANCH  16  18
HETATM   18  S   UNK N   1      34.985  15.143   9.423  0.00  0.00    -0.074 SA
HETATM   19  H   UNK N   1      35.705  14.310  10.224  0.00  0.00     0.112 HD
ENDBRANCH  16  18
ENDBRANCH  15  16
ENDBRANCH  14  15
ENDBRANCH  13  14
ENDBRANCH  12  13
ENDBRANCH  11  12
ENDBRANCH   1  11
TORSDOF 14
ENDMDL
