REMARK  14 active torsions:
REMARK  status: ('A' for Active; 'I' for Inactive)
REMARK    1  A    between atoms: C_2  and  O_3 
REMARK    2  A    between atoms: C_2  and  C_4 
REMARK    3  A    between atoms: C_4  and  C_5 
REMARK    4  A    between atoms: C_5  and  C_6 
REMARK    5  A    between atoms: C_6  and  C_7 
REMARK    6  A    between atoms: C_7  and  C_8 
REMARK    7  A    between atoms: C_8  and  C_9 
REMARK    8  A    between atoms: C_9  and  C_10 
REMARK    9  A    between atoms: C_10  and  C_11 
REMARK   10  A    between atoms: C_11  and  C_12 
REMARK   11  A    between atoms: C_12  and  C_13 
REMARK   12  A    between atoms: C_13  and  O_14 
REMARK   13  A    between atoms: O_14  and  C_15 
REMARK   14  A    between atoms: C_15  and  S_17 
ROOT
HETATM    1  C   UNK N   1       0.723   0.078  -0.000  0.00  0.00     0.000 C 
ENDROOT
BRANCH   1   2
HETATM    2  C   UNK N   1      -0.511   0.939   0.000  0.00  0.00     0.000 C 
BRANCH   2   3
HETATM    3  C   UNK N   1      -1.701   0.014  -0.000  0.00  0.00     0.000 C 
BRANCH   3   4
HETATM    4  C   UNK N   1      -2.970   0.824  -0.000  0.00  0.00     0.001 C 
BRANCH   4   5
HETATM    5  C   UNK N   1      -4.134  -0.132  -0.000  0.00  0.00     0.010 C 
BRANCH   5   6
HETATM    6  C   UNK N   1      -5.429   0.650  -0.000  0.00  0.00     0.110 C 
BRANCH   6   7
HETATM    7  C   UNK N   1      -6.613  -0.264   0.000  0.00  0.00     0.139 C 
HETATM    8  O   UNK N   1      -7.736   0.210   0.000  0.00  0.00    -0.650 OA
BRANCH   7   9
HETATM    9  O   UNK N   1      -6.455  -1.604   0.000  0.00  0.00    -0.776 OA
HETATM   10  H   UNK N   1      -7.206  -2.164  -0.000  0.00  0.00     0.167 HD
ENDBRANCH   7   9
ENDBRANCH   6   7
ENDBRANCH   5   6
ENDBRANCH   4   5
ENDBRANCH   3   4
ENDBRANCH   2   3
ENDBRANCH   1   2
BRANCH   1  11
HETATM   11  C   UNK N   1       1.963   0.933  -0.000  0.00  0.00     0.000 C 
BRANCH  11  12
HETATM   12  C   UNK N   1       3.139  -0.009  -0.000  0.00  0.00     0.002 C 
BRANCH  12  13
HETATM   13  C   UNK N   1       4.437   0.757  -0.000  0.00  0.00     0.027 C 
BRANCH  13  14
HETATM   14  C   UNK N   1       5.548  -0.263   0.000  0.00  0.00     0.179 C 
BRANCH  14  15
HETATM   15  O   UNK N   1       6.770   0.360   0.000  0.00  0.00    -0.313 OA
BRANCH  15  16
HETATM   16  C   UNK N   1       7.923  -0.348   0.000  0.00  0.00     0.319 C 
HETATM   17  O   UNK N   1       8.990   0.246  -0.000  0.00  0.00    -0.252 OA
BRANCH  16  18
HETATM   18  S   UNK N   1       7.921  -2.148   0.000  0.00  0.00    -0.074 SA
HETATM   19  H   UNK N   1       6.742  -2.827   0.000  0.00  0.00     0.112 HD
ENDBRANCH  16  18
ENDBRANCH  15  16
ENDBRANCH  14  15
ENDBRANCH  13  14
ENDBRANCH  12  13
ENDBRANCH  11  12
ENDBRANCH   1  11
TORSDOF 14
