MODEL 1
REMARK VINA RESULT:      -7.6      0.000      0.000
REMARK  6 active torsions:
REMARK  status: ('A' for Active; 'I' for Inactive)
REMARK    1  A    between atoms: C_7  and  C_8 
REMARK    2  A    between atoms: C_8  and  C_9 
REMARK    3  A    between atoms: C_9  and  C_10 
REMARK    4  A    between atoms: C_10  and  O_11 
REMARK    5  A    between atoms: O_11  and  C_12 
REMARK    6  A    between atoms: C_16  and  C_20 
ROOT
HETATM    1  C   UNK N   1      29.560  17.573   6.700  0.00  0.00     0.080 A 
HETATM    2  C   UNK N   1      30.725  17.221   5.986  0.00  0.00    -0.027 A 
HETATM    3  C   UNK N   1      30.655  16.887   4.534  0.00  0.00     0.051 C 
HETATM    4  C   UNK N   1      31.971  17.192   6.625  0.00  0.00     0.025 A 
HETATM    5  C   UNK N   1      32.071  17.502   7.984  0.00  0.00     0.011 A 
HETATM    6  C   UNK N   1      30.929  17.848   8.696  0.00  0.00     0.025 A 
HETATM    7  C   UNK N   1      29.682  17.895   8.085  0.00  0.00    -0.027 A 
HETATM    8  C   UNK N   1      28.544  18.307   8.953  0.00  0.00     0.051 C 
ENDROOT
BRANCH   1   9
HETATM    9  O   UNK N   1      28.375  17.596   6.019  0.00  0.00    -0.350 OA
BRANCH   9  10
HETATM   10  C   UNK N   1      27.683  18.714   5.612  0.00  0.00     0.176 C 
BRANCH  10  11
HETATM   11  C   UNK N   1      27.382  18.646   4.122  0.00  0.00     0.033 C 
BRANCH  11  12
HETATM   12  C   UNK N   1      26.707  19.934   3.667  0.00  0.00     0.069 C 
BRANCH  12  13
HETATM   13  C   UNK N   1      25.218  19.808   3.583  0.00  0.00     0.078 A 
HETATM   14  O   UNK N   1      24.529  18.865   4.181  0.00  0.00    -0.242 OA
HETATM   15  N   UNK N   1      23.261  18.983   3.918  0.00  0.00    -0.266 N 
HETATM   16  C   UNK N   1      23.122  20.052   3.115  0.00  0.00     0.031 A 
ATOM     17  HN  UNK N   1      22.513  18.378   4.259  1.00  0.00     0.194 HD
HETATM   18  C   UNK N   1      21.825  20.532   2.574  0.00  0.00     0.070 C 
HETATM   19  C   UNK N   1      24.352  20.617   2.869  0.00  0.00     0.061 A 
ENDBRANCH  12  13
ENDBRANCH  11  12
ENDBRANCH  10  11
ENDBRANCH   9  10
ENDBRANCH   1   9
BRANCH   5  20
HETATM   20  C   UNK N   1      33.360  17.486   8.684  0.00  0.00     0.144 A 
HETATM   21  N   UNK N   1      34.358  18.377   8.513  0.00  0.00    -0.266 N 
HETATM   22  N   UNK N   1      35.320  17.991   9.339  0.00  0.00    -0.003 NA
ATOM     23  HN  UNK N   1      34.371  19.177   7.880  1.00  0.00     0.186 HD
HETATM   24  N   UNK N   1      34.919  16.911   9.985  0.00  0.00    -0.221 N 
HETATM   25  N   UNK N   1      33.704  16.567   9.605  0.00  0.00    -0.269 N 
HETATM   26  C   UNK N   1      35.703  16.193  10.972  0.00  0.00     0.197 C 
ATOM     27  HN  UNK N   1      33.148  15.779   9.936  1.00  0.00     0.190 HD
ENDBRANCH   5  20
TORSDOF 6
ENDMDL
MODEL 2
REMARK VINA RESULT:      -7.5      2.151      3.050
REMARK  6 active torsions:
REMARK  status: ('A' for Active; 'I' for Inactive)
REMARK    1  A    between atoms: C_7  and  C_8 
REMARK    2  A    between atoms: C_8  and  C_9 
REMARK    3  A    between atoms: C_9  and  C_10 
REMARK    4  A    between atoms: C_10  and  O_11 
REMARK    5  A    between atoms: O_11  and  C_12 
REMARK    6  A    between atoms: C_16  and  C_20 
ROOT
HETATM    1  C   UNK N   1      31.121  17.260   5.793  0.00  0.00     0.080 A 
HETATM    2  C   UNK N   1      30.687  17.288   7.136  0.00  0.00    -0.027 A 
HETATM    3  C   UNK N   1      29.234  17.370   7.464  0.00  0.00     0.051 C 
HETATM    4  C   UNK N   1      31.613  17.228   8.185  0.00  0.00     0.025 A 
HETATM    5  C   UNK N   1      32.981  17.148   7.911  0.00  0.00     0.011 A 
HETATM    6  C   UNK N   1      33.418  17.122   6.592  0.00  0.00     0.025 A 
HETATM    7  C   UNK N   1      32.521  17.170   5.532  0.00  0.00    -0.027 A 
HETATM    8  C   UNK N   1      33.116  17.107   4.169  0.00  0.00     0.051 C 
ENDROOT
BRANCH   1   9
HETATM    9  O   UNK N   1      30.170  17.310   4.813  0.00  0.00    -0.350 OA
BRANCH   9  10
HETATM   10  C   UNK N   1      29.610  16.237   4.156  0.00  0.00     0.176 C 
BRANCH  10  11
HETATM   11  C   UNK N   1      28.093  16.272   4.268  0.00  0.00     0.033 C 
BRANCH  11  12
HETATM   12  C   UNK N   1      27.545  17.497   3.543  0.00  0.00     0.069 C 
BRANCH  12  13
HETATM   13  C   UNK N   1      27.079  18.564   4.482  0.00  0.00     0.078 A 
HETATM   14  O   UNK N   1      25.959  18.502   5.163  0.00  0.00    -0.242 OA
HETATM   15  N   UNK N   1      25.796  19.573   5.880  0.00  0.00    -0.266 N 
HETATM   16  C   UNK N   1      26.859  20.365   5.656  0.00  0.00     0.031 A 
ATOM     17  HN  UNK N   1      25.008  19.774   6.498  1.00  0.00     0.194 HD
HETATM   18  C   UNK N   1      27.059  21.697   6.281  0.00  0.00     0.070 C 
HETATM   19  C   UNK N   1      27.713  19.761   4.763  0.00  0.00     0.061 A 
ENDBRANCH  12  13
ENDBRANCH  11  12
ENDBRANCH  10  11
ENDBRANCH   9  10
ENDBRANCH   1   9
BRANCH   5  20
HETATM   20  C   UNK N   1      33.978  17.078   8.985  0.00  0.00     0.144 A 
HETATM   21  N   UNK N   1      34.942  17.990   9.224  0.00  0.00    -0.266 N 
HETATM   22  N   UNK N   1      35.603  17.535  10.280  0.00  0.00    -0.003 NA
ATOM     23  HN  UNK N   1      35.127  18.846   8.701  1.00  0.00     0.186 HD
HETATM   24  N   UNK N   1      35.058  16.395  10.665  0.00  0.00    -0.221 N 
HETATM   25  N   UNK N   1      34.044  16.079   9.885  0.00  0.00    -0.269 N 
HETATM   26  C   UNK N   1      35.511  15.594  11.786  0.00  0.00     0.197 C 
ATOM     27  HN  UNK N   1      33.441  15.258   9.949  1.00  0.00     0.190 HD
ENDBRANCH   5  20
TORSDOF 6
ENDMDL
MODEL 3
REMARK VINA RESULT:      -7.3      4.156      6.144
REMARK  6 active torsions:
REMARK  status: ('A' for Active; 'I' for Inactive)
REMARK    1  A    between atoms: C_7  and  C_8 
REMARK    2  A    between atoms: C_8  and  C_9 
REMARK    3  A    between atoms: C_9  and  C_10 
REMARK    4  A    between atoms: C_10  and  O_11 
REMARK    5  A    between atoms: O_11  and  C_12 
REMARK    6  A    between atoms: C_16  and  C_20 
ROOT
HETATM    1  C   UNK N   1      30.842  17.335   5.594  0.00  0.00     0.080 A 
HETATM    2  C   UNK N   1      30.457  17.237   6.948  0.00  0.00    -0.027 A 
HETATM    3  C   UNK N   1      29.017  17.150   7.325  0.00  0.00     0.051 C 
HETATM    4  C   UNK N   1      31.423  17.206   7.962  0.00  0.00     0.025 A 
HETATM    5  C   UNK N   1      32.781  17.282   7.642  0.00  0.00     0.011 A 
HETATM    6  C   UNK N   1      33.169  17.382   6.312  0.00  0.00     0.025 A 
HETATM    7  C   UNK N   1      32.233  17.405   5.285  0.00  0.00    -0.027 A 
HETATM    8  C   UNK N   1      32.781  17.486   3.903  0.00  0.00     0.051 C 
ENDROOT
BRANCH   1   9
HETATM    9  O   UNK N   1      29.855  17.350   4.649  0.00  0.00    -0.350 OA
BRANCH   9  10
HETATM   10  C   UNK N   1      29.666  16.426   3.645  0.00  0.00     0.176 C 
BRANCH  10  11
HETATM   11  C   UNK N   1      29.063  15.145   4.203  0.00  0.00     0.033 C 
BRANCH  11  12
HETATM   12  C   UNK N   1      29.978  13.963   3.899  0.00  0.00     0.069 C 
BRANCH  12  13
HETATM   13  C   UNK N   1      31.137  13.874   4.841  0.00  0.00     0.078 A 
HETATM   14  O   UNK N   1      31.020  13.866   6.147  0.00  0.00    -0.242 OA
HETATM   15  N   UNK N   1      32.188  13.804   6.714  0.00  0.00    -0.266 N 
HETATM   16  C   UNK N   1      33.104  13.769   5.731  0.00  0.00     0.031 A 
ATOM     17  HN  UNK N   1      32.374  13.785   7.718  1.00  0.00     0.194 HD
HETATM   18  C   UNK N   1      34.571  13.702   5.952  0.00  0.00     0.070 C 
HETATM   19  C   UNK N   1      32.478  13.812   4.506  0.00  0.00     0.061 A 
ENDBRANCH  12  13
ENDBRANCH  11  12
ENDBRANCH  10  11
ENDBRANCH   9  10
ENDBRANCH   1   9
BRANCH   5  20
HETATM   20  C   UNK N   1      33.818  17.247   8.679  0.00  0.00     0.144 A 
HETATM   21  N   UNK N   1      34.762  18.189   8.879  0.00  0.00    -0.266 N 
HETATM   22  N   UNK N   1      35.475  17.760   9.911  0.00  0.00    -0.003 NA
ATOM     23  HN  UNK N   1      34.899  19.050   8.349  1.00  0.00     0.186 HD
HETATM   24  N   UNK N   1      34.982  16.604  10.318  0.00  0.00    -0.221 N 
HETATM   25  N   UNK N   1      33.950  16.253   9.577  0.00  0.00    -0.269 N 
HETATM   26  C   UNK N   1      35.502  15.821  11.423  0.00  0.00     0.197 C 
ATOM     27  HN  UNK N   1      33.377  15.413   9.665  1.00  0.00     0.190 HD
ENDBRANCH   5  20
TORSDOF 6
ENDMDL
MODEL 4
REMARK VINA RESULT:      -7.3      1.156      2.161
REMARK  6 active torsions:
REMARK  status: ('A' for Active; 'I' for Inactive)
REMARK    1  A    between atoms: C_7  and  C_8 
REMARK    2  A    between atoms: C_8  and  C_9 
REMARK    3  A    between atoms: C_9  and  C_10 
REMARK    4  A    between atoms: C_10  and  O_11 
REMARK    5  A    between atoms: O_11  and  C_12 
REMARK    6  A    between atoms: C_16  and  C_20 
ROOT
HETATM    1  C   UNK N   1      30.409  17.211   6.380  0.00  0.00     0.080 A 
HETATM    2  C   UNK N   1      30.224  17.302   7.777  0.00  0.00    -0.027 A 
HETATM    3  C   UNK N   1      28.853  17.401   8.356  0.00  0.00     0.051 C 
HETATM    4  C   UNK N   1      31.324  17.287   8.643  0.00  0.00     0.025 A 
HETATM    5  C   UNK N   1      32.621  17.192   8.131  0.00  0.00     0.011 A 
HETATM    6  C   UNK N   1      32.813  17.105   6.758  0.00  0.00     0.025 A 
HETATM    7  C   UNK N   1      31.740  17.106   5.876  0.00  0.00    -0.027 A 
HETATM    8  C   UNK N   1      32.081  16.979   4.432  0.00  0.00     0.051 C 
ENDROOT
BRANCH   1   9
HETATM    9  O   UNK N   1      29.297  17.218   5.586  0.00  0.00    -0.350 OA
BRANCH   9  10
HETATM   10  C   UNK N   1      28.903  18.227   4.735  0.00  0.00     0.176 C 
BRANCH  10  11
HETATM   11  C   UNK N   1      27.782  19.047   5.358  0.00  0.00     0.033 C 
BRANCH  11  12
HETATM   12  C   UNK N   1      27.497  20.276   4.502  0.00  0.00     0.069 C 
BRANCH  12  13
HETATM   13  C   UNK N   1      26.151  20.226   3.852  0.00  0.00     0.078 A 
HETATM   14  O   UNK N   1      25.884  20.753   2.680  0.00  0.00    -0.242 OA
HETATM   15  N   UNK N   1      24.633  20.581   2.372  0.00  0.00    -0.266 N 
HETATM   16  C   UNK N   1      24.063  19.913   3.390  0.00  0.00     0.031 A 
ATOM     17  HN  UNK N   1      24.171  20.895   1.518  1.00  0.00     0.194 HD
HETATM   18  C   UNK N   1      22.631  19.520   3.439  0.00  0.00     0.070 C 
HETATM   19  C   UNK N   1      24.998  19.661   4.367  0.00  0.00     0.061 A 
ENDBRANCH  12  13
ENDBRANCH  11  12
ENDBRANCH  10  11
ENDBRANCH   9  10
ENDBRANCH   1   9
BRANCH   5  20
HETATM   20  C   UNK N   1      33.794  17.169   9.011  0.00  0.00     0.144 A 
HETATM   21  N   UNK N   1      34.777  18.093   9.036  0.00  0.00    -0.266 N 
HETATM   22  N   UNK N   1      35.621  17.684   9.973  0.00  0.00    -0.003 NA
ATOM     23  HN  UNK N   1      34.855  18.928   8.455  1.00  0.00     0.186 HD
HETATM   24  N   UNK N   1      35.166  16.559  10.495  0.00  0.00    -0.221 N 
HETATM   25  N   UNK N   1      34.031  16.208   9.923  0.00  0.00    -0.269 N 
HETATM   26  C   UNK N   1      35.821  15.806  11.547  0.00  0.00     0.197 C 
ATOM     27  HN  UNK N   1      33.459  15.388  10.127  1.00  0.00     0.190 HD
ENDBRANCH   5  20
TORSDOF 6
ENDMDL
MODEL 5
REMARK VINA RESULT:      -7.3      4.077      5.473
REMARK  6 active torsions:
REMARK  status: ('A' for Active; 'I' for Inactive)
REMARK    1  A    between atoms: C_7  and  C_8 
REMARK    2  A    between atoms: C_8  and  C_9 
REMARK    3  A    between atoms: C_9  and  C_10 
REMARK    4  A    between atoms: C_10  and  O_11 
REMARK    5  A    between atoms: O_11  and  C_12 
REMARK    6  A    between atoms: C_16  and  C_20 
ROOT
HETATM    1  C   UNK N   1      29.105  16.965   6.778  0.00  0.00     0.080 A 
HETATM    2  C   UNK N   1      29.275  17.710   7.965  0.00  0.00    -0.027 A 
HETATM    3  C   UNK N   1      28.103  18.333   8.645  0.00  0.00     0.051 C 
HETATM    4  C   UNK N   1      30.546  17.867   8.531  0.00  0.00     0.025 A 
HETATM    5  C   UNK N   1      31.664  17.294   7.919  0.00  0.00     0.011 A 
HETATM    6  C   UNK N   1      31.507  16.561   6.750  0.00  0.00     0.025 A 
HETATM    7  C   UNK N   1      30.257  16.380   6.171  0.00  0.00    -0.027 A 
HETATM    8  C   UNK N   1      30.222  15.551   4.935  0.00  0.00     0.051 C 
ENDROOT
BRANCH   1   9
HETATM    9  O   UNK N   1      27.840  16.838   6.279  0.00  0.00    -0.350 OA
BRANCH   9  10
HETATM   10  C   UNK N   1      27.116  15.672   6.165  0.00  0.00     0.176 C 
BRANCH  10  11
HETATM   11  C   UNK N   1      26.242  15.462   7.393  0.00  0.00     0.033 C 
BRANCH  11  12
HETATM   12  C   UNK N   1      25.433  14.178   7.244  0.00  0.00     0.069 C 
BRANCH  12  13
HETATM   13  C   UNK N   1      25.036  13.590   8.561  0.00  0.00     0.078 A 
HETATM   14  O   UNK N   1      25.708  13.765   9.674  0.00  0.00    -0.242 OA
HETATM   15  N   UNK N   1      25.150  13.122  10.656  0.00  0.00    -0.266 N 
HETATM   16  C   UNK N   1      24.065  12.503  10.158  0.00  0.00     0.031 A 
ATOM     17  HN  UNK N   1      25.474  13.094  11.624  1.00  0.00     0.194 HD
HETATM   18  C   UNK N   1      23.146  11.652  10.954  0.00  0.00     0.070 C 
HETATM   19  C   UNK N   1      23.948  12.772   8.814  0.00  0.00     0.061 A 
ENDBRANCH  12  13
ENDBRANCH  11  12
ENDBRANCH  10  11
ENDBRANCH   9  10
ENDBRANCH   1   9
BRANCH   5  20
HETATM   20  C   UNK N   1      33.009  17.434   8.489  0.00  0.00     0.144 A 
HETATM   21  N   UNK N   1      33.934  18.337   8.107  0.00  0.00    -0.266 N 
HETATM   22  N   UNK N   1      34.986  18.113   8.883  0.00  0.00    -0.003 NA
ATOM     23  HN  UNK N   1      33.845  19.043   7.376  1.00  0.00     0.186 HD
HETATM   24  N   UNK N   1      34.707  17.114   9.701  0.00  0.00    -0.221 N 
HETATM   25  N   UNK N   1      33.486  16.667   9.487  0.00  0.00    -0.269 N 
HETATM   26  C   UNK N   1      35.616  16.576  10.695  0.00  0.00     0.197 C 
ATOM     27  HN  UNK N   1      33.008  15.906   9.971  1.00  0.00     0.190 HD
ENDBRANCH   5  20
TORSDOF 6
ENDMDL
MODEL 6
REMARK VINA RESULT:      -7.3      3.268      8.060
REMARK  6 active torsions:
REMARK  status: ('A' for Active; 'I' for Inactive)
REMARK    1  A    between atoms: C_7  and  C_8 
REMARK    2  A    between atoms: C_8  and  C_9 
REMARK    3  A    between atoms: C_9  and  C_10 
REMARK    4  A    between atoms: C_10  and  O_11 
REMARK    5  A    between atoms: O_11  and  C_12 
REMARK    6  A    between atoms: C_16  and  C_20 
ROOT
HETATM    1  C   UNK N   1      30.139  16.992   7.827  0.00  0.00     0.080 A 
HETATM    2  C   UNK N   1      29.451  18.165   8.203  0.00  0.00    -0.027 A 
HETATM    3  C   UNK N   1      29.687  18.791   9.536  0.00  0.00     0.051 C 
HETATM    4  C   UNK N   1      28.542  18.769   7.326  0.00  0.00     0.025 A 
HETATM    5  C   UNK N   1      28.299  18.209   6.069  0.00  0.00     0.011 A 
HETATM    6  C   UNK N   1      28.971  17.053   5.691  0.00  0.00     0.025 A 
HETATM    7  C   UNK N   1      29.886  16.438   6.537  0.00  0.00    -0.027 A 
HETATM    8  C   UNK N   1      30.557  15.222   6.000  0.00  0.00     0.051 C 
ENDROOT
BRANCH   1   9
HETATM    9  O   UNK N   1      31.022  16.455   8.721  0.00  0.00    -0.350 OA
BRANCH   9  10
HETATM   10  C   UNK N   1      32.395  16.444   8.614  0.00  0.00     0.176 C 
BRANCH  10  11
HETATM   11  C   UNK N   1      32.921  17.844   8.330  0.00  0.00     0.033 C 
BRANCH  11  12
HETATM   12  C   UNK N   1      34.131  17.768   7.404  0.00  0.00     0.069 C 
BRANCH  12  13
HETATM   13  C   UNK N   1      33.798  17.184   6.067  0.00  0.00     0.078 A 
HETATM   14  O   UNK N   1      34.272  16.041   5.630  0.00  0.00    -0.242 OA
HETATM   15  N   UNK N   1      33.836  15.790   4.431  0.00  0.00    -0.266 N 
HETATM   16  C   UNK N   1      33.043  16.816   4.075  0.00  0.00     0.031 A 
ATOM     17  HN  UNK N   1      34.055  14.968   3.866  1.00  0.00     0.194 HD
HETATM   18  C   UNK N   1      32.347  16.925   2.768  0.00  0.00     0.070 C 
HETATM   19  C   UNK N   1      32.987  17.739   5.094  0.00  0.00     0.061 A 
ENDBRANCH  12  13
ENDBRANCH  11  12
ENDBRANCH  10  11
ENDBRANCH   9  10
ENDBRANCH   1   9
BRANCH   5  20
HETATM   20  C   UNK N   1      27.358  18.819   5.124  0.00  0.00     0.144 A 
HETATM   21  N   UNK N   1      27.693  19.571   4.056  0.00  0.00    -0.266 N 
HETATM   22  N   UNK N   1      26.544  19.905   3.486  0.00  0.00    -0.003 NA
ATOM     23  HN  UNK N   1      28.632  19.830   3.752  1.00  0.00     0.186 HD
HETATM   24  N   UNK N   1      25.553  19.375   4.181  0.00  0.00    -0.221 N 
HETATM   25  N   UNK N   1      26.021  18.691   5.206  0.00  0.00    -0.269 N 
HETATM   26  C   UNK N   1      24.145  19.524   3.868  0.00  0.00     0.197 C 
ATOM     27  HN  UNK N   1      25.486  18.177   5.908  1.00  0.00     0.190 HD
ENDBRANCH   5  20
TORSDOF 6
ENDMDL
MODEL 7
REMARK VINA RESULT:      -7.1      1.867      9.670
REMARK  6 active torsions:
REMARK  status: ('A' for Active; 'I' for Inactive)
REMARK    1  A    between atoms: C_7  and  C_8 
REMARK    2  A    between atoms: C_8  and  C_9 
REMARK    3  A    between atoms: C_9  and  C_10 
REMARK    4  A    between atoms: C_10  and  O_11 
REMARK    5  A    between atoms: O_11  and  C_12 
REMARK    6  A    between atoms: C_16  and  C_20 
ROOT
HETATM    1  C   UNK N   1      27.670  18.668   4.899  0.00  0.00     0.080 A 
HETATM    2  C   UNK N   1      27.105  19.879   5.352  0.00  0.00    -0.027 A 
HETATM    3  C   UNK N   1      27.849  20.758   6.299  0.00  0.00     0.051 C 
HETATM    4  C   UNK N   1      25.839  20.283   4.909  0.00  0.00     0.025 A 
HETATM    5  C   UNK N   1      25.117  19.483   4.020  0.00  0.00     0.011 A 
HETATM    6  C   UNK N   1      25.665  18.288   3.570  0.00  0.00     0.025 A 
HETATM    7  C   UNK N   1      26.922  17.867   3.985  0.00  0.00    -0.027 A 
HETATM    8  C   UNK N   1      27.405  16.582   3.408  0.00  0.00     0.051 C 
ENDROOT
BRANCH   1   9
HETATM    9  O   UNK N   1      28.913  18.332   5.358  0.00  0.00    -0.350 OA
BRANCH   9  10
HETATM   10  C   UNK N   1      29.253  17.187   6.043  0.00  0.00     0.176 C 
BRANCH  10  11
HETATM   11  C   UNK N   1      28.686  17.219   7.455  0.00  0.00     0.033 C 
BRANCH  11  12
HETATM   12  C   UNK N   1      29.543  18.117   8.341  0.00  0.00     0.069 C 
BRANCH  12  13
HETATM   13  C   UNK N   1      30.924  17.578   8.543  0.00  0.00     0.078 A 
HETATM   14  O   UNK N   1      31.182  16.386   9.026  0.00  0.00    -0.242 OA
HETATM   15  N   UNK N   1      32.464  16.192   9.115  0.00  0.00    -0.266 N 
HETATM   16  C   UNK N   1      33.065  17.308   8.668  0.00  0.00     0.031 A 
ATOM     17  HN  UNK N   1      32.927  15.349   9.459  1.00  0.00     0.194 HD
HETATM   18  C   UNK N   1      34.536  17.502   8.608  0.00  0.00     0.070 C 
HETATM   19  C   UNK N   1      32.118  18.231   8.289  0.00  0.00     0.061 A 
ENDBRANCH  12  13
ENDBRANCH  11  12
ENDBRANCH  10  11
ENDBRANCH   9  10
ENDBRANCH   1   9
BRANCH   5  20
HETATM   20  C   UNK N   1      23.792  19.879   3.532  0.00  0.00     0.144 A 
HETATM   21  N   UNK N   1      23.521  20.973   2.791  0.00  0.00    -0.266 N 
HETATM   22  N   UNK N   1      22.214  20.936   2.572  0.00  0.00    -0.003 NA
ATOM     23  HN  UNK N   1      24.182  21.680   2.469  1.00  0.00     0.186 HD
HETATM   24  N   UNK N   1      21.715  19.862   3.156  0.00  0.00    -0.221 N 
HETATM   25  N   UNK N   1      22.666  19.178   3.762  0.00  0.00    -0.269 N 
HETATM   26  C   UNK N   1      20.315  19.482   3.143  0.00  0.00     0.197 C 
ATOM     27  HN  UNK N   1      22.570  18.310   4.290  1.00  0.00     0.190 HD
ENDBRANCH   5  20
TORSDOF 6
ENDMDL
MODEL 8
REMARK VINA RESULT:      -7.0      2.355      2.606
REMARK  6 active torsions:
REMARK  status: ('A' for Active; 'I' for Inactive)
REMARK    1  A    between atoms: C_7  and  C_8 
REMARK    2  A    between atoms: C_8  and  C_9 
REMARK    3  A    between atoms: C_9  and  C_10 
REMARK    4  A    between atoms: C_10  and  O_11 
REMARK    5  A    between atoms: O_11  and  C_12 
REMARK    6  A    between atoms: C_16  and  C_20 
ROOT
HETATM    1  C   UNK N   1      29.011  16.667   6.749  0.00  0.00     0.080 A 
HETATM    2  C   UNK N   1      30.123  15.966   6.234  0.00  0.00    -0.027 A 
HETATM    3  C   UNK N   1      29.957  14.999   5.111  0.00  0.00     0.051 C 
HETATM    4  C   UNK N   1      31.403  16.176   6.761  0.00  0.00     0.025 A 
HETATM    5  C   UNK N   1      31.591  17.078   7.812  0.00  0.00     0.011 A 
HETATM    6  C   UNK N   1      30.503  17.770   8.327  0.00  0.00     0.025 A 
HETATM    7  C   UNK N   1      29.223  17.589   7.817  0.00  0.00    -0.027 A 
HETATM    8  C   UNK N   1      28.149  18.412   8.439  0.00  0.00     0.051 C 
ENDROOT
BRANCH   1   9
HETATM    9  O   UNK N   1      27.788  16.428   6.187  0.00  0.00    -0.350 OA
BRANCH   9  10
HETATM   10  C   UNK N   1      27.034  17.317   5.454  0.00  0.00     0.176 C 
BRANCH  10  11
HETATM   11  C   UNK N   1      27.866  17.934   4.339  0.00  0.00     0.033 C 
BRANCH  11  12
HETATM   12  C   UNK N   1      27.289  19.289   3.947  0.00  0.00     0.069 C 
BRANCH  12  13
HETATM   13  C   UNK N   1      27.164  20.222   5.110  0.00  0.00     0.078 A 
HETATM   14  O   UNK N   1      28.139  20.985   5.545  0.00  0.00    -0.242 OA
HETATM   15  N   UNK N   1      27.759  21.674   6.580  0.00  0.00    -0.266 N 
HETATM   16  C   UNK N   1      26.480  21.344   6.827  0.00  0.00     0.031 A 
ATOM     17  HN  UNK N   1      28.327  22.341   7.105  1.00  0.00     0.194 HD
HETATM   18  C   UNK N   1      25.668  21.904   7.936  0.00  0.00     0.070 C 
HETATM   19  C   UNK N   1      26.051  20.413   5.909  0.00  0.00     0.061 A 
ENDBRANCH  12  13
ENDBRANCH  11  12
ENDBRANCH  10  11
ENDBRANCH   9  10
ENDBRANCH   1   9
BRANCH   5  20
HETATM   20  C   UNK N   1      32.919  17.326   8.383  0.00  0.00     0.144 A 
HETATM   21  N   UNK N   1      33.771  18.299   7.999  0.00  0.00    -0.266 N 
HETATM   22  N   UNK N   1      34.836  18.162   8.777  0.00  0.00    -0.003 NA
ATOM     23  HN  UNK N   1      33.627  18.992   7.265  1.00  0.00     0.186 HD
HETATM   24  N   UNK N   1      34.636  17.147   9.599  0.00  0.00    -0.221 N 
HETATM   25  N   UNK N   1      33.454  16.603   9.385  0.00  0.00    -0.269 N 
HETATM   26  C   UNK N   1      35.582  16.686  10.597  0.00  0.00     0.197 C 
ATOM     27  HN  UNK N   1      33.036  15.809   9.871  1.00  0.00     0.190 HD
ENDBRANCH   5  20
TORSDOF 6
ENDMDL
MODEL 9
REMARK VINA RESULT:      -7.0      8.266     12.747
REMARK  6 active torsions:
REMARK  status: ('A' for Active; 'I' for Inactive)
REMARK    1  A    between atoms: C_7  and  C_8 
REMARK    2  A    between atoms: C_8  and  C_9 
REMARK    3  A    between atoms: C_9  and  C_10 
REMARK    4  A    between atoms: C_10  and  O_11 
REMARK    5  A    between atoms: O_11  and  C_12 
REMARK    6  A    between atoms: C_16  and  C_20 
ROOT
HETATM    1  C   UNK N   1      34.807  12.389  15.661  0.00  0.00     0.080 A 
HETATM    2  C   UNK N   1      34.467  11.057  15.339  0.00  0.00    -0.027 A 
HETATM    3  C   UNK N   1      34.074  10.689  13.948  0.00  0.00     0.051 C 
HETATM    4  C   UNK N   1      34.506  10.056  16.317  0.00  0.00     0.025 A 
HETATM    5  C   UNK N   1      34.872  10.368  17.628  0.00  0.00     0.011 A 
HETATM    6  C   UNK N   1      35.206  11.676  17.956  0.00  0.00     0.025 A 
HETATM    7  C   UNK N   1      35.187  12.688  17.004  0.00  0.00    -0.027 A 
HETATM    8  C   UNK N   1      35.592  14.040  17.478  0.00  0.00     0.051 C 
ENDROOT
BRANCH   1   9
HETATM    9  O   UNK N   1      34.761  13.320  14.662  0.00  0.00    -0.350 OA
BRANCH   9  10
HETATM   10  C   UNK N   1      35.822  13.763  13.904  0.00  0.00     0.176 C 
BRANCH  10  11
HETATM   11  C   UNK N   1      35.356  14.160  12.510  0.00  0.00     0.033 C 
BRANCH  11  12
HETATM   12  C   UNK N   1      35.969  15.500  12.117  0.00  0.00     0.069 C 
BRANCH  12  13
HETATM   13  C   UNK N   1      35.309  16.107  10.920  0.00  0.00     0.078 A 
HETATM   14  O   UNK N   1      35.576  17.310  10.469  0.00  0.00    -0.242 OA
HETATM   15  N   UNK N   1      34.840  17.587   9.434  0.00  0.00    -0.266 N 
HETATM   16  C   UNK N   1      34.062  16.516   9.203  0.00  0.00     0.031 A 
ATOM     17  HN  UNK N   1      34.852  18.456   8.897  1.00  0.00     0.194 HD
HETATM   18  C   UNK N   1      33.064  16.424   8.107  0.00  0.00     0.070 C 
HETATM   19  C   UNK N   1      34.325  15.537  10.133  0.00  0.00     0.061 A 
ENDBRANCH  12  13
ENDBRANCH  11  12
ENDBRANCH  10  11
ENDBRANCH   9  10
ENDBRANCH   1   9
BRANCH   5  20
HETATM   20  C   UNK N   1      34.929   9.343  18.676  0.00  0.00     0.144 A 
HETATM   21  N   UNK N   1      36.051   8.881  19.264  0.00  0.00    -0.266 N 
HETATM   22  N   UNK N   1      35.641   7.979  20.146  0.00  0.00    -0.003 NA
ATOM     23  HN  UNK N   1      37.012   9.163  19.071  1.00  0.00     0.186 HD
HETATM   24  N   UNK N   1      34.324   7.900  20.093  0.00  0.00    -0.221 N 
HETATM   25  N   UNK N   1      33.845   8.735  19.191  0.00  0.00    -0.269 N 
HETATM   26  C   UNK N   1      33.510   7.017  20.907  0.00  0.00     0.197 C 
ATOM     27  HN  UNK N   1      32.867   8.886  18.940  1.00  0.00     0.190 HD
ENDBRANCH   5  20
TORSDOF 6
ENDMDL
