REMARK  6 active torsions:
REMARK  status: ('A' for Active; 'I' for Inactive)
REMARK    1  A    between atoms: C_7  and  C_8 
REMARK    2  A    between atoms: C_8  and  C_9 
REMARK    3  A    between atoms: C_9  and  C_10 
REMARK    4  A    between atoms: C_10  and  O_11 
REMARK    5  A    between atoms: O_11  and  C_12 
REMARK    6  A    between atoms: C_16  and  C_20 
ROOT
HETATM    1  C   UNK N   1       0.954   0.731   0.146  0.00  0.00     0.080 A 
HETATM    2  C   UNK N   1       2.212   1.339  -0.053  0.00  0.00    -0.027 A 
HETATM    3  C   UNK N   1       2.326   2.819  -0.197  0.00  0.00     0.051 C 
HETATM    4  C   UNK N   1       3.377   0.564  -0.106  0.00  0.00     0.025 A 
HETATM    5  C   UNK N   1       3.304  -0.825   0.028  0.00  0.00     0.011 A 
HETATM    6  C   UNK N   1       2.070  -1.433   0.222  0.00  0.00     0.025 A 
HETATM    7  C   UNK N   1       0.899  -0.688   0.289  0.00  0.00    -0.027 A 
HETATM    8  C   UNK N   1      -0.353  -1.458   0.528  0.00  0.00     0.051 C 
ENDROOT
BRANCH   1   9
HETATM    9  O   UNK N   1      -0.146   1.540   0.200  0.00  0.00    -0.350 OA
BRANCH   9  10
HETATM   10  C   UNK N   1      -1.446   1.144   0.423  0.00  0.00     0.176 C 
BRANCH  10  11
HETATM   11  C   UNK N   1      -2.054   0.562  -0.845  0.00  0.00     0.033 C 
BRANCH  11  12
HETATM   12  C   UNK N   1      -3.300  -0.247  -0.502  0.00  0.00     0.069 C 
BRANCH  12  13
HETATM   13  C   UNK N   1      -4.490   0.616  -0.224  0.00  0.00     0.078 A 
HETATM   14  O   UNK N   1      -5.687   0.149   0.042  0.00  0.00    -0.242 OA
HETATM   15  N   UNK N   1      -6.532   1.121   0.219  0.00  0.00    -0.266 N 
HETATM   16  C   UNK N   1      -5.852   2.270   0.062  0.00  0.00     0.031 A 
ATOM     17  HN  UNK N   1      -7.525   1.028   0.437  1.00  0.00     0.194 HD
HETATM   18  C   UNK N   1      -6.453   3.623   0.176  0.00  0.00     0.070 C 
HETATM   19  C   UNK N   1      -4.534   1.999  -0.225  0.00  0.00     0.061 A 
ENDBRANCH  12  13
ENDBRANCH  11  12
ENDBRANCH  10  11
ENDBRANCH   9  10
ENDBRANCH   1   9
BRANCH   5  20
HETATM   20  C   UNK N   1       4.505  -1.666  -0.017  0.00  0.00     0.144 A 
HETATM   21  N   UNK N   1       5.772  -1.221  -0.140  0.00  0.00    -0.266 N 
HETATM   22  N   UNK N   1       6.530  -2.309  -0.130  0.00  0.00    -0.003 NA
ATOM     23  HN  UNK N   1       6.082  -0.253  -0.225  1.00  0.00     0.186 HD
HETATM   24  N   UNK N   1       5.752  -3.369  -0.005  0.00  0.00    -0.221 N 
HETATM   25  N   UNK N   1       4.486  -3.009   0.070  0.00  0.00    -0.269 N 
HETATM   26  C   UNK N   1       6.218  -4.742   0.039  0.00  0.00     0.197 C 
ATOM     27  HN  UNK N   1       3.671  -3.615   0.171  1.00  0.00     0.190 HD
ENDBRANCH   5  20
TORSDOF 6
