MODEL 1
REMARK VINA RESULT:      -7.1      0.000      0.000
REMARK  6 active torsions:
REMARK  status: ('A' for Active; 'I' for Inactive)
REMARK    1  A    between atoms: C_7  and  C_8 
REMARK    2  A    between atoms: C_8  and  C_9 
REMARK    3  A    between atoms: C_9  and  C_10 
REMARK    4  A    between atoms: C_10  and  O_11 
REMARK    5  A    between atoms: O_11  and  C_12 
REMARK    6  A    between atoms: C_16  and  N_20 
ROOT
HETATM    1  C   UNK N   1      30.177  16.971   7.940  0.00  0.00     0.080 A 
HETATM    2  C   UNK N   1      29.466  18.126   8.335  0.00  0.00    -0.026 A 
HETATM    3  C   UNK N   1      29.702  18.745   9.672  0.00  0.00     0.051 C 
HETATM    4  C   UNK N   1      28.536  18.719   7.471  0.00  0.00     0.042 A 
HETATM    5  C   UNK N   1      28.294  18.165   6.211  0.00  0.00     0.074 A 
HETATM    6  C   UNK N   1      28.989  17.027   5.817  0.00  0.00     0.042 A 
HETATM    7  C   UNK N   1      29.923  16.426   6.646  0.00  0.00    -0.026 A 
HETATM    8  C   UNK N   1      30.616  15.236   6.082  0.00  0.00     0.051 C 
ENDROOT
BRANCH   1   9
HETATM    9  O   UNK N   1      31.079  16.446   8.820  0.00  0.00    -0.350 OA
BRANCH   9  10
HETATM   10  C   UNK N   1      32.450  16.457   8.691  0.00  0.00     0.176 C 
BRANCH  10  11
HETATM   11  C   UNK N   1      32.946  17.851   8.337  0.00  0.00     0.033 C 
BRANCH  11  12
HETATM   12  C   UNK N   1      34.171  17.754   7.434  0.00  0.00     0.069 C 
BRANCH  12  13
HETATM   13  C   UNK N   1      33.847  17.144   6.108  0.00  0.00     0.078 A 
HETATM   14  O   UNK N   1      34.311  15.988   5.697  0.00  0.00    -0.242 OA
HETATM   15  N   UNK N   1      33.894  15.725   4.494  0.00  0.00    -0.266 N 
HETATM   16  C   UNK N   1      33.121  16.757   4.110  0.00  0.00     0.031 A 
ATOM     17  HN  UNK N   1      34.111  14.894   3.945  1.00  0.00     0.194 HD
HETATM   18  C   UNK N   1      32.453  16.861   2.788  0.00  0.00     0.070 C 
HETATM   19  C   UNK N   1      33.061  17.695   5.112  0.00  0.00     0.061 A 
ENDBRANCH  12  13
ENDBRANCH  11  12
ENDBRANCH  10  11
ENDBRANCH   9  10
ENDBRANCH   1   9
BRANCH   5  20
HETATM   20  N   UNK N   1      27.357  18.748   5.303  0.00  0.00    -0.179 N 
HETATM   21  N   UNK N   1      27.653  19.570   4.308  0.00  0.00     0.002 NA
HETATM   22  N   UNK N   1      26.534  19.896   3.680  0.00  0.00    -0.270 N 
HETATM   23  C   UNK N   1      25.550  19.243   4.330  0.00  0.00     0.106 A 
ATOM     24  HN  UNK N   1      26.437  20.512   2.872  1.00  0.00     0.185 HD
HETATM   25  N   UNK N   1      26.056  18.524   5.343  0.00  0.00    -0.268 N 
HETATM   26  C   UNK N   1      24.107  19.310   3.986  0.00  0.00     0.091 C 
ATOM     27  HN  UNK N   1      25.547  17.933   6.000  1.00  0.00     0.190 HD
ENDBRANCH   5  20
TORSDOF 6
ENDMDL
MODEL 2
REMARK VINA RESULT:      -7.1      2.694      4.707
REMARK  6 active torsions:
REMARK  status: ('A' for Active; 'I' for Inactive)
REMARK    1  A    between atoms: C_7  and  C_8 
REMARK    2  A    between atoms: C_8  and  C_9 
REMARK    3  A    between atoms: C_9  and  C_10 
REMARK    4  A    between atoms: C_10  and  O_11 
REMARK    5  A    between atoms: O_11  and  C_12 
REMARK    6  A    between atoms: C_16  and  N_20 
ROOT
HETATM    1  C   UNK N   1      27.469  18.826   4.726  0.00  0.00     0.080 A 
HETATM    2  C   UNK N   1      26.752  17.924   3.908  0.00  0.00    -0.026 A 
HETATM    3  C   UNK N   1      27.354  16.620   3.505  0.00  0.00     0.051 C 
HETATM    4  C   UNK N   1      25.457  18.233   3.473  0.00  0.00     0.042 A 
HETATM    5  C   UNK N   1      24.864  19.446   3.836  0.00  0.00     0.074 A 
HETATM    6  C   UNK N   1      25.565  20.339   4.639  0.00  0.00     0.042 A 
HETATM    7  C   UNK N   1      26.843  20.054   5.094  0.00  0.00    -0.026 A 
HETATM    8  C   UNK N   1      27.460  21.085   5.973  0.00  0.00     0.051 C 
ENDROOT
BRANCH   1   9
HETATM    9  O   UNK N   1      28.722  18.464   5.128  0.00  0.00    -0.350 OA
BRANCH   9  10
HETATM   10  C   UNK N   1      29.097  18.091   6.400  0.00  0.00     0.176 C 
BRANCH  10  11
HETATM   11  C   UNK N   1      29.270  16.582   6.490  0.00  0.00     0.033 C 
BRANCH  11  12
HETATM   12  C   UNK N   1      30.700  16.198   6.128  0.00  0.00     0.069 C 
BRANCH  12  13
HETATM   13  C   UNK N   1      31.696  16.764   7.089  0.00  0.00     0.078 A 
HETATM   14  O   UNK N   1      31.605  16.655   8.393  0.00  0.00    -0.242 OA
HETATM   15  N   UNK N   1      32.588  17.272   8.977  0.00  0.00    -0.266 N 
HETATM   16  C   UNK N   1      33.354  17.802   8.006  0.00  0.00     0.031 A 
ATOM     17  HN  UNK N   1      32.750  17.341   9.981  1.00  0.00     0.194 HD
HETATM   18  C   UNK N   1      34.580  18.603   8.246  0.00  0.00     0.070 C 
HETATM   19  C   UNK N   1      32.821  17.504   6.775  0.00  0.00     0.061 A 
ENDBRANCH  12  13
ENDBRANCH  11  12
ENDBRANCH  10  11
ENDBRANCH   9  10
ENDBRANCH   1   9
BRANCH   5  20
HETATM   20  N   UNK N   1      23.543  19.790   3.415  0.00  0.00    -0.179 N 
HETATM   21  N   UNK N   1      23.191  20.917   2.816  0.00  0.00     0.002 NA
HETATM   22  N   UNK N   1      21.890  20.878   2.569  0.00  0.00    -0.270 N 
HETATM   23  C   UNK N   1      21.467  19.689   3.040  0.00  0.00     0.106 A 
ATOM     24  HN  UNK N   1      21.327  21.599   2.116  1.00  0.00     0.185 HD
HETATM   25  N   UNK N   1      22.492  19.004   3.568  0.00  0.00    -0.268 N 
HETATM   26  C   UNK N   1      20.066  19.199   2.993  0.00  0.00     0.091 C 
ATOM     27  HN  UNK N   1      22.467  18.077   3.994  1.00  0.00     0.190 HD
ENDBRANCH   5  20
TORSDOF 6
ENDMDL
MODEL 3
REMARK VINA RESULT:      -7.1      9.038     11.997
REMARK  6 active torsions:
REMARK  status: ('A' for Active; 'I' for Inactive)
REMARK    1  A    between atoms: C_7  and  C_8 
REMARK    2  A    between atoms: C_8  and  C_9 
REMARK    3  A    between atoms: C_9  and  C_10 
REMARK    4  A    between atoms: C_10  and  O_11 
REMARK    5  A    between atoms: O_11  and  C_12 
REMARK    6  A    between atoms: C_16  and  N_20 
ROOT
HETATM    1  C   UNK N   1      35.101  12.605  13.792  0.00  0.00     0.080 A 
HETATM    2  C   UNK N   1      35.788  13.571  14.561  0.00  0.00    -0.026 A 
HETATM    3  C   UNK N   1      36.448  14.737  13.903  0.00  0.00     0.051 C 
HETATM    4  C   UNK N   1      35.848  13.459  15.955  0.00  0.00     0.042 A 
HETATM    5  C   UNK N   1      35.237  12.381  16.601  0.00  0.00     0.074 A 
HETATM    6  C   UNK N   1      34.562  11.424  15.850  0.00  0.00     0.042 A 
HETATM    7  C   UNK N   1      34.476  11.516  14.470  0.00  0.00    -0.026 A 
HETATM    8  C   UNK N   1      33.693  10.443  13.799  0.00  0.00     0.051 C 
ENDROOT
BRANCH   1   9
HETATM    9  O   UNK N   1      35.067  12.774  12.438  0.00  0.00    -0.350 OA
BRANCH   9  10
HETATM   10  C   UNK N   1      35.915  12.197  11.519  0.00  0.00     0.176 C 
BRANCH  10  11
HETATM   11  C   UNK N   1      36.056  13.078  10.287  0.00  0.00     0.033 C 
BRANCH  11  12
HETATM   12  C   UNK N   1      34.697  13.649   9.897  0.00  0.00     0.069 C 
BRANCH  12  13
HETATM   13  C   UNK N   1      34.729  15.138   9.763  0.00  0.00     0.078 A 
HETATM   14  O   UNK N   1      34.924  15.963  10.765  0.00  0.00    -0.242 OA
HETATM   15  N   UNK N   1      34.865  17.197  10.364  0.00  0.00    -0.266 N 
HETATM   16  C   UNK N   1      34.624  17.171   9.040  0.00  0.00     0.031 A 
ATOM     17  HN  UNK N   1      34.980  18.029  10.942  1.00  0.00     0.194 HD
HETATM   18  C   UNK N   1      34.469  18.378   8.190  0.00  0.00     0.070 C 
HETATM   19  C   UNK N   1      34.526  15.870   8.608  0.00  0.00     0.061 A 
ENDBRANCH  12  13
ENDBRANCH  11  12
ENDBRANCH  10  11
ENDBRANCH   9  10
ENDBRANCH   1   9
BRANCH   5  20
HETATM   20  N   UNK N   1      35.275  12.239  18.022  0.00  0.00    -0.179 N 
HETATM   21  N   UNK N   1      35.315  13.232  18.897  0.00  0.00     0.002 NA
HETATM   22  N   UNK N   1      35.331  12.720  20.119  0.00  0.00    -0.270 N 
HETATM   23  C   UNK N   1      35.300  11.383  19.952  0.00  0.00     0.106 A 
ATOM     24  HN  UNK N   1      35.360  13.232  21.002  1.00  0.00     0.185 HD
HETATM   25  N   UNK N   1      35.264  11.075  18.648  0.00  0.00    -0.268 N 
HETATM   26  C   UNK N   1      35.313  10.384  21.051  0.00  0.00     0.091 C 
ATOM     27  HN  UNK N   1      35.234  10.146  18.229  1.00  0.00     0.190 HD
ENDBRANCH   5  20
TORSDOF 6
ENDMDL
MODEL 4
REMARK VINA RESULT:      -7.0      9.035     12.079
REMARK  6 active torsions:
REMARK  status: ('A' for Active; 'I' for Inactive)
REMARK    1  A    between atoms: C_7  and  C_8 
REMARK    2  A    between atoms: C_8  and  C_9 
REMARK    3  A    between atoms: C_9  and  C_10 
REMARK    4  A    between atoms: C_10  and  O_11 
REMARK    5  A    between atoms: O_11  and  C_12 
REMARK    6  A    between atoms: C_16  and  N_20 
ROOT
HETATM    1  C   UNK N   1      35.114  12.592  13.778  0.00  0.00     0.080 A 
HETATM    2  C   UNK N   1      34.482  11.497  14.406  0.00  0.00    -0.026 A 
HETATM    3  C   UNK N   1      33.771  10.463  13.597  0.00  0.00     0.051 C 
HETATM    4  C   UNK N   1      34.522  11.354  15.799  0.00  0.00     0.042 A 
HETATM    5  C   UNK N   1      35.182  12.304  16.583  0.00  0.00     0.074 A 
HETATM    6  C   UNK N   1      35.805  13.386  15.972  0.00  0.00     0.042 A 
HETATM    7  C   UNK N   1      35.791  13.546  14.595  0.00  0.00    -0.026 A 
HETATM    8  C   UNK N   1      36.527  14.731  14.076  0.00  0.00     0.051 C 
ENDROOT
BRANCH   1   9
HETATM    9  O   UNK N   1      35.051  12.671  12.416  0.00  0.00    -0.350 OA
BRANCH   9  10
HETATM   10  C   UNK N   1      36.083  12.438  11.534  0.00  0.00     0.176 C 
BRANCH  10  11
HETATM   11  C   UNK N   1      35.724  12.934  10.142  0.00  0.00     0.033 C 
BRANCH  11  12
HETATM   12  C   UNK N   1      34.394  13.678  10.180  0.00  0.00     0.069 C 
BRANCH  12  13
HETATM   13  C   UNK N   1      34.563  15.147   9.958  0.00  0.00     0.078 A 
HETATM   14  O   UNK N   1      34.924  15.995  10.892  0.00  0.00    -0.242 OA
HETATM   15  N   UNK N   1      34.955  17.208  10.426  0.00  0.00    -0.266 N 
HETATM   16  C   UNK N   1      34.601  17.141   9.130  0.00  0.00     0.031 A 
ATOM     17  HN  UNK N   1      35.201  18.050  10.944  1.00  0.00     0.194 HD
HETATM   18  C   UNK N   1      34.497  18.314   8.225  0.00  0.00     0.070 C 
HETATM   19  C   UNK N   1      34.337  15.838   8.783  0.00  0.00     0.061 A 
ENDBRANCH  12  13
ENDBRANCH  11  12
ENDBRANCH  10  11
ENDBRANCH   9  10
ENDBRANCH   1   9
BRANCH   5  20
HETATM   20  N   UNK N   1      35.248  12.186  18.006  0.00  0.00    -0.179 N 
HETATM   21  N   UNK N   1      35.285  13.193  18.864  0.00  0.00     0.002 NA
HETATM   22  N   UNK N   1      35.334  12.701  20.093  0.00  0.00    -0.270 N 
HETATM   23  C   UNK N   1      35.325  11.361  19.948  0.00  0.00     0.106 A 
ATOM     24  HN  UNK N   1      35.369  13.227  20.967  1.00  0.00     0.185 HD
HETATM   25  N   UNK N   1      35.270  11.032  18.649  0.00  0.00    -0.268 N 
HETATM   26  C   UNK N   1      35.376  10.380  21.062  0.00  0.00     0.091 C 
ATOM     27  HN  UNK N   1      35.249  10.096  18.246  1.00  0.00     0.190 HD
ENDBRANCH   5  20
TORSDOF 6
ENDMDL
MODEL 5
REMARK VINA RESULT:      -7.0      3.364      7.428
REMARK  6 active torsions:
REMARK  status: ('A' for Active; 'I' for Inactive)
REMARK    1  A    between atoms: C_7  and  C_8 
REMARK    2  A    between atoms: C_8  and  C_9 
REMARK    3  A    between atoms: C_9  and  C_10 
REMARK    4  A    between atoms: C_10  and  O_11 
REMARK    5  A    between atoms: O_11  and  C_12 
REMARK    6  A    between atoms: C_16  and  N_20 
ROOT
HETATM    1  C   UNK N   1      31.162  17.300   6.009  0.00  0.00     0.080 A 
HETATM    2  C   UNK N   1      30.715  17.139   7.340  0.00  0.00    -0.026 A 
HETATM    3  C   UNK N   1      29.256  17.103   7.653  0.00  0.00     0.051 C 
HETATM    4  C   UNK N   1      31.634  16.994   8.387  0.00  0.00     0.042 A 
HETATM    5  C   UNK N   1      33.006  17.020   8.126  0.00  0.00     0.074 A 
HETATM    6  C   UNK N   1      33.454  17.181   6.819  0.00  0.00     0.042 A 
HETATM    7  C   UNK N   1      32.567  17.315   5.762  0.00  0.00    -0.026 A 
HETATM    8  C   UNK N   1      33.185  17.445   4.414  0.00  0.00     0.051 C 
ENDROOT
BRANCH   1   9
HETATM    9  O   UNK N   1      30.219  17.424   5.030  0.00  0.00    -0.350 OA
BRANCH   9  10
HETATM   10  C   UNK N   1      29.799  16.435   4.169  0.00  0.00     0.176 C 
BRANCH  10  11
HETATM   11  C   UNK N   1      28.558  16.875   3.406  0.00  0.00     0.033 C 
BRANCH  11  12
HETATM   12  C   UNK N   1      27.408  17.117   4.377  0.00  0.00     0.069 C 
BRANCH  12  13
HETATM   13  C   UNK N   1      27.141  18.573   4.585  0.00  0.00     0.078 A 
HETATM   14  O   UNK N   1      26.901  19.423   3.614  0.00  0.00    -0.242 OA
HETATM   15  N   UNK N   1      26.742  20.624   4.084  0.00  0.00    -0.266 N 
HETATM   16  C   UNK N   1      26.881  20.548   5.420  0.00  0.00     0.031 A 
ATOM     17  HN  UNK N   1      26.547  21.466   3.542  1.00  0.00     0.194 HD
HETATM   18  C   UNK N   1      26.785  21.707   6.342  0.00  0.00     0.070 C 
HETATM   19  C   UNK N   1      27.141  19.251   5.790  0.00  0.00     0.061 A 
ENDBRANCH  12  13
ENDBRANCH  11  12
ENDBRANCH  10  11
ENDBRANCH   9  10
ENDBRANCH   1   9
BRANCH   5  20
HETATM   20  N   UNK N   1      33.971  16.869   9.169  0.00  0.00    -0.179 N 
HETATM   21  N   UNK N   1      34.950  17.716   9.445  0.00  0.00     0.002 NA
HETATM   22  N   UNK N   1      35.634  17.251  10.480  0.00  0.00    -0.270 N 
HETATM   23  C   UNK N   1      35.034  16.094  10.820  0.00  0.00     0.106 A 
ATOM     24  HN  UNK N   1      36.445  17.682  10.927  1.00  0.00     0.185 HD
HETATM   25  N   UNK N   1      33.995  15.849  10.008  0.00  0.00    -0.268 N 
HETATM   26  C   UNK N   1      35.461  15.204  11.930  0.00  0.00     0.091 C 
ATOM     27  HN  UNK N   1      33.362  15.050  10.033  1.00  0.00     0.190 HD
ENDBRANCH   5  20
TORSDOF 6
ENDMDL
MODEL 6
REMARK VINA RESULT:      -6.9      3.204      7.810
REMARK  6 active torsions:
REMARK  status: ('A' for Active; 'I' for Inactive)
REMARK    1  A    between atoms: C_7  and  C_8 
REMARK    2  A    between atoms: C_8  and  C_9 
REMARK    3  A    between atoms: C_9  and  C_10 
REMARK    4  A    between atoms: C_10  and  O_11 
REMARK    5  A    between atoms: O_11  and  C_12 
REMARK    6  A    between atoms: C_16  and  N_20 
ROOT
HETATM    1  C   UNK N   1      31.172  17.322   5.894  0.00  0.00     0.080 A 
HETATM    2  C   UNK N   1      32.558  17.286   5.621  0.00  0.00    -0.026 A 
HETATM    3  C   UNK N   1      33.062  17.431   4.224  0.00  0.00     0.051 C 
HETATM    4  C   UNK N   1      33.484  17.127   6.660  0.00  0.00     0.042 A 
HETATM    5  C   UNK N   1      33.044  16.991   7.979  0.00  0.00     0.074 A 
HETATM    6  C   UNK N   1      31.681  17.023   8.255  0.00  0.00     0.042 A 
HETATM    7  C   UNK N   1      30.743  17.191   7.248  0.00  0.00    -0.026 A 
HETATM    8  C   UNK N   1      29.323  17.241   7.692  0.00  0.00     0.051 C 
ENDROOT
BRANCH   1   9
HETATM    9  O   UNK N   1      30.319  17.490   4.842  0.00  0.00    -0.350 OA
BRANCH   9  10
HETATM   10  C   UNK N   1      29.585  16.506   4.218  0.00  0.00     0.176 C 
BRANCH  10  11
HETATM   11  C   UNK N   1      28.122  16.909   4.114  0.00  0.00     0.033 C 
BRANCH  11  12
HETATM   12  C   UNK N   1      27.975  18.407   4.353  0.00  0.00     0.069 C 
BRANCH  12  13
HETATM   13  C   UNK N   1      26.556  18.861   4.236  0.00  0.00     0.078 A 
HETATM   14  O   UNK N   1      25.572  18.396   4.970  0.00  0.00    -0.242 OA
HETATM   15  N   UNK N   1      24.444  18.944   4.628  0.00  0.00    -0.266 N 
HETATM   16  C   UNK N   1      24.710  19.805   3.629  0.00  0.00     0.031 A 
ATOM     17  HN  UNK N   1      23.530  18.757   5.038  1.00  0.00     0.194 HD
HETATM   18  C   UNK N   1      23.689  20.633   2.938  0.00  0.00     0.070 C 
HETATM   19  C   UNK N   1      26.053  19.786   3.340  0.00  0.00     0.061 A 
ENDBRANCH  12  13
ENDBRANCH  11  12
ENDBRANCH  10  11
ENDBRANCH   9  10
ENDBRANCH   1   9
BRANCH   5  20
HETATM   20  N   UNK N   1      33.962  16.834   9.063  0.00  0.00    -0.179 N 
HETATM   21  N   UNK N   1      34.910  17.693   9.403  0.00  0.00     0.002 NA
HETATM   22  N   UNK N   1      35.554  17.217  10.459  0.00  0.00    -0.270 N 
HETATM   23  C   UNK N   1      34.962  16.041  10.745  0.00  0.00     0.106 A 
ATOM     24  HN  UNK N   1      36.335  17.651  10.952  1.00  0.00     0.185 HD
HETATM   25  N   UNK N   1      33.967  15.795   9.879  0.00  0.00    -0.268 N 
HETATM   26  C   UNK N   1      35.354  15.133  11.853  0.00  0.00     0.091 C 
ATOM     27  HN  UNK N   1      33.349  14.985   9.857  1.00  0.00     0.190 HD
ENDBRANCH   5  20
TORSDOF 6
ENDMDL
MODEL 7
REMARK VINA RESULT:      -6.9      2.705      4.611
REMARK  6 active torsions:
REMARK  status: ('A' for Active; 'I' for Inactive)
REMARK    1  A    between atoms: C_7  and  C_8 
REMARK    2  A    between atoms: C_8  and  C_9 
REMARK    3  A    between atoms: C_9  and  C_10 
REMARK    4  A    between atoms: C_10  and  O_11 
REMARK    5  A    between atoms: O_11  and  C_12 
REMARK    6  A    between atoms: C_16  and  N_20 
ROOT
HETATM    1  C   UNK N   1      27.163  18.830   4.600  0.00  0.00     0.080 A 
HETATM    2  C   UNK N   1      26.652  20.103   4.939  0.00  0.00    -0.026 A 
HETATM    3  C   UNK N   1      27.479  21.072   5.716  0.00  0.00     0.051 C 
HETATM    4  C   UNK N   1      25.365  20.483   4.539  0.00  0.00     0.042 A 
HETATM    5  C   UNK N   1      24.567  19.599   3.807  0.00  0.00     0.074 A 
HETATM    6  C   UNK N   1      25.062  18.344   3.472  0.00  0.00     0.042 A 
HETATM    7  C   UNK N   1      26.336  17.946   3.844  0.00  0.00    -0.026 A 
HETATM    8  C   UNK N   1      26.748  16.590   3.388  0.00  0.00     0.051 C 
ENDROOT
BRANCH   1   9
HETATM    9  O   UNK N   1      28.429  18.521   5.007  0.00  0.00    -0.350 OA
BRANCH   9  10
HETATM   10  C   UNK N   1      28.777  17.582   5.952  0.00  0.00     0.176 C 
BRANCH  10  11
HETATM   11  C   UNK N   1      28.922  18.224   7.324  0.00  0.00     0.033 C 
BRANCH  11  12
HETATM   12  C   UNK N   1      29.552  17.236   8.298  0.00  0.00     0.069 C 
BRANCH  12  13
HETATM   13  C   UNK N   1      31.038  17.168   8.151  0.00  0.00     0.078 A 
HETATM   14  O   UNK N   1      31.697  16.076   7.841  0.00  0.00    -0.242 OA
HETATM   15  N   UNK N   1      32.976  16.303   7.817  0.00  0.00    -0.266 N 
HETATM   16  C   UNK N   1      33.154  17.601   8.123  0.00  0.00     0.031 A 
ATOM     17  HN  UNK N   1      33.708  15.625   7.606  1.00  0.00     0.194 HD
HETATM   18  C   UNK N   1      34.476  18.269   8.218  0.00  0.00     0.070 C 
HETATM   19  C   UNK N   1      31.937  18.199   8.348  0.00  0.00     0.061 A 
ENDBRANCH  12  13
ENDBRANCH  11  12
ENDBRANCH  10  11
ENDBRANCH   9  10
ENDBRANCH   1   9
BRANCH   5  20
HETATM   20  N   UNK N   1      23.252  19.957   3.378  0.00  0.00    -0.179 N 
HETATM   21  N   UNK N   1      22.898  21.124   2.862  0.00  0.00     0.002 NA
HETATM   22  N   UNK N   1      21.605  21.086   2.576  0.00  0.00    -0.270 N 
HETATM   23  C   UNK N   1      21.189  19.856   2.937  0.00  0.00     0.106 A 
ATOM     24  HN  UNK N   1      21.042  21.833   2.166  1.00  0.00     0.185 HD
HETATM   25  N   UNK N   1      22.211  19.146   3.437  0.00  0.00    -0.268 N 
HETATM   26  C   UNK N   1      19.798  19.352   2.810  0.00  0.00     0.091 C 
ATOM     27  HN  UNK N   1      22.189  18.188   3.786  1.00  0.00     0.190 HD
ENDBRANCH   5  20
TORSDOF 6
ENDMDL
MODEL 8
REMARK VINA RESULT:      -6.9      3.312      8.021
REMARK  6 active torsions:
REMARK  status: ('A' for Active; 'I' for Inactive)
REMARK    1  A    between atoms: C_7  and  C_8 
REMARK    2  A    between atoms: C_8  and  C_9 
REMARK    3  A    between atoms: C_9  and  C_10 
REMARK    4  A    between atoms: C_10  and  O_11 
REMARK    5  A    between atoms: O_11  and  C_12 
REMARK    6  A    between atoms: C_16  and  N_20 
ROOT
HETATM    1  C   UNK N   1      29.237  17.786   6.398  0.00  0.00     0.080 A 
HETATM    2  C   UNK N   1      29.415  17.911   7.794  0.00  0.00    -0.026 A 
HETATM    3  C   UNK N   1      28.311  18.422   8.658  0.00  0.00     0.051 C 
HETATM    4  C   UNK N   1      30.627  17.545   8.392  0.00  0.00     0.042 A 
HETATM    5  C   UNK N   1      31.679  17.061   7.610  0.00  0.00     0.074 A 
HETATM    6  C   UNK N   1      31.512  16.937   6.235  0.00  0.00     0.042 A 
HETATM    7  C   UNK N   1      30.319  17.281   5.617  0.00  0.00    -0.026 A 
HETATM    8  C   UNK N   1      30.269  17.064   4.146  0.00  0.00     0.051 C 
ENDROOT
BRANCH   1   9
HETATM    9  O   UNK N   1      28.029  18.148   5.874  0.00  0.00    -0.350 OA
BRANCH   9  10
HETATM   10  C   UNK N   1      27.737  19.332   5.233  0.00  0.00     0.176 C 
BRANCH  10  11
HETATM   11  C   UNK N   1      26.973  19.072   3.944  0.00  0.00     0.033 C 
BRANCH  11  12
HETATM   12  C   UNK N   1      26.251  20.340   3.502  0.00  0.00     0.069 C 
BRANCH  12  13
HETATM   13  C   UNK N   1      24.778  20.127   3.352  0.00  0.00     0.078 A 
HETATM   14  O   UNK N   1      23.997  20.884   2.618  0.00  0.00    -0.242 OA
HETATM   15  N   UNK N   1      22.762  20.488   2.701  0.00  0.00    -0.266 N 
HETATM   16  C   UNK N   1      22.743  19.425   3.525  0.00  0.00     0.031 A 
ATOM     17  HN  UNK N   1      21.959  20.904   2.232  1.00  0.00     0.194 HD
HETATM   18  C   UNK N   1      21.518  18.675   3.903  0.00  0.00     0.070 C 
HETATM   19  C   UNK N   1      24.015  19.155   3.970  0.00  0.00     0.061 A 
ENDBRANCH  12  13
ENDBRANCH  11  12
ENDBRANCH  10  11
ENDBRANCH   9  10
ENDBRANCH   1   9
BRANCH   5  20
HETATM   20  N   UNK N   1      32.927  16.673   8.189  0.00  0.00    -0.179 N 
HETATM   21  N   UNK N   1      33.863  15.949   7.595  0.00  0.00     0.002 NA
HETATM   22  N   UNK N   1      34.877  15.798   8.433  0.00  0.00    -0.270 N 
HETATM   23  C   UNK N   1      34.523  16.456   9.554  0.00  0.00     0.106 A 
ATOM     24  HN  UNK N   1      35.747  15.291   8.263  1.00  0.00     0.185 HD
HETATM   25  N   UNK N   1      33.308  17.005   9.410  0.00  0.00    -0.268 N 
HETATM   26  C   UNK N   1      35.349  16.557  10.784  0.00  0.00     0.091 C 
ATOM     27  HN  UNK N   1      32.791  17.559  10.092  1.00  0.00     0.190 HD
ENDBRANCH   5  20
TORSDOF 6
ENDMDL
MODEL 9
REMARK VINA RESULT:      -6.9      8.390     11.386
REMARK  6 active torsions:
REMARK  status: ('A' for Active; 'I' for Inactive)
REMARK    1  A    between atoms: C_7  and  C_8 
REMARK    2  A    between atoms: C_8  and  C_9 
REMARK    3  A    between atoms: C_9  and  C_10 
REMARK    4  A    between atoms: C_10  and  O_11 
REMARK    5  A    between atoms: O_11  and  C_12 
REMARK    6  A    between atoms: C_16  and  N_20 
ROOT
HETATM    1  C   UNK N   1      35.584  13.010  12.653  0.00  0.00     0.080 A 
HETATM    2  C   UNK N   1      34.997  12.747  11.396  0.00  0.00    -0.026 A 
HETATM    3  C   UNK N   1      34.575  11.364  11.028  0.00  0.00     0.051 C 
HETATM    4  C   UNK N   1      34.787  13.784  10.478  0.00  0.00     0.042 A 
HETATM    5  C   UNK N   1      35.168  15.090  10.794  0.00  0.00     0.074 A 
HETATM    6  C   UNK N   1      35.749  15.356  12.029  0.00  0.00     0.042 A 
HETATM    7  C   UNK N   1      35.958  14.352  12.961  0.00  0.00    -0.026 A 
HETATM    8  C   UNK N   1      36.557  14.785  14.253  0.00  0.00     0.051 C 
ENDROOT
BRANCH   1   9
HETATM    9  O   UNK N   1      35.752  11.961  13.511  0.00  0.00    -0.350 OA
BRANCH   9  10
HETATM   10  C   UNK N   1      34.882  11.568  14.503  0.00  0.00     0.176 C 
BRANCH  10  11
HETATM   11  C   UNK N   1      35.596  11.481  15.844  0.00  0.00     0.033 C 
BRANCH  11  12
HETATM   12  C   UNK N   1      35.046  12.535  16.797  0.00  0.00     0.069 C 
BRANCH  12  13
HETATM   13  C   UNK N   1      35.357  12.221  18.225  0.00  0.00     0.078 A 
HETATM   14  O   UNK N   1      35.325  13.104  19.196  0.00  0.00    -0.242 OA
HETATM   15  N   UNK N   1      35.673  12.560  20.324  0.00  0.00    -0.266 N 
HETATM   16  C   UNK N   1      35.940  11.266  20.073  0.00  0.00     0.031 A 
ATOM     17  HN  UNK N   1      35.733  13.026  21.229  1.00  0.00     0.194 HD
HETATM   18  C   UNK N   1      36.388  10.286  21.094  0.00  0.00     0.070 C 
HETATM   19  C   UNK N   1      35.753  11.000  18.738  0.00  0.00     0.061 A 
ENDBRANCH  12  13
ENDBRANCH  11  12
ENDBRANCH  10  11
ENDBRANCH   9  10
ENDBRANCH   1   9
BRANCH   5  20
HETATM   20  N   UNK N   1      34.963  16.172   9.883  0.00  0.00    -0.179 N 
HETATM   21  N   UNK N   1      35.309  17.433  10.090  0.00  0.00     0.002 NA
HETATM   22  N   UNK N   1      34.970  18.146   9.026  0.00  0.00    -0.270 N 
HETATM   23  C   UNK N   1      34.407  17.272   8.169  0.00  0.00     0.106 A 
ATOM     24  HN  UNK N   1      35.109  19.148   8.885  1.00  0.00     0.185 HD
HETATM   25  N   UNK N   1      34.400  16.039   8.695  0.00  0.00    -0.268 N 
HETATM   26  C   UNK N   1      33.861  17.618   6.832  0.00  0.00     0.091 C 
ATOM     27  HN  UNK N   1      34.039  15.185   8.272  1.00  0.00     0.190 HD
ENDBRANCH   5  20
TORSDOF 6
ENDMDL
