REMARK  6 active torsions:
REMARK  status: ('A' for Active; 'I' for Inactive)
REMARK    1  A    between atoms: C_7  and  C_8 
REMARK    2  A    between atoms: C_8  and  C_9 
REMARK    3  A    between atoms: C_9  and  C_10 
REMARK    4  A    between atoms: C_10  and  O_11 
REMARK    5  A    between atoms: O_11  and  C_12 
REMARK    6  A    between atoms: C_16  and  N_20 
ROOT
HETATM    1  C   UNK N   1       0.955   0.743   0.133  0.00  0.00     0.080 A 
HETATM    2  C   UNK N   1       2.219   1.345  -0.055  0.00  0.00    -0.026 A 
HETATM    3  C   UNK N   1       2.343   2.826  -0.191  0.00  0.00     0.051 C 
HETATM    4  C   UNK N   1       3.380   0.563  -0.103  0.00  0.00     0.042 A 
HETATM    5  C   UNK N   1       3.297  -0.826   0.024  0.00  0.00     0.074 A 
HETATM    6  C   UNK N   1       2.056  -1.426   0.207  0.00  0.00     0.042 A 
HETATM    7  C   UNK N   1       0.892  -0.676   0.270  0.00  0.00    -0.026 A 
HETATM    8  C   UNK N   1      -0.360  -1.446   0.504  0.00  0.00     0.051 C 
ENDROOT
BRANCH   1   9
HETATM    9  O   UNK N   1      -0.139   1.558   0.183  0.00  0.00    -0.350 OA
BRANCH   9  10
HETATM   10  C   UNK N   1      -1.440   1.168   0.412  0.00  0.00     0.176 C 
BRANCH  10  11
HETATM   11  C   UNK N   1      -2.040   0.534  -0.834  0.00  0.00     0.033 C 
BRANCH  11  12
HETATM   12  C   UNK N   1      -3.274  -0.280  -0.462  0.00  0.00     0.069 C 
BRANCH  12  13
HETATM   13  C   UNK N   1      -4.463   0.587  -0.198  0.00  0.00     0.078 A 
HETATM   14  O   UNK N   1      -5.672   0.129   0.028  0.00  0.00    -0.242 OA
HETATM   15  N   UNK N   1      -6.512   1.107   0.189  0.00  0.00    -0.266 N 
HETATM   16  C   UNK N   1      -5.815   2.251   0.065  0.00  0.00     0.031 A 
ATOM     17  HN  UNK N   1      -7.511   1.024   0.375  1.00  0.00     0.194 HD
HETATM   18  C   UNK N   1      -6.404   3.610   0.168  0.00  0.00     0.070 C 
HETATM   19  C   UNK N   1      -4.494   1.969  -0.186  0.00  0.00     0.061 A 
ENDBRANCH  12  13
ENDBRANCH  11  12
ENDBRANCH  10  11
ENDBRANCH   9  10
ENDBRANCH   1   9
BRANCH   5  20
HETATM   20  N   UNK N   1       4.462  -1.653  -0.014  0.00  0.00    -0.179 N 
HETATM   21  N   UNK N   1       5.711  -1.225  -0.113  0.00  0.00     0.002 NA
HETATM   22  N   UNK N   1       6.520  -2.274  -0.109  0.00  0.00    -0.270 N 
HETATM   23  C   UNK N   1       5.717  -3.351  -0.005  0.00  0.00     0.106 A 
ATOM     24  HN  UNK N   1       7.539  -2.267  -0.171  1.00  0.00     0.185 HD
HETATM   25  N   UNK N   1       4.432  -2.972   0.056  0.00  0.00    -0.268 N 
HETATM   26  C   UNK N   1       6.179  -4.762   0.030  0.00  0.00     0.091 C 
ATOM     27  HN  UNK N   1       3.611  -3.571   0.139  1.00  0.00     0.190 HD
ENDBRANCH   5  20
TORSDOF 6
