MODEL 1
REMARK VINA RESULT:      -7.3      0.000      0.000
REMARK  6 active torsions:
REMARK  status: ('A' for Active; 'I' for Inactive)
REMARK    1  A    between atoms: C_7  and  C_8 
REMARK    2  A    between atoms: C_8  and  C_9 
REMARK    3  A    between atoms: C_9  and  C_10 
REMARK    4  A    between atoms: C_10  and  O_11 
REMARK    5  A    between atoms: O_11  and  C_12 
REMARK    6  A    between atoms: C_16  and  C_20 
ROOT
HETATM    1  C   UNK N   1      29.290  17.704   6.724  0.00  0.00     0.080 A 
HETATM    2  C   UNK N   1      29.439  17.991   8.097  0.00  0.00    -0.027 A 
HETATM    3  C   UNK N   1      28.257  18.358   8.930  0.00  0.00     0.051 C 
HETATM    4  C   UNK N   1      30.698  17.930   8.706  0.00  0.00     0.023 A 
HETATM    5  C   UNK N   1      31.827  17.589   7.955  0.00  0.00    -0.006 A 
HETATM    6  C   UNK N   1      31.691  17.305   6.600  0.00  0.00     0.023 A 
HETATM    7  C   UNK N   1      30.451  17.350   5.973  0.00  0.00    -0.027 A 
HETATM    8  C   UNK N   1      30.435  16.998   4.526  0.00  0.00     0.051 C 
ENDROOT
BRANCH   1   9
HETATM    9  O   UNK N   1      28.035  17.775   6.188  0.00  0.00    -0.350 OA
BRANCH   9  10
HETATM   10  C   UNK N   1      27.446  18.882   5.618  0.00  0.00     0.176 C 
BRANCH  10  11
HETATM   11  C   UNK N   1      26.828  18.525   4.274  0.00  0.00     0.033 C 
BRANCH  11  12
HETATM   12  C   UNK N   1      26.382  19.792   3.553  0.00  0.00     0.069 C 
BRANCH  12  13
HETATM   13  C   UNK N   1      24.898  19.872   3.382  0.00  0.00     0.078 A 
HETATM   14  O   UNK N   1      24.291  20.794   2.670  0.00  0.00    -0.242 OA
HETATM   15  N   UNK N   1      23.004  20.633   2.708  0.00  0.00    -0.266 N 
HETATM   16  C   UNK N   1      22.762  19.557   3.478  0.00  0.00     0.031 A 
ATOM     17  HN  UNK N   1      22.307  21.213   2.240  1.00  0.00     0.194 HD
HETATM   18  C   UNK N   1      21.406  19.033   3.785  0.00  0.00     0.070 C 
HETATM   19  C   UNK N   1      23.948  19.033   3.936  0.00  0.00     0.061 A 
ENDBRANCH  12  13
ENDBRANCH  11  12
ENDBRANCH  10  11
ENDBRANCH   9  10
ENDBRANCH   1   9
BRANCH   5  20
HETATM   20  C   UNK N   1      33.162  17.512   8.563  0.00  0.00     0.066 A 
HETATM   21  C   UNK N   1      34.277  18.259   8.231  0.00  0.00     0.174 A 
HETATM   22  O   UNK N   1      35.243  17.863   9.029  0.00  0.00    -0.308 OA
HETATM   23  C   UNK N   1      34.767  16.923   9.813  0.00  0.00     0.119 A 
HETATM   24  N   UNK N   1      33.474  16.668   9.564  0.00  0.00    -0.338 N 
HETATM   25  C   UNK N   1      35.559  16.215  10.854  0.00  0.00     0.098 C 
ATOM     26  HN  UNK N   1      32.867  15.992  10.026  1.00  0.00     0.168 HD
ENDBRANCH   5  20
TORSDOF 6
ENDMDL
MODEL 2
REMARK VINA RESULT:      -7.3      2.402      8.010
REMARK  6 active torsions:
REMARK  status: ('A' for Active; 'I' for Inactive)
REMARK    1  A    between atoms: C_7  and  C_8 
REMARK    2  A    between atoms: C_8  and  C_9 
REMARK    3  A    between atoms: C_9  and  C_10 
REMARK    4  A    between atoms: C_10  and  O_11 
REMARK    5  A    between atoms: O_11  and  C_12 
REMARK    6  A    between atoms: C_16  and  C_20 
ROOT
HETATM    1  C   UNK N   1      30.087  17.098   8.011  0.00  0.00     0.080 A 
HETATM    2  C   UNK N   1      29.431  18.242   8.511  0.00  0.00    -0.027 A 
HETATM    3  C   UNK N   1      29.759  18.776   9.865  0.00  0.00     0.051 C 
HETATM    4  C   UNK N   1      28.466  18.904   7.743  0.00  0.00     0.023 A 
HETATM    5  C   UNK N   1      28.135  18.432   6.469  0.00  0.00    -0.006 A 
HETATM    6  C   UNK N   1      28.776  17.304   5.967  0.00  0.00     0.023 A 
HETATM    7  C   UNK N   1      29.745  16.634   6.705  0.00  0.00    -0.027 A 
HETATM    8  C   UNK N   1      30.375  15.457   6.045  0.00  0.00     0.051 C 
ENDROOT
BRANCH   1   9
HETATM    9  O   UNK N   1      31.024  16.500   8.805  0.00  0.00    -0.350 OA
BRANCH   9  10
HETATM   10  C   UNK N   1      32.381  16.442   8.574  0.00  0.00     0.176 C 
BRANCH  10  11
HETATM   11  C   UNK N   1      32.937  17.833   8.308  0.00  0.00     0.033 C 
BRANCH  11  12
HETATM   12  C   UNK N   1      34.140  17.743   7.376  0.00  0.00     0.069 C 
BRANCH  12  13
HETATM   13  C   UNK N   1      33.797  17.168   6.038  0.00  0.00     0.078 A 
HETATM   14  O   UNK N   1      34.276  16.033   5.583  0.00  0.00    -0.242 OA
HETATM   15  N   UNK N   1      33.824  15.786   4.391  0.00  0.00    -0.266 N 
HETATM   16  C   UNK N   1      33.015  16.806   4.055  0.00  0.00     0.031 A 
ATOM     17  HN  UNK N   1      34.043  14.971   3.818  1.00  0.00     0.194 HD
HETATM   18  C   UNK N   1      32.296  16.915   2.759  0.00  0.00     0.070 C 
HETATM   19  C   UNK N   1      32.965  17.722   5.080  0.00  0.00     0.061 A 
ENDBRANCH  12  13
ENDBRANCH  11  12
ENDBRANCH  10  11
ENDBRANCH   9  10
ENDBRANCH   1   9
BRANCH   5  20
HETATM   20  C   UNK N   1      27.129  19.104   5.635  0.00  0.00     0.066 A 
HETATM   21  C   UNK N   1      27.205  20.373   5.094  0.00  0.00     0.174 A 
HETATM   22  O   UNK N   1      26.091  20.559   4.421  0.00  0.00    -0.308 OA
HETATM   23  C   UNK N   1      25.359  19.475   4.534  0.00  0.00     0.119 A 
HETATM   24  N   UNK N   1      25.961  18.537   5.281  0.00  0.00    -0.338 N 
HETATM   25  C   UNK N   1      24.017  19.298   3.917  0.00  0.00     0.098 C 
ATOM     26  HN  UNK N   1      25.616  17.609   5.523  1.00  0.00     0.168 HD
ENDBRANCH   5  20
TORSDOF 6
ENDMDL
MODEL 3
REMARK VINA RESULT:      -7.2      0.306      1.799
REMARK  6 active torsions:
REMARK  status: ('A' for Active; 'I' for Inactive)
REMARK    1  A    between atoms: C_7  and  C_8 
REMARK    2  A    between atoms: C_8  and  C_9 
REMARK    3  A    between atoms: C_9  and  C_10 
REMARK    4  A    between atoms: C_10  and  O_11 
REMARK    5  A    between atoms: O_11  and  C_12 
REMARK    6  A    between atoms: C_16  and  C_20 
ROOT
HETATM    1  C   UNK N   1      29.348  17.717   6.541  0.00  0.00     0.080 A 
HETATM    2  C   UNK N   1      30.490  17.301   5.824  0.00  0.00    -0.027 A 
HETATM    3  C   UNK N   1      30.394  16.956   4.376  0.00  0.00     0.051 C 
HETATM    4  C   UNK N   1      31.735  17.212   6.456  0.00  0.00     0.023 A 
HETATM    5  C   UNK N   1      31.861  17.529   7.812  0.00  0.00    -0.006 A 
HETATM    6  C   UNK N   1      30.741  17.940   8.527  0.00  0.00     0.023 A 
HETATM    7  C   UNK N   1      29.495  18.046   7.922  0.00  0.00    -0.027 A 
HETATM    8  C   UNK N   1      28.382  18.522   8.790  0.00  0.00     0.051 C 
ENDROOT
BRANCH   1   9
HETATM    9  O   UNK N   1      28.162  17.790   5.868  0.00  0.00    -0.350 OA
BRANCH   9  10
HETATM   10  C   UNK N   1      27.634  18.903   5.251  0.00  0.00     0.176 C 
BRANCH  10  11
HETATM   11  C   UNK N   1      26.357  18.544   4.505  0.00  0.00     0.033 C 
BRANCH  11  12
HETATM   12  C   UNK N   1      25.954  19.689   3.582  0.00  0.00     0.069 C 
BRANCH  12  13
HETATM   13  C   UNK N   1      24.474  19.785   3.387  0.00  0.00     0.078 A 
HETATM   14  O   UNK N   1      23.889  20.709   2.660  0.00  0.00    -0.242 OA
HETATM   15  N   UNK N   1      22.599  20.564   2.679  0.00  0.00    -0.266 N 
HETATM   16  C   UNK N   1      22.332  19.496   3.453  0.00  0.00     0.031 A 
ATOM     17  HN  UNK N   1      21.916  21.149   2.197  1.00  0.00     0.194 HD
HETATM   18  C   UNK N   1      20.965  18.990   3.741  0.00  0.00     0.070 C 
HETATM   19  C   UNK N   1      23.504  18.961   3.932  0.00  0.00     0.061 A 
ENDBRANCH  12  13
ENDBRANCH  11  12
ENDBRANCH  10  11
ENDBRANCH   9  10
ENDBRANCH   1   9
BRANCH   5  20
HETATM   20  C   UNK N   1      33.154  17.450   8.505  0.00  0.00     0.066 A 
HETATM   21  C   UNK N   1      34.272  18.230   8.281  0.00  0.00     0.174 A 
HETATM   22  O   UNK N   1      35.191  17.817   9.125  0.00  0.00    -0.308 OA
HETATM   23  C   UNK N   1      34.683  16.836   9.836  0.00  0.00     0.119 A 
HETATM   24  N   UNK N   1      33.415  16.569   9.489  0.00  0.00    -0.338 N 
HETATM   25  C   UNK N   1      35.418  16.099  10.898  0.00  0.00     0.098 C 
ATOM     26  HN  UNK N   1      32.792  15.863   9.880  1.00  0.00     0.168 HD
ENDBRANCH   5  20
TORSDOF 6
ENDMDL
MODEL 4
REMARK VINA RESULT:      -7.1      7.392     11.633
REMARK  6 active torsions:
REMARK  status: ('A' for Active; 'I' for Inactive)
REMARK    1  A    between atoms: C_7  and  C_8 
REMARK    2  A    between atoms: C_8  and  C_9 
REMARK    3  A    between atoms: C_9  and  C_10 
REMARK    4  A    between atoms: C_10  and  O_11 
REMARK    5  A    between atoms: O_11  and  C_12 
REMARK    6  A    between atoms: C_16  and  C_20 
ROOT
HETATM    1  C   UNK N   1      35.016  12.575  13.307  0.00  0.00     0.080 A 
HETATM    2  C   UNK N   1      35.668  13.590  14.038  0.00  0.00    -0.027 A 
HETATM    3  C   UNK N   1      36.276  14.760  13.339  0.00  0.00     0.051 C 
HETATM    4  C   UNK N   1      35.750  13.524  15.434  0.00  0.00     0.023 A 
HETATM    5  C   UNK N   1      35.190  12.442  16.121  0.00  0.00    -0.006 A 
HETATM    6  C   UNK N   1      34.545  11.436  15.409  0.00  0.00     0.023 A 
HETATM    7  C   UNK N   1      34.442  11.483  14.024  0.00  0.00    -0.027 A 
HETATM    8  C   UNK N   1      33.705  10.359  13.382  0.00  0.00     0.051 C 
ENDROOT
BRANCH   1   9
HETATM    9  O   UNK N   1      34.964  12.700  11.947  0.00  0.00    -0.350 OA
BRANCH   9  10
HETATM   10  C   UNK N   1      35.887  12.224  11.043  0.00  0.00     0.176 C 
BRANCH  10  11
HETATM   11  C   UNK N   1      35.732  12.927   9.702  0.00  0.00     0.033 C 
BRANCH  11  12
HETATM   12  C   UNK N   1      36.571  14.201   9.683  0.00  0.00     0.069 C 
BRANCH  12  13
HETATM   13  C   UNK N   1      35.740  15.443   9.626  0.00  0.00     0.078 A 
HETATM   14  O   UNK N   1      35.889  16.462  10.441  0.00  0.00    -0.242 OA
HETATM   15  N   UNK N   1      35.026  17.395  10.176  0.00  0.00    -0.266 N 
HETATM   16  C   UNK N   1      34.281  16.964   9.142  0.00  0.00     0.031 A 
ATOM     17  HN  UNK N   1      34.930  18.288  10.662  1.00  0.00     0.194 HD
HETATM   18  C   UNK N   1      33.169  17.736   8.530  0.00  0.00     0.070 C 
HETATM   19  C   UNK N   1      34.701  15.714   8.752  0.00  0.00     0.061 A 
ENDBRANCH  12  13
ENDBRANCH  11  12
ENDBRANCH  10  11
ENDBRANCH   9  10
ENDBRANCH   1   9
BRANCH   5  20
HETATM   20  C   UNK N   1      35.254  12.343  17.585  0.00  0.00     0.066 A 
HETATM   21  C   UNK N   1      35.192  13.379  18.497  0.00  0.00     0.174 A 
HETATM   22  O   UNK N   1      35.284  12.833  19.690  0.00  0.00    -0.308 OA
HETATM   23  C   UNK N   1      35.399  11.534  19.537  0.00  0.00     0.119 A 
HETATM   24  N   UNK N   1      35.385  11.177  18.244  0.00  0.00    -0.338 N 
HETATM   25  C   UNK N   1      35.534  10.564  20.657  0.00  0.00     0.098 C 
ATOM     26  HN  UNK N   1      35.456  10.238  17.851  1.00  0.00     0.168 HD
ENDBRANCH   5  20
TORSDOF 6
ENDMDL
MODEL 5
REMARK VINA RESULT:      -7.0      4.360      6.139
REMARK  6 active torsions:
REMARK  status: ('A' for Active; 'I' for Inactive)
REMARK    1  A    between atoms: C_7  and  C_8 
REMARK    2  A    between atoms: C_8  and  C_9 
REMARK    3  A    between atoms: C_9  and  C_10 
REMARK    4  A    between atoms: C_10  and  O_11 
REMARK    5  A    between atoms: O_11  and  C_12 
REMARK    6  A    between atoms: C_16  and  C_20 
ROOT
HETATM    1  C   UNK N   1      30.469  17.226   5.306  0.00  0.00     0.080 A 
HETATM    2  C   UNK N   1      30.149  17.174   6.679  0.00  0.00    -0.027 A 
HETATM    3  C   UNK N   1      28.731  17.044   7.125  0.00  0.00     0.051 C 
HETATM    4  C   UNK N   1      31.156  17.235   7.649  0.00  0.00     0.023 A 
HETATM    5  C   UNK N   1      32.496  17.355   7.266  0.00  0.00    -0.006 A 
HETATM    6  C   UNK N   1      32.821  17.408   5.914  0.00  0.00     0.023 A 
HETATM    7  C   UNK N   1      31.841  17.341   4.931  0.00  0.00    -0.027 A 
HETATM    8  C   UNK N   1      32.321  17.381   3.522  0.00  0.00     0.051 C 
ENDROOT
BRANCH   1   9
HETATM    9  O   UNK N   1      29.442  17.156   4.407  0.00  0.00    -0.350 OA
BRANCH   9  10
HETATM   10  C   UNK N   1      29.221  16.155   3.488  0.00  0.00     0.176 C 
BRANCH  10  11
HETATM   11  C   UNK N   1      29.145  14.802   4.180  0.00  0.00     0.033 C 
BRANCH  11  12
HETATM   12  C   UNK N   1      30.136  13.835   3.542  0.00  0.00     0.069 C 
BRANCH  12  13
HETATM   13  C   UNK N   1      31.458  13.810   4.243  0.00  0.00     0.078 A 
HETATM   14  O   UNK N   1      32.616  13.794   3.623  0.00  0.00    -0.242 OA
HETATM   15  N   UNK N   1      33.595  13.758   4.475  0.00  0.00    -0.266 N 
HETATM   16  C   UNK N   1      33.050  13.751   5.705  0.00  0.00     0.031 A 
ATOM     17  HN  UNK N   1      34.591  13.738   4.253  1.00  0.00     0.194 HD
HETATM   18  C   UNK N   1      33.830  13.708   6.968  0.00  0.00     0.070 C 
HETATM   19  C   UNK N   1      31.678  13.784   5.609  0.00  0.00     0.061 A 
ENDBRANCH  12  13
ENDBRANCH  11  12
ENDBRANCH  10  11
ENDBRANCH   9  10
ENDBRANCH   1   9
BRANCH   5  20
HETATM   20  C   UNK N   1      33.578  17.418   8.257  0.00  0.00     0.066 A 
HETATM   21  C   UNK N   1      34.595  18.351   8.326  0.00  0.00     0.174 A 
HETATM   22  O   UNK N   1      35.330  18.026   9.367  0.00  0.00    -0.308 OA
HETATM   23  C   UNK N   1      34.809  16.954   9.917  0.00  0.00     0.119 A 
HETATM   24  N   UNK N   1      33.714  16.535   9.263  0.00  0.00    -0.338 N 
HETATM   25  C   UNK N   1      35.360  16.273  11.119  0.00  0.00     0.098 C 
ATOM     26  HN  UNK N   1      33.122  15.734   9.479  1.00  0.00     0.168 HD
ENDBRANCH   5  20
TORSDOF 6
ENDMDL
MODEL 6
REMARK VINA RESULT:      -6.9      7.830     12.869
REMARK  6 active torsions:
REMARK  status: ('A' for Active; 'I' for Inactive)
REMARK    1  A    between atoms: C_7  and  C_8 
REMARK    2  A    between atoms: C_8  and  C_9 
REMARK    3  A    between atoms: C_9  and  C_10 
REMARK    4  A    between atoms: C_10  and  O_11 
REMARK    5  A    between atoms: O_11  and  C_12 
REMARK    6  A    between atoms: C_16  and  C_20 
ROOT
HETATM    1  C   UNK N   1      34.846  12.373  15.553  0.00  0.00     0.080 A 
HETATM    2  C   UNK N   1      35.199  12.608  16.898  0.00  0.00    -0.027 A 
HETATM    3  C   UNK N   1      35.567  13.978  17.359  0.00  0.00     0.051 C 
HETATM    4  C   UNK N   1      35.202  11.562  17.828  0.00  0.00     0.023 A 
HETATM    5  C   UNK N   1      34.860  10.266  17.430  0.00  0.00    -0.006 A 
HETATM    6  C   UNK N   1      34.512  10.024  16.106  0.00  0.00     0.023 A 
HETATM    7  C   UNK N   1      34.492  11.046  15.164  0.00  0.00    -0.027 A 
HETATM    8  C   UNK N   1      34.076  10.663  13.787  0.00  0.00     0.051 C 
ENDROOT
BRANCH   1   9
HETATM    9  O   UNK N   1      34.856  13.436  14.694  0.00  0.00    -0.350 OA
BRANCH   9  10
HETATM   10  C   UNK N   1      35.884  13.804  13.854  0.00  0.00     0.176 C 
BRANCH  10  11
HETATM   11  C   UNK N   1      35.341  14.201  12.489  0.00  0.00     0.033 C 
BRANCH  11  12
HETATM   12  C   UNK N   1      36.003  15.492  12.021  0.00  0.00     0.069 C 
BRANCH  12  13
HETATM   13  C   UNK N   1      35.310  16.109  10.847  0.00  0.00     0.078 A 
HETATM   14  O   UNK N   1      35.543  17.327  10.416  0.00  0.00    -0.242 OA
HETATM   15  N   UNK N   1      34.791  17.607   9.396  0.00  0.00    -0.266 N 
HETATM   16  C   UNK N   1      34.034  16.522   9.152  0.00  0.00     0.031 A 
ATOM     17  HN  UNK N   1      34.777  18.486   8.877  1.00  0.00     0.194 HD
HETATM   18  C   UNK N   1      33.027  16.430   8.063  0.00  0.00     0.070 C 
HETATM   19  C   UNK N   1      34.330  15.532  10.058  0.00  0.00     0.061 A 
ENDBRANCH  12  13
ENDBRANCH  11  12
ENDBRANCH  10  11
ENDBRANCH   9  10
ENDBRANCH   1   9
BRANCH   5  20
HETATM   20  C   UNK N   1      34.850   9.145  18.381  0.00  0.00     0.066 A 
HETATM   21  C   UNK N   1      35.875   8.256  18.636  0.00  0.00     0.174 A 
HETATM   22  O   UNK N   1      35.431   7.427  19.554  0.00  0.00    -0.308 OA
HETATM   23  C   UNK N   1      34.201   7.772  19.857  0.00  0.00     0.119 A 
HETATM   24  N   UNK N   1      33.791   8.839  19.153  0.00  0.00    -0.338 N 
HETATM   25  C   UNK N   1      33.352   7.070  20.855  0.00  0.00     0.098 C 
ATOM     26  HN  UNK N   1      32.888   9.309  19.195  1.00  0.00     0.168 HD
ENDBRANCH   5  20
TORSDOF 6
ENDMDL
MODEL 7
REMARK VINA RESULT:      -6.9      2.230      9.875
REMARK  6 active torsions:
REMARK  status: ('A' for Active; 'I' for Inactive)
REMARK    1  A    between atoms: C_7  and  C_8 
REMARK    2  A    between atoms: C_8  and  C_9 
REMARK    3  A    between atoms: C_9  and  C_10 
REMARK    4  A    between atoms: C_10  and  O_11 
REMARK    5  A    between atoms: O_11  and  C_12 
REMARK    6  A    between atoms: C_16  and  C_20 
ROOT
HETATM    1  C   UNK N   1      31.477  17.191   6.386  0.00  0.00     0.080 A 
HETATM    2  C   UNK N   1      30.359  17.383   7.225  0.00  0.00    -0.027 A 
HETATM    3  C   UNK N   1      30.476  17.205   8.701  0.00  0.00     0.051 C 
HETATM    4  C   UNK N   1      29.120  17.751   6.688  0.00  0.00     0.023 A 
HETATM    5  C   UNK N   1      28.974  17.926   5.308  0.00  0.00    -0.006 A 
HETATM    6  C   UNK N   1      30.071  17.739   4.473  0.00  0.00     0.023 A 
HETATM    7  C   UNK N   1      31.314  17.382   4.981  0.00  0.00    -0.027 A 
HETATM    8  C   UNK N   1      32.413  17.239   3.987  0.00  0.00     0.051 C 
ENDROOT
BRANCH   1   9
HETATM    9  O   UNK N   1      32.661  16.838   6.970  0.00  0.00    -0.350 OA
BRANCH   9  10
HETATM   10  C   UNK N   1      33.784  17.625   7.091  0.00  0.00     0.176 C 
BRANCH  10  11
HETATM   11  C   UNK N   1      34.322  17.573   8.513  0.00  0.00     0.033 C 
BRANCH  11  12
HETATM   12  C   UNK N   1      33.881  16.280   9.190  0.00  0.00     0.069 C 
BRANCH  12  13
HETATM   13  C   UNK N   1      34.823  15.835  10.264  0.00  0.00     0.078 A 
HETATM   14  O   UNK N   1      36.052  16.277  10.390  0.00  0.00    -0.242 OA
HETATM   15  N   UNK N   1      36.646  15.711  11.396  0.00  0.00    -0.266 N 
HETATM   16  C   UNK N   1      35.762  14.861  11.950  0.00  0.00     0.031 A 
ATOM     17  HN  UNK N   1      37.603  15.878  11.708  1.00  0.00     0.194 HD
HETATM   18  C   UNK N   1      36.047  14.006  13.131  0.00  0.00     0.070 C 
HETATM   19  C   UNK N   1      34.574  14.904  11.258  0.00  0.00     0.061 A 
ENDBRANCH  12  13
ENDBRANCH  11  12
ENDBRANCH  10  11
ENDBRANCH   9  10
ENDBRANCH   1   9
BRANCH   5  20
HETATM   20  C   UNK N   1      27.689  18.316   4.712  0.00  0.00     0.066 A 
HETATM   21  C   UNK N   1      26.477  17.666   4.840  0.00  0.00     0.174 A 
HETATM   22  O   UNK N   1      25.604  18.363   4.146  0.00  0.00    -0.308 OA
HETATM   23  C   UNK N   1      26.230  19.386   3.613  0.00  0.00     0.119 A 
HETATM   24  N   UNK N   1      27.532  19.404   3.936  0.00  0.00    -0.338 N 
HETATM   25  C   UNK N   1      25.583  20.409   2.747  0.00  0.00     0.098 C 
ATOM     26  HN  UNK N   1      28.239  20.084   3.658  1.00  0.00     0.168 HD
ENDBRANCH   5  20
TORSDOF 6
ENDMDL
MODEL 8
REMARK VINA RESULT:      -6.8      8.659     13.869
REMARK  6 active torsions:
REMARK  status: ('A' for Active; 'I' for Inactive)
REMARK    1  A    between atoms: C_7  and  C_8 
REMARK    2  A    between atoms: C_8  and  C_9 
REMARK    3  A    between atoms: C_9  and  C_10 
REMARK    4  A    between atoms: C_10  and  O_11 
REMARK    5  A    between atoms: O_11  and  C_12 
REMARK    6  A    between atoms: C_16  and  C_20 
ROOT
HETATM    1  C   UNK N   1      35.135  12.468  16.860  0.00  0.00     0.080 A 
HETATM    2  C   UNK N   1      35.282  13.181  18.068  0.00  0.00    -0.027 A 
HETATM    3  C   UNK N   1      35.416  14.667  18.062  0.00  0.00     0.051 C 
HETATM    4  C   UNK N   1      35.297  12.509  19.296  0.00  0.00     0.023 A 
HETATM    5  C   UNK N   1      35.172  11.117  19.338  0.00  0.00    -0.006 A 
HETATM    6  C   UNK N   1      35.028  10.405  18.152  0.00  0.00     0.023 A 
HETATM    7  C   UNK N   1      35.001  11.048  16.920  0.00  0.00    -0.027 A 
HETATM    8  C   UNK N   1      34.814  10.176  15.728  0.00  0.00     0.051 C 
ENDROOT
BRANCH   1   9
HETATM    9  O   UNK N   1      35.123  13.180  15.694  0.00  0.00    -0.350 OA
BRANCH   9  10
HETATM   10  C   UNK N   1      36.156  13.298  14.792  0.00  0.00     0.176 C 
BRANCH  10  11
HETATM   11  C   UNK N   1      35.616  13.536  13.389  0.00  0.00     0.033 C 
BRANCH  11  12
HETATM   12  C   UNK N   1      36.143  14.859  12.846  0.00  0.00     0.069 C 
BRANCH  12  13
HETATM   13  C   UNK N   1      35.329  15.386  11.706  0.00  0.00     0.078 A 
HETATM   14  O   UNK N   1      34.125  14.957  11.405  0.00  0.00    -0.242 OA
HETATM   15  N   UNK N   1      33.662  15.577  10.363  0.00  0.00    -0.266 N 
HETATM   16  C   UNK N   1      34.606  16.449   9.968  0.00  0.00     0.031 A 
ATOM     17  HN  UNK N   1      32.751  15.429   9.926  1.00  0.00     0.194 HD
HETATM   18  C   UNK N   1      34.474  17.356   8.799  0.00  0.00     0.070 C 
HETATM   19  C   UNK N   1      35.698  16.365  10.799  0.00  0.00     0.061 A 
ENDBRANCH  12  13
ENDBRANCH  11  12
ENDBRANCH  10  11
ENDBRANCH   9  10
ENDBRANCH   1   9
BRANCH   5  20
HETATM   20  C   UNK N   1      35.180  10.381  20.609  0.00  0.00     0.066 A 
HETATM   21  C   UNK N   1      36.282   9.902  21.291  0.00  0.00     0.174 A 
HETATM   22  O   UNK N   1      35.825   9.314  22.374  0.00  0.00    -0.308 OA
HETATM   23  C   UNK N   1      34.515   9.414  22.373  0.00  0.00     0.119 A 
HETATM   24  N   UNK N   1      34.064  10.071  21.294  0.00  0.00    -0.338 N 
HETATM   25  C   UNK N   1      33.629   8.864  23.432  0.00  0.00     0.098 C 
ATOM     26  HN  UNK N   1      33.098  10.288  21.049  1.00  0.00     0.168 HD
ENDBRANCH   5  20
TORSDOF 6
ENDMDL
MODEL 9
REMARK VINA RESULT:      -6.8      2.157      2.922
REMARK  6 active torsions:
REMARK  status: ('A' for Active; 'I' for Inactive)
REMARK    1  A    between atoms: C_7  and  C_8 
REMARK    2  A    between atoms: C_8  and  C_9 
REMARK    3  A    between atoms: C_9  and  C_10 
REMARK    4  A    between atoms: C_10  and  O_11 
REMARK    5  A    between atoms: O_11  and  C_12 
REMARK    6  A    between atoms: C_16  and  C_20 
ROOT
HETATM    1  C   UNK N   1      29.360  17.542   6.665  0.00  0.00     0.080 A 
HETATM    2  C   UNK N   1      30.503  17.170   5.927  0.00  0.00    -0.027 A 
HETATM    3  C   UNK N   1      30.390  16.796   4.488  0.00  0.00     0.051 C 
HETATM    4  C   UNK N   1      31.766  17.152   6.530  0.00  0.00     0.023 A 
HETATM    5  C   UNK N   1      31.909  17.497   7.877  0.00  0.00    -0.006 A 
HETATM    6  C   UNK N   1      30.787  17.865   8.614  0.00  0.00     0.023 A 
HETATM    7  C   UNK N   1      29.523  17.900   8.038  0.00  0.00    -0.027 A 
HETATM    8  C   UNK N   1      28.409  18.336   8.924  0.00  0.00     0.051 C 
ENDROOT
BRANCH   1   9
HETATM    9  O   UNK N   1      28.155  17.546   6.020  0.00  0.00    -0.350 OA
BRANCH   9  10
HETATM   10  C   UNK N   1      27.554  18.623   5.409  0.00  0.00     0.176 C 
BRANCH  10  11
HETATM   11  C   UNK N   1      26.582  18.155   4.336  0.00  0.00     0.033 C 
BRANCH  11  12
HETATM   12  C   UNK N   1      26.175  16.709   4.598  0.00  0.00     0.069 C 
BRANCH  12  13
HETATM   13  C   UNK N   1      24.829  16.591   5.240  0.00  0.00     0.078 A 
HETATM   14  O   UNK N   1      23.933  17.551   5.246  0.00  0.00    -0.242 OA
HETATM   15  N   UNK N   1      22.866  17.182   5.886  0.00  0.00    -0.266 N 
HETATM   16  C   UNK N   1      23.076  15.925   6.315  0.00  0.00     0.031 A 
ATOM     17  HN  UNK N   1      22.025  17.742   6.036  1.00  0.00     0.194 HD
HETATM   18  C   UNK N   1      22.095  15.131   7.100  0.00  0.00     0.070 C 
HETATM   19  C   UNK N   1      24.324  15.499   5.926  0.00  0.00     0.061 A 
ENDBRANCH  12  13
ENDBRANCH  11  12
ENDBRANCH  10  11
ENDBRANCH   9  10
ENDBRANCH   1   9
BRANCH   5  20
HETATM   20  C   UNK N   1      33.220  17.493   8.540  0.00  0.00     0.066 A 
HETATM   21  C   UNK N   1      34.299  18.311   8.264  0.00  0.00     0.174 A 
HETATM   22  O   UNK N   1      35.254  17.962   9.098  0.00  0.00    -0.308 OA
HETATM   23  C   UNK N   1      34.805  16.984   9.850  0.00  0.00     0.119 A 
HETATM   24  N   UNK N   1      33.541  16.655   9.543  0.00  0.00    -0.338 N 
HETATM   25  C   UNK N   1      35.595  16.311  10.914  0.00  0.00     0.098 C 
ATOM     26  HN  UNK N   1      32.957  15.936   9.970  1.00  0.00     0.168 HD
ENDBRANCH   5  20
TORSDOF 6
ENDMDL
