MODEL 1
REMARK VINA RESULT:      -6.7      0.000      0.000
REMARK  3 active torsions:
REMARK  status: ('A' for Active; 'I' for Inactive)
REMARK    1  A    between atoms: C_3  and  C_4 
REMARK    2  A    between atoms: C_4  and  C_5 
REMARK    3  A    between atoms: C_5  and  O_6 
ROOT
HETATM    1  O   UNK N   1      34.578  17.941   6.781  0.00  0.00    -0.271 OA
HETATM    2  C   UNK N   1      33.462  17.562   7.096  0.00  0.00     0.243 C 
HETATM    3  C   UNK N   1      33.175  17.471   8.609  0.00  0.00     0.184 C 
HETATM    4  N   UNK N   1      32.556  17.291   6.094  0.00  0.00    -0.350 N 
HETATM    5  C   UNK N   1      32.993  17.425   4.721  0.00  0.00     0.153 C 
HETATM    6  C   UNK N   1      31.223  16.766   6.279  0.00  0.00     0.166 C 
HETATM    7  C   UNK N   1      30.321  17.460   7.251  0.00  0.00    -0.014 A 
HETATM    8  C   UNK N   1      30.650  17.449   8.602  0.00  0.00     0.036 A 
HETATM    9  N   UNK N   1      31.894  16.942   9.019  0.00  0.00    -0.376 N 
HETATM   10  C   UNK N   1      29.050  17.899   6.850  0.00  0.00     0.011 A 
HETATM   11  C   UNK N   1      28.115  18.316   7.808  0.00  0.00     0.001 A 
HETATM   12  C   UNK N   1      28.436  18.258   9.167  0.00  0.00     0.002 A 
HETATM   13  C   UNK N   1      29.704  17.825   9.562  0.00  0.00     0.030 A 
HETATM   14  H   UNK N   1      31.892  16.173   9.633  0.00  0.00     0.160 HD
ENDROOT
BRANCH   3  15
HETATM   15  C   UNK N   1      34.213  16.608   9.341  0.00  0.00     0.144 C 
BRANCH  15  16
HETATM   16  C   UNK N   1      33.736  15.258   9.786  0.00  0.00     0.141 C 
HETATM   17  O   UNK N   1      33.615  14.357   8.974  0.00  0.00    -0.650 OA
BRANCH  16  18
HETATM   18  O   UNK N   1      33.321  15.075  11.054  0.00  0.00    -0.776 OA
HETATM   19  H   UNK N   1      32.859  14.342  11.411  0.00  0.00     0.167 HD
ENDBRANCH  16  18
ENDBRANCH  15  16
ENDBRANCH   3  15
TORSDOF 3
ENDMDL
MODEL 2
REMARK VINA RESULT:      -6.0     13.502     15.334
REMARK  3 active torsions:
REMARK  status: ('A' for Active; 'I' for Inactive)
REMARK    1  A    between atoms: C_3  and  C_4 
REMARK    2  A    between atoms: C_4  and  C_5 
REMARK    3  A    between atoms: C_5  and  O_6 
ROOT
HETATM    1  O   UNK N   1      29.209  22.786  -5.765  0.00  0.00    -0.271 OA
HETATM    2  C   UNK N   1      28.236  23.392  -5.348  0.00  0.00     0.243 C 
HETATM    3  C   UNK N   1      28.382  24.040  -3.956  0.00  0.00     0.184 C 
HETATM    4  N   UNK N   1      27.124  23.480  -6.157  0.00  0.00    -0.350 N 
HETATM    5  C   UNK N   1      27.154  22.808  -7.438  0.00  0.00     0.153 C 
HETATM    6  C   UNK N   1      25.865  24.091  -5.799  0.00  0.00     0.166 C 
HETATM    7  C   UNK N   1      25.888  25.485  -5.254  0.00  0.00    -0.014 A 
HETATM    8  C   UNK N   1      26.496  25.716  -4.024  0.00  0.00     0.036 A 
HETATM    9  N   UNK N   1      27.221  24.690  -3.393  0.00  0.00    -0.376 N 
HETATM   10  C   UNK N   1      25.105  26.489  -5.841  0.00  0.00     0.011 A 
HETATM   11  C   UNK N   1      24.931  27.718  -5.188  0.00  0.00     0.001 A 
HETATM   12  C   UNK N   1      25.505  27.927  -3.931  0.00  0.00     0.002 A 
HETATM   13  C   UNK N   1      26.288  26.926  -3.351  0.00  0.00     0.030 A 
HETATM   14  H   UNK N   1      26.917  24.394  -2.505  0.00  0.00     0.160 HD
ENDROOT
BRANCH   3  15
HETATM   15  C   UNK N   1      28.822  23.024  -2.892  0.00  0.00     0.144 C 
BRANCH  15  16
HETATM   16  C   UNK N   1      30.268  23.079  -2.501  0.00  0.00     0.141 C 
HETATM   17  O   UNK N   1      30.588  22.954  -1.331  0.00  0.00    -0.650 OA
BRANCH  16  18
HETATM   18  O   UNK N   1      31.203  23.393  -3.419  0.00  0.00    -0.776 OA
HETATM   19  H   UNK N   1      31.322  24.206  -3.868  0.00  0.00     0.167 HD
ENDBRANCH  16  18
ENDBRANCH  15  16
ENDBRANCH   3  15
TORSDOF 3
ENDMDL
MODEL 3
REMARK VINA RESULT:      -5.7      6.353      9.431
REMARK  3 active torsions:
REMARK  status: ('A' for Active; 'I' for Inactive)
REMARK    1  A    between atoms: C_3  and  C_4 
REMARK    2  A    between atoms: C_4  and  C_5 
REMARK    3  A    between atoms: C_5  and  O_6 
ROOT
HETATM    1  O   UNK N   1      35.138  12.121  11.527  0.00  0.00    -0.271 OA
HETATM    2  C   UNK N   1      35.592  12.231  12.654  0.00  0.00     0.243 C 
HETATM    3  C   UNK N   1      35.425  13.610  13.324  0.00  0.00     0.184 C 
HETATM    4  N   UNK N   1      36.168  11.124  13.239  0.00  0.00    -0.350 N 
HETATM    5  C   UNK N   1      36.246   9.903  12.465  0.00  0.00     0.153 C 
HETATM    6  C   UNK N   1      36.818  11.091  14.528  0.00  0.00     0.166 C 
HETATM    7  C   UNK N   1      36.073  11.636  15.706  0.00  0.00    -0.014 A 
HETATM    8  C   UNK N   1      35.779  12.995  15.747  0.00  0.00     0.036 A 
HETATM    9  N   UNK N   1      36.028  13.803  14.623  0.00  0.00    -0.376 N 
HETATM   10  C   UNK N   1      35.890  10.852  16.855  0.00  0.00     0.011 A 
HETATM   11  C   UNK N   1      35.422  11.438  18.039  0.00  0.00     0.001 A 
HETATM   12  C   UNK N   1      35.173  12.812  18.087  0.00  0.00     0.002 A 
HETATM   13  C   UNK N   1      35.352  13.589  16.940  0.00  0.00     0.030 A 
HETATM   14  H   UNK N   1      36.657  14.552  14.729  0.00  0.00     0.160 HD
ENDROOT
BRANCH   3  15
HETATM   15  C   UNK N   1      35.987  14.744  12.454  0.00  0.00     0.144 C 
BRANCH  15  16
HETATM   16  C   UNK N   1      34.991  15.450  11.585  0.00  0.00     0.141 C 
HETATM   17  O   UNK N   1      35.243  16.560  11.147  0.00  0.00    -0.650 OA
BRANCH  16  18
HETATM   18  O   UNK N   1      33.769  14.917  11.391  0.00  0.00    -0.776 OA
HETATM   19  H   UNK N   1      33.518  14.016  11.433  0.00  0.00     0.167 HD
ENDBRANCH  16  18
ENDBRANCH  15  16
ENDBRANCH   3  15
TORSDOF 3
ENDMDL
MODEL 4
REMARK VINA RESULT:      -5.6      8.729     10.629
REMARK  3 active torsions:
REMARK  status: ('A' for Active; 'I' for Inactive)
REMARK    1  A    between atoms: C_3  and  C_4 
REMARK    2  A    between atoms: C_4  and  C_5 
REMARK    3  A    between atoms: C_5  and  O_6 
ROOT
HETATM    1  O   UNK N   1      20.979  16.315   3.578  0.00  0.00    -0.271 OA
HETATM    2  C   UNK N   1      21.700  17.257   3.863  0.00  0.00     0.243 C 
HETATM    3  C   UNK N   1      22.762  16.999   4.951  0.00  0.00     0.184 C 
HETATM    4  N   UNK N   1      21.535  18.439   3.173  0.00  0.00    -0.350 N 
HETATM    5  C   UNK N   1      20.484  18.511   2.181  0.00  0.00     0.153 C 
HETATM    6  C   UNK N   1      22.244  19.671   3.426  0.00  0.00     0.166 C 
HETATM    7  C   UNK N   1      23.739  19.624   3.487  0.00  0.00    -0.014 A 
HETATM    8  C   UNK N   1      24.349  18.913   4.515  0.00  0.00     0.036 A 
HETATM    9  N   UNK N   1      23.573  18.116   5.376  0.00  0.00    -0.376 N 
HETATM   10  C   UNK N   1      24.509  20.474   2.679  0.00  0.00     0.011 A 
HETATM   11  C   UNK N   1      25.884  20.611   2.912  0.00  0.00     0.001 A 
HETATM   12  C   UNK N   1      26.482  19.930   3.976  0.00  0.00     0.002 A 
HETATM   13  C   UNK N   1      25.714  19.081   4.776  0.00  0.00     0.030 A 
HETATM   14  H   UNK N   1      23.585  18.335   6.335  0.00  0.00     0.160 HD
ENDROOT
BRANCH   3  15
HETATM   15  C   UNK N   1      22.140  16.447   6.242  0.00  0.00     0.144 C 
BRANCH  15  16
HETATM   16  C   UNK N   1      21.030  17.265   6.829  0.00  0.00     0.141 C 
HETATM   17  O   UNK N   1      19.939  16.759   7.026  0.00  0.00    -0.650 OA
BRANCH  16  18
HETATM   18  O   UNK N   1      21.196  18.589   7.019  0.00  0.00    -0.776 OA
HETATM   19  H   UNK N   1      20.589  19.279   6.840  0.00  0.00     0.167 HD
ENDBRANCH  16  18
ENDBRANCH  15  16
ENDBRANCH   3  15
TORSDOF 3
ENDMDL
MODEL 5
REMARK VINA RESULT:      -5.6      5.309      8.092
REMARK  3 active torsions:
REMARK  status: ('A' for Active; 'I' for Inactive)
REMARK    1  A    between atoms: C_3  and  C_4 
REMARK    2  A    between atoms: C_4  and  C_5 
REMARK    3  A    between atoms: C_5  and  O_6 
ROOT
HETATM    1  O   UNK N   1      35.013  13.123   9.241  0.00  0.00    -0.271 OA
HETATM    2  C   UNK N   1      35.573  13.232  10.320  0.00  0.00     0.243 C 
HETATM    3  C   UNK N   1      34.860  14.104  11.374  0.00  0.00     0.184 C 
HETATM    4  N   UNK N   1      36.753  12.547  10.517  0.00  0.00    -0.350 N 
HETATM    5  C   UNK N   1      37.286  11.773   9.416  0.00  0.00     0.153 C 
HETATM    6  C   UNK N   1      37.584  12.618  11.695  0.00  0.00     0.166 C 
HETATM    7  C   UNK N   1      36.940  12.392  13.027  0.00  0.00    -0.014 A 
HETATM    8  C   UNK N   1      35.996  13.308  13.482  0.00  0.00     0.036 A 
HETATM    9  N   UNK N   1      35.538  14.328  12.630  0.00  0.00    -0.376 N 
HETATM   10  C   UNK N   1      37.446  11.423  13.906  0.00  0.00     0.011 A 
HETATM   11  C   UNK N   1      37.010  11.384  15.237  0.00  0.00     0.001 A 
HETATM   12  C   UNK N   1      36.098  12.336  15.700  0.00  0.00     0.002 A 
HETATM   13  C   UNK N   1      35.591  13.296  14.822  0.00  0.00     0.030 A 
HETATM   14  H   UNK N   1      35.688  15.260  12.909  0.00  0.00     0.160 HD
ENDROOT
BRANCH   3  15
HETATM   15  C   UNK N   1      34.544  15.509  10.838  0.00  0.00     0.144 C 
BRANCH  15  16
HETATM   16  C   UNK N   1      35.717  16.433  10.708  0.00  0.00     0.141 C 
HETATM   17  O   UNK N   1      35.547  17.584  10.344  0.00  0.00    -0.650 OA
BRANCH  16  18
HETATM   18  O   UNK N   1      36.968  15.960  10.867  0.00  0.00    -0.776 OA
HETATM   19  H   UNK N   1      37.348  15.192  10.490  0.00  0.00     0.167 HD
ENDBRANCH  16  18
ENDBRANCH  15  16
ENDBRANCH   3  15
TORSDOF 3
ENDMDL
MODEL 6
REMARK VINA RESULT:      -5.4      8.485     10.826
REMARK  3 active torsions:
REMARK  status: ('A' for Active; 'I' for Inactive)
REMARK    1  A    between atoms: C_3  and  C_4 
REMARK    2  A    between atoms: C_4  and  C_5 
REMARK    3  A    between atoms: C_5  and  O_6 
ROOT
HETATM    1  O   UNK N   1      21.233  17.300   5.383  0.00  0.00    -0.271 OA
HETATM    2  C   UNK N   1      22.204  17.596   4.707  0.00  0.00     0.243 C 
HETATM    3  C   UNK N   1      22.290  19.064   4.242  0.00  0.00     0.184 C 
HETATM    4  N   UNK N   1      23.147  16.622   4.455  0.00  0.00    -0.350 N 
HETATM    5  C   UNK N   1      22.908  15.290   4.966  0.00  0.00     0.153 C 
HETATM    6  C   UNK N   1      24.315  16.773   3.619  0.00  0.00     0.166 C 
HETATM    7  C   UNK N   1      25.220  17.937   3.876  0.00  0.00    -0.014 A 
HETATM    8  C   UNK N   1      24.741  19.224   3.658  0.00  0.00     0.036 A 
HETATM    9  N   UNK N   1      23.380  19.428   3.367  0.00  0.00    -0.376 N 
HETATM   10  C   UNK N   1      26.591  17.734   4.094  0.00  0.00     0.011 A 
HETATM   11  C   UNK N   1      27.474  18.824   4.083  0.00  0.00     0.001 A 
HETATM   12  C   UNK N   1      26.992  20.108   3.817  0.00  0.00     0.002 A 
HETATM   13  C   UNK N   1      25.626  20.307   3.606  0.00  0.00     0.030 A 
HETATM   14  H   UNK N   1      23.155  19.850   2.507  0.00  0.00     0.160 HD
ENDROOT
BRANCH   3  15
HETATM   15  C   UNK N   1      21.021  19.507   3.500  0.00  0.00     0.144 C 
BRANCH  15  16
HETATM   16  C   UNK N   1      21.223  20.526   2.420  0.00  0.00     0.141 C 
HETATM   17  O   UNK N   1      21.073  20.213   1.251  0.00  0.00    -0.650 OA
BRANCH  16  18
HETATM   18  O   UNK N   1      21.694  21.750   2.728  0.00  0.00    -0.776 OA
HETATM   19  H   UNK N   1      21.933  22.442   2.143  0.00  0.00     0.167 HD
ENDBRANCH  16  18
ENDBRANCH  15  16
ENDBRANCH   3  15
TORSDOF 3
ENDMDL
MODEL 7
REMARK VINA RESULT:      -5.4     13.725     15.829
REMARK  3 active torsions:
REMARK  status: ('A' for Active; 'I' for Inactive)
REMARK    1  A    between atoms: C_3  and  C_4 
REMARK    2  A    between atoms: C_4  and  C_5 
REMARK    3  A    between atoms: C_5  and  O_6 
ROOT
HETATM    1  O   UNK N   1      25.175  24.669  -5.330  0.00  0.00    -0.271 OA
HETATM    2  C   UNK N   1      26.380  24.492  -5.256  0.00  0.00     0.243 C 
HETATM    3  C   UNK N   1      27.133  25.350  -4.218  0.00  0.00     0.184 C 
HETATM    4  N   UNK N   1      26.951  23.530  -6.061  0.00  0.00    -0.350 N 
HETATM    5  C   UNK N   1      26.097  22.814  -6.984  0.00  0.00     0.153 C 
HETATM    6  C   UNK N   1      28.363  23.238  -6.159  0.00  0.00     0.166 C 
HETATM    7  C   UNK N   1      29.119  22.986  -4.892  0.00  0.00    -0.014 A 
HETATM    8  C   UNK N   1      29.267  24.023  -3.978  0.00  0.00     0.036 A 
HETATM    9  N   UNK N   1      28.572  25.231  -4.166  0.00  0.00    -0.376 N 
HETATM   10  C   UNK N   1      29.872  21.812  -4.738  0.00  0.00     0.011 A 
HETATM   11  C   UNK N   1      30.774  21.690  -3.672  0.00  0.00     0.001 A 
HETATM   12  C   UNK N   1      30.952  22.754  -2.784  0.00  0.00     0.002 A 
HETATM   13  C   UNK N   1      30.197  23.919  -2.937  0.00  0.00     0.030 A 
HETATM   14  H   UNK N   1      29.103  26.053  -4.268  0.00  0.00     0.160 HD
ENDROOT
BRANCH   3  15
HETATM   15  C   UNK N   1      26.866  26.850  -4.411  0.00  0.00     0.144 C 
BRANCH  15  16
HETATM   16  C   UNK N   1      26.127  27.527  -3.296  0.00  0.00     0.141 C 
HETATM   17  O   UNK N   1      25.938  26.938  -2.246  0.00  0.00    -0.650 OA
BRANCH  16  18
HETATM   18  O   UNK N   1      25.562  28.733  -3.497  0.00  0.00    -0.776 OA
HETATM   19  H   UNK N   1      25.558  29.246  -4.280  0.00  0.00     0.167 HD
ENDBRANCH  16  18
ENDBRANCH  15  16
ENDBRANCH   3  15
TORSDOF 3
ENDMDL
MODEL 8
REMARK VINA RESULT:      -5.3     10.100     11.619
REMARK  3 active torsions:
REMARK  status: ('A' for Active; 'I' for Inactive)
REMARK    1  A    between atoms: C_3  and  C_4 
REMARK    2  A    between atoms: C_4  and  C_5 
REMARK    3  A    between atoms: C_5  and  O_6 
ROOT
HETATM    1  O   UNK N   1      20.935  14.674   5.027  0.00  0.00    -0.271 OA
HETATM    2  C   UNK N   1      21.384  14.539   6.153  0.00  0.00     0.243 C 
HETATM    3  C   UNK N   1      20.417  14.846   7.315  0.00  0.00     0.184 C 
HETATM    4  N   UNK N   1      22.681  14.093   6.290  0.00  0.00    -0.350 N 
HETATM    5  C   UNK N   1      23.454  13.854   5.090  0.00  0.00     0.153 C 
HETATM    6  C   UNK N   1      23.397  13.947   7.536  0.00  0.00     0.166 C 
HETATM    7  C   UNK N   1      22.746  13.166   8.635  0.00  0.00    -0.014 A 
HETATM    8  C   UNK N   1      21.583  13.661   9.215  0.00  0.00     0.036 A 
HETATM    9  N   UNK N   1      20.942  14.783   8.659  0.00  0.00    -0.376 N 
HETATM   10  C   UNK N   1      23.419  12.093   9.237  0.00  0.00     0.011 A 
HETATM   11  C   UNK N   1      22.925  11.528  10.421  0.00  0.00     0.001 A 
HETATM   12  C   UNK N   1      21.782  12.060  11.023  0.00  0.00     0.002 A 
HETATM   13  C   UNK N   1      21.112  13.125  10.419  0.00  0.00     0.030 A 
HETATM   14  H   UNK N   1      20.844  15.581   9.227  0.00  0.00     0.160 HD
ENDROOT
BRANCH   3  15
HETATM   15  C   UNK N   1      19.802  16.248   7.195  0.00  0.00     0.144 C 
BRANCH  15  16
HETATM   16  C   UNK N   1      19.343  16.867   8.480  0.00  0.00     0.141 C 
HETATM   17  O   UNK N   1      19.986  17.773   8.984  0.00  0.00    -0.650 OA
BRANCH  16  18
HETATM   18  O   UNK N   1      18.296  16.342   9.145  0.00  0.00    -0.776 OA
HETATM   19  H   UNK N   1      17.510  16.772   9.418  0.00  0.00     0.167 HD
ENDBRANCH  16  18
ENDBRANCH  15  16
ENDBRANCH   3  15
TORSDOF 3
ENDMDL
MODEL 9
REMARK VINA RESULT:      -5.2     12.504     13.231
REMARK  3 active torsions:
REMARK  status: ('A' for Active; 'I' for Inactive)
REMARK    1  A    between atoms: C_3  and  C_4 
REMARK    2  A    between atoms: C_4  and  C_5 
REMARK    3  A    between atoms: C_5  and  O_6 
ROOT
HETATM    1  O   UNK N   1      43.687  19.598   1.546  0.00  0.00    -0.271 OA
HETATM    2  C   UNK N   1      42.727  20.348   1.477  0.00  0.00     0.243 C 
HETATM    3  C   UNK N   1      42.852  21.686   2.234  0.00  0.00     0.184 C 
HETATM    4  N   UNK N   1      41.650  19.963   0.709  0.00  0.00    -0.350 N 
HETATM    5  C   UNK N   1      41.696  18.668   0.065  0.00  0.00     0.153 C 
HETATM    6  C   UNK N   1      40.407  20.687   0.573  0.00  0.00     0.166 C 
HETATM    7  C   UNK N   1      40.472  22.136   0.203  0.00  0.00    -0.014 A 
HETATM    8  C   UNK N   1      41.046  23.034   1.098  0.00  0.00     0.036 A 
HETATM    9  N   UNK N   1      41.702  22.560   2.248  0.00  0.00    -0.376 N 
HETATM   10  C   UNK N   1      39.757  22.619  -0.903  0.00  0.00     0.011 A 
HETATM   11  C   UNK N   1      39.614  24.000  -1.100  0.00  0.00     0.001 A 
HETATM   12  C   UNK N   1      40.152  24.896  -0.172  0.00  0.00     0.002 A 
HETATM   13  C   UNK N   1      40.868  24.412   0.925  0.00  0.00     0.030 A 
HETATM   14  H   UNK N   1      41.353  22.844   3.123  0.00  0.00     0.160 HD
ENDROOT
BRANCH   3  15
HETATM   15  C   UNK N   1      43.209  21.478   3.714  0.00  0.00     0.144 C 
BRANCH  15  16
HETATM   16  C   UNK N   1      43.643  22.706   4.455  0.00  0.00     0.141 C 
HETATM   17  O   UNK N   1      43.913  22.637   5.643  0.00  0.00    -0.650 OA
BRANCH  16  18
HETATM   18  O   UNK N   1      43.613  23.907   3.847  0.00  0.00    -0.776 OA
HETATM   19  H   UNK N   1      43.316  24.725   4.195  0.00  0.00     0.167 HD
ENDBRANCH  16  18
ENDBRANCH  15  16
ENDBRANCH   3  15
TORSDOF 3
ENDMDL
