MODEL 1
REMARK VINA RESULT:      -6.0      0.000      0.000
REMARK  4 active torsions:
REMARK  status: ('A' for Active; 'I' for Inactive)
REMARK    1  A    between atoms: C_2  and  O_1 
REMARK    2  A    between atoms: O_4  and  C_3 
REMARK    3  A    between atoms: C_9  and  C_8 
REMARK    4  A    between atoms: C_13  and  C_14 
ROOT
HETATM    1  C   UNK N   1      34.677  17.138   9.367  0.00  0.00     0.098 A 
HETATM    2  C   UNK N   1      34.534  18.199   8.465  0.00  0.00     0.099 A 
HETATM    3  C   UNK N   1      33.518  18.161   7.504  0.00  0.00     0.052 A 
HETATM    4  C   UNK N   1      33.809  16.051   9.301  0.00  0.00     0.040 A 
HETATM    5  C   UNK N   1      32.800  16.024   8.339  0.00  0.00     0.016 A 
HETATM    6  C   UNK N   1      32.634  17.068   7.431  0.00  0.00    -0.016 A 
ENDROOT
BRANCH   6   7
HETATM    7  C   UNK N   1      31.554  17.070   6.404  0.00  0.00     0.021 A 
HETATM    8  C   UNK N   1      31.551  17.225   4.982  0.00  0.00    -0.040 A 
HETATM    9  C   UNK N   1      30.240  17.139   4.429  0.00  0.00     0.015 A 
HETATM   10  C   UNK N   1      29.221  16.925   5.357  0.00  0.00     0.051 A 
HETATM   11  S   UNK N   1      29.960  16.846   6.829  0.00  0.00    -0.101 SA
BRANCH   8  12
HETATM   12  C   UNK N   1      32.665  17.456   3.982  0.00  0.00     0.035 C 
HETATM   13  C   UNK N   1      33.194  16.352   3.097  0.00  0.00     0.010 C 
ENDBRANCH   8  12
ENDBRANCH   6   7
BRANCH   2  14
HETATM   14  O   UNK N   1      35.364  19.253   8.517  0.00  0.00    -0.358 OA
HETATM   15  H   UNK N   1      35.706  19.540   9.341  0.00  0.00     0.217 HD
ENDBRANCH   2  14
BRANCH   1  16
HETATM   16  O   UNK N   1      35.645  17.161  10.299  0.00  0.00    -0.358 OA
HETATM   17  H   UNK N   1      35.800  16.406  10.831  0.00  0.00     0.217 HD
ENDBRANCH   1  16
TORSDOF 4
ENDMDL
MODEL 2
REMARK VINA RESULT:      -6.0      1.550      2.711
REMARK  4 active torsions:
REMARK  status: ('A' for Active; 'I' for Inactive)
REMARK    1  A    between atoms: C_2  and  O_1 
REMARK    2  A    between atoms: O_4  and  C_3 
REMARK    3  A    between atoms: C_9  and  C_8 
REMARK    4  A    between atoms: C_13  and  C_14 
ROOT
HETATM    1  C   UNK N   1      34.731  17.025   9.401  0.00  0.00     0.098 A 
HETATM    2  C   UNK N   1      34.501  18.129   8.571  0.00  0.00     0.099 A 
HETATM    3  C   UNK N   1      33.358  18.164   7.765  0.00  0.00     0.052 A 
HETATM    4  C   UNK N   1      33.823  15.969   9.417  0.00  0.00     0.040 A 
HETATM    5  C   UNK N   1      32.688  16.015   8.609  0.00  0.00     0.016 A 
HETATM    6  C   UNK N   1      32.433  17.104   7.777  0.00  0.00    -0.016 A 
ENDROOT
BRANCH   6   7
HETATM    7  C   UNK N   1      31.219  17.183   6.915  0.00  0.00     0.021 A 
HETATM    8  C   UNK N   1      29.835  17.418   7.188  0.00  0.00    -0.040 A 
HETATM    9  C   UNK N   1      29.039  17.412   6.004  0.00  0.00     0.015 A 
HETATM   10  C   UNK N   1      29.742  17.182   4.822  0.00  0.00     0.051 A 
HETATM   11  S   UNK N   1      31.320  16.993   5.264  0.00  0.00    -0.101 SA
BRANCH   8  12
HETATM   12  C   UNK N   1      29.080  17.669   8.477  0.00  0.00     0.035 C 
HETATM   13  C   UNK N   1      29.635  18.543   9.577  0.00  0.00     0.010 C 
ENDBRANCH   8  12
ENDBRANCH   6   7
BRANCH   2  14
HETATM   14  O   UNK N   1      35.367  19.154   8.546  0.00  0.00    -0.358 OA
HETATM   15  H   UNK N   1      35.711  19.497   9.347  0.00  0.00     0.217 HD
ENDBRANCH   2  14
BRANCH   1  16
HETATM   16  O   UNK N   1      35.821  16.978  10.185  0.00  0.00    -0.358 OA
HETATM   17  H   UNK N   1      36.486  16.338  10.023  0.00  0.00     0.217 HD
ENDBRANCH   1  16
TORSDOF 4
ENDMDL
MODEL 3
REMARK VINA RESULT:      -5.9      9.536     11.769
REMARK  4 active torsions:
REMARK  status: ('A' for Active; 'I' for Inactive)
REMARK    1  A    between atoms: C_2  and  O_1 
REMARK    2  A    between atoms: O_4  and  C_3 
REMARK    3  A    between atoms: C_9  and  C_8 
REMARK    4  A    between atoms: C_13  and  C_14 
ROOT
HETATM    1  C   UNK N   1      35.404  11.273  19.905  0.00  0.00     0.098 A 
HETATM    2  C   UNK N   1      35.073  12.594  19.579  0.00  0.00     0.099 A 
HETATM    3  C   UNK N   1      35.132  13.016  18.247  0.00  0.00     0.052 A 
HETATM    4  C   UNK N   1      35.792  10.389  18.902  0.00  0.00     0.040 A 
HETATM    5  C   UNK N   1      35.847  10.821  17.577  0.00  0.00     0.016 A 
HETATM    6  C   UNK N   1      35.520  12.129  17.225  0.00  0.00    -0.016 A 
ENDROOT
BRANCH   6   7
HETATM    7  C   UNK N   1      35.556  12.610  15.815  0.00  0.00     0.021 A 
HETATM    8  C   UNK N   1      34.879  12.207  14.621  0.00  0.00    -0.040 A 
HETATM    9  C   UNK N   1      35.248  12.998  13.494  0.00  0.00     0.015 A 
HETATM   10  C   UNK N   1      36.183  14.000  13.756  0.00  0.00     0.051 A 
HETATM   11  S   UNK N   1      36.529  13.884  15.365  0.00  0.00    -0.101 SA
BRANCH   8  12
HETATM   12  C   UNK N   1      33.862  11.118  14.347  0.00  0.00     0.035 C 
HETATM   13  C   UNK N   1      33.902  10.278  13.092  0.00  0.00     0.010 C 
ENDBRANCH   8  12
ENDBRANCH   6   7
BRANCH   2  14
HETATM   14  O   UNK N   1      34.697  13.457  20.536  0.00  0.00    -0.358 OA
HETATM   15  H   UNK N   1      34.638  13.173  21.427  0.00  0.00     0.217 HD
ENDBRANCH   2  14
BRANCH   1  16
HETATM   16  O   UNK N   1      35.348  10.851  21.179  0.00  0.00    -0.358 OA
HETATM   17  H   UNK N   1      35.874  10.127  21.456  0.00  0.00     0.217 HD
ENDBRANCH   1  16
TORSDOF 4
ENDMDL
MODEL 4
REMARK VINA RESULT:      -5.9      3.320      4.425
REMARK  4 active torsions:
REMARK  status: ('A' for Active; 'I' for Inactive)
REMARK    1  A    between atoms: C_2  and  O_1 
REMARK    2  A    between atoms: O_4  and  C_3 
REMARK    3  A    between atoms: C_9  and  C_8 
REMARK    4  A    between atoms: C_13  and  C_14 
ROOT
HETATM    1  C   UNK N   1      28.585  18.255   8.495  0.00  0.00     0.098 A 
HETATM    2  C   UNK N   1      29.775  18.334   9.229  0.00  0.00     0.099 A 
HETATM    3  C   UNK N   1      30.967  17.862   8.670  0.00  0.00     0.052 A 
HETATM    4  C   UNK N   1      28.595  17.703   7.217  0.00  0.00     0.040 A 
HETATM    5  C   UNK N   1      29.790  17.236   6.670  0.00  0.00     0.016 A 
HETATM    6  C   UNK N   1      30.988  17.307   7.377  0.00  0.00    -0.016 A 
ENDROOT
BRANCH   6   7
HETATM    7  C   UNK N   1      32.281  16.828   6.809  0.00  0.00     0.021 A 
HETATM    8  C   UNK N   1      32.901  16.963   5.528  0.00  0.00    -0.040 A 
HETATM    9  C   UNK N   1      34.174  16.324   5.470  0.00  0.00     0.015 A 
HETATM   10  C   UNK N   1      34.573  15.695   6.649  0.00  0.00     0.051 A 
HETATM   11  S   UNK N   1      33.351  15.944   7.729  0.00  0.00    -0.101 SA
BRANCH   8  12
HETATM   12  C   UNK N   1      32.459  17.650   4.252  0.00  0.00     0.035 C 
HETATM   13  C   UNK N   1      32.282  16.898   2.953  0.00  0.00     0.010 C 
ENDBRANCH   8  12
ENDBRANCH   6   7
BRANCH   2  14
HETATM   14  O   UNK N   1      29.779  18.864  10.463  0.00  0.00    -0.358 OA
HETATM   15  H   UNK N   1      29.492  18.352  11.193  0.00  0.00     0.217 HD
ENDBRANCH   2  14
BRANCH   1  16
HETATM   16  O   UNK N   1      27.432  18.708   9.016  0.00  0.00    -0.358 OA
HETATM   17  H   UNK N   1      26.651  18.701   8.499  0.00  0.00     0.217 HD
ENDBRANCH   1  16
TORSDOF 4
ENDMDL
MODEL 5
REMARK VINA RESULT:      -5.7     11.337     13.380
REMARK  4 active torsions:
REMARK  status: ('A' for Active; 'I' for Inactive)
REMARK    1  A    between atoms: C_2  and  O_1 
REMARK    2  A    between atoms: O_4  and  C_3 
REMARK    3  A    between atoms: C_9  and  C_8 
REMARK    4  A    between atoms: C_13  and  C_14 
ROOT
HETATM    1  C   UNK N   1      31.942  21.379  -2.981  0.00  0.00     0.098 A 
HETATM    2  C   UNK N   1      30.874  22.270  -2.820  0.00  0.00     0.099 A 
HETATM    3  C   UNK N   1      29.975  22.472  -3.873  0.00  0.00     0.052 A 
HETATM    4  C   UNK N   1      32.105  20.704  -4.187  0.00  0.00     0.040 A 
HETATM    5  C   UNK N   1      31.203  20.913  -5.229  0.00  0.00     0.016 A 
HETATM    6  C   UNK N   1      30.129  21.791  -5.094  0.00  0.00    -0.016 A 
ENDROOT
BRANCH   6   7
HETATM    7  C   UNK N   1      29.142  22.020  -6.188  0.00  0.00     0.021 A 
HETATM    8  C   UNK N   1      28.876  21.356  -7.426  0.00  0.00    -0.040 A 
HETATM    9  C   UNK N   1      27.798  21.954  -8.143  0.00  0.00     0.015 A 
HETATM   10  C   UNK N   1      27.214  23.057  -7.519  0.00  0.00     0.051 A 
HETATM   11  S   UNK N   1      28.037  23.263  -6.104  0.00  0.00    -0.101 SA
BRANCH   8  12
HETATM   12  C   UNK N   1      29.516  20.157  -8.096  0.00  0.00     0.035 C 
HETATM   13  C   UNK N   1      29.253  18.743  -7.635  0.00  0.00     0.010 C 
ENDBRANCH   8  12
ENDBRANCH   6   7
BRANCH   2  14
HETATM   14  O   UNK N   1      30.705  22.928  -1.662  0.00  0.00    -0.358 OA
HETATM   15  H   UNK N   1      30.018  23.560  -1.578  0.00  0.00     0.217 HD
ENDBRANCH   2  14
BRANCH   1  16
HETATM   16  O   UNK N   1      32.812  21.171  -1.978  0.00  0.00    -0.358 OA
HETATM   17  H   UNK N   1      32.765  20.382  -1.474  0.00  0.00     0.217 HD
ENDBRANCH   1  16
TORSDOF 4
ENDMDL
MODEL 6
REMARK VINA RESULT:      -5.7     11.062     12.141
REMARK  4 active torsions:
REMARK  status: ('A' for Active; 'I' for Inactive)
REMARK    1  A    between atoms: C_2  and  O_1 
REMARK    2  A    between atoms: O_4  and  C_3 
REMARK    3  A    between atoms: C_9  and  C_8 
REMARK    4  A    between atoms: C_13  and  C_14 
ROOT
HETATM    1  C   UNK N   1      23.007  12.019  12.289  0.00  0.00     0.098 A 
HETATM    2  C   UNK N   1      23.873  12.402  11.257  0.00  0.00     0.099 A 
HETATM    3  C   UNK N   1      23.348  12.797  10.022  0.00  0.00     0.052 A 
HETATM    4  C   UNK N   1      21.630  12.030  12.078  0.00  0.00     0.040 A 
HETATM    5  C   UNK N   1      21.119  12.426  10.843  0.00  0.00     0.016 A 
HETATM    6  C   UNK N   1      21.959  12.816   9.801  0.00  0.00    -0.016 A 
ENDROOT
BRANCH   6   7
HETATM    7  C   UNK N   1      21.436  13.258   8.476  0.00  0.00     0.021 A 
HETATM    8  C   UNK N   1      20.895  14.491   7.995  0.00  0.00    -0.040 A 
HETATM    9  C   UNK N   1      20.536  14.426   6.617  0.00  0.00     0.015 A 
HETATM   10  C   UNK N   1      20.773  13.197   6.002  0.00  0.00     0.051 A 
HETATM   11  S   UNK N   1      21.417  12.225   7.170  0.00  0.00    -0.101 SA
BRANCH   8  12
HETATM   12  C   UNK N   1      20.643  15.823   8.671  0.00  0.00     0.035 C 
HETATM   13  C   UNK N   1      19.255  16.402   8.816  0.00  0.00     0.010 C 
ENDBRANCH   8  12
ENDBRANCH   6   7
BRANCH   2  14
HETATM   14  O   UNK N   1      25.202  12.395  11.447  0.00  0.00    -0.358 OA
HETATM   15  H   UNK N   1      25.780  12.365  10.710  0.00  0.00     0.217 HD
ENDBRANCH   2  14
BRANCH   1  16
HETATM   16  O   UNK N   1      23.495  11.641  13.482  0.00  0.00    -0.358 OA
HETATM   17  H   UNK N   1      24.401  11.420  13.569  0.00  0.00     0.217 HD
ENDBRANCH   1  16
TORSDOF 4
ENDMDL
MODEL 7
REMARK VINA RESULT:      -5.6      8.717     10.798
REMARK  4 active torsions:
REMARK  status: ('A' for Active; 'I' for Inactive)
REMARK    1  A    between atoms: C_2  and  O_1 
REMARK    2  A    between atoms: O_4  and  C_3 
REMARK    3  A    between atoms: C_9  and  C_8 
REMARK    4  A    between atoms: C_13  and  C_14 
ROOT
HETATM    1  C   UNK N   1      35.341  12.692  19.190  0.00  0.00     0.098 A 
HETATM    2  C   UNK N   1      35.191  13.715  18.247  0.00  0.00     0.099 A 
HETATM    3  C   UNK N   1      35.054  13.396  16.892  0.00  0.00     0.052 A 
HETATM    4  C   UNK N   1      35.358  11.363  18.773  0.00  0.00     0.040 A 
HETATM    5  C   UNK N   1      35.221  11.057  17.420  0.00  0.00     0.016 A 
HETATM    6  C   UNK N   1      35.066  12.057  16.461  0.00  0.00    -0.016 A 
ENDROOT
BRANCH   6   7
HETATM    7  C   UNK N   1      34.902  11.754  15.010  0.00  0.00     0.021 A 
HETATM    8  C   UNK N   1      35.507  12.277  13.824  0.00  0.00    -0.040 A 
HETATM    9  C   UNK N   1      35.020  11.644  12.643  0.00  0.00     0.015 A 
HETATM   10  C   UNK N   1      34.063  10.652  12.856  0.00  0.00     0.051 A 
HETATM   11  S   UNK N   1      33.843  10.581  14.489  0.00  0.00    -0.101 SA
BRANCH   8  12
HETATM   12  C   UNK N   1      36.548  13.355  13.603  0.00  0.00     0.035 C 
HETATM   13  C   UNK N   1      36.180  14.747  13.148  0.00  0.00     0.010 C 
ENDBRANCH   8  12
ENDBRANCH   6   7
BRANCH   2  14
HETATM   14  O   UNK N   1      35.174  15.001  18.635  0.00  0.00    -0.358 OA
HETATM   15  H   UNK N   1      34.661  15.626  18.162  0.00  0.00     0.217 HD
ENDBRANCH   2  14
BRANCH   1  16
HETATM   16  O   UNK N   1      35.469  12.981  20.496  0.00  0.00    -0.358 OA
HETATM   17  H   UNK N   1      35.110  12.404  21.140  0.00  0.00     0.217 HD
ENDBRANCH   1  16
TORSDOF 4
ENDMDL
MODEL 8
REMARK VINA RESULT:      -5.6     11.299     13.385
REMARK  4 active torsions:
REMARK  status: ('A' for Active; 'I' for Inactive)
REMARK    1  A    between atoms: C_2  and  O_1 
REMARK    2  A    between atoms: O_4  and  C_3 
REMARK    3  A    between atoms: C_9  and  C_8 
REMARK    4  A    between atoms: C_13  and  C_14 
ROOT
HETATM    1  C   UNK N   1      30.874  22.249  -2.838  0.00  0.00     0.098 A 
HETATM    2  C   UNK N   1      31.954  21.372  -2.993  0.00  0.00     0.099 A 
HETATM    3  C   UNK N   1      32.126  20.690  -4.202  0.00  0.00     0.052 A 
HETATM    4  C   UNK N   1      29.976  22.433  -3.887  0.00  0.00     0.040 A 
HETATM    5  C   UNK N   1      30.158  21.747  -5.087  0.00  0.00     0.016 A 
HETATM    6  C   UNK N   1      31.227  20.872  -5.268  0.00  0.00    -0.016 A 
ENDROOT
BRANCH   6   7
HETATM    7  C   UNK N   1      31.451  20.139  -6.547  0.00  0.00     0.021 A 
HETATM    8  C   UNK N   1      30.572  19.560  -7.515  0.00  0.00    -0.040 A 
HETATM    9  C   UNK N   1      31.276  18.962  -8.601  0.00  0.00     0.015 A 
HETATM   10  C   UNK N   1      32.666  19.049  -8.521  0.00  0.00     0.051 A 
HETATM   11  S   UNK N   1      32.989  19.858  -7.120  0.00  0.00    -0.101 SA
BRANCH   8  12
HETATM   12  C   UNK N   1      29.061  19.472  -7.593  0.00  0.00     0.035 C 
HETATM   13  C   UNK N   1      28.216  20.606  -8.122  0.00  0.00     0.010 C 
ENDBRANCH   8  12
ENDBRANCH   6   7
BRANCH   2  14
HETATM   14  O   UNK N   1      32.827  21.184  -1.990  0.00  0.00    -0.358 OA
HETATM   15  H   UNK N   1      32.531  21.201  -1.101  0.00  0.00     0.217 HD
ENDBRANCH   2  14
BRANCH   1  16
HETATM   16  O   UNK N   1      30.697  22.915  -1.685  0.00  0.00    -0.358 OA
HETATM   17  H   UNK N   1      29.896  23.376  -1.529  0.00  0.00     0.217 HD
ENDBRANCH   1  16
TORSDOF 4
ENDMDL
MODEL 9
REMARK VINA RESULT:      -5.6     11.656     13.707
REMARK  4 active torsions:
REMARK  status: ('A' for Active; 'I' for Inactive)
REMARK    1  A    between atoms: C_2  and  O_1 
REMARK    2  A    between atoms: O_4  and  C_3 
REMARK    3  A    between atoms: C_9  and  C_8 
REMARK    4  A    between atoms: C_13  and  C_14 
ROOT
HETATM    1  C   UNK N   1      31.350  21.736  -3.047  0.00  0.00     0.098 A 
HETATM    2  C   UNK N   1      30.408  22.672  -2.603  0.00  0.00     0.099 A 
HETATM    3  C   UNK N   1      29.429  23.142  -3.485  0.00  0.00     0.052 A 
HETATM    4  C   UNK N   1      31.309  21.283  -4.363  0.00  0.00     0.040 A 
HETATM    5  C   UNK N   1      30.329  21.760  -5.232  0.00  0.00     0.016 A 
HETATM    6  C   UNK N   1      29.377  22.688  -4.815  0.00  0.00    -0.016 A 
ENDROOT
BRANCH   6   7
HETATM    7  C   UNK N   1      28.310  23.201  -5.722  0.00  0.00     0.021 A 
HETATM    8  C   UNK N   1      27.063  23.863  -5.494  0.00  0.00    -0.040 A 
HETATM    9  C   UNK N   1      26.383  24.173  -6.709  0.00  0.00     0.015 A 
HETATM   10  C   UNK N   1      27.045  23.781  -7.872  0.00  0.00     0.051 A 
HETATM   11  S   UNK N   1      28.446  23.066  -7.375  0.00  0.00    -0.101 SA
BRANCH   8  12
HETATM   12  C   UNK N   1      26.353  24.287  -4.225  0.00  0.00     0.035 C 
HETATM   13  C   UNK N   1      26.637  25.606  -3.546  0.00  0.00     0.010 C 
ENDBRANCH   8  12
ENDBRANCH   6   7
BRANCH   2  14
HETATM   14  O   UNK N   1      30.435  23.117  -1.337  0.00  0.00    -0.358 OA
HETATM   15  H   UNK N   1      30.859  23.929  -1.134  0.00  0.00     0.217 HD
ENDBRANCH   2  14
BRANCH   1  16
HETATM   16  O   UNK N   1      32.294  21.270  -2.211  0.00  0.00    -0.358 OA
HETATM   17  H   UNK N   1      33.060  20.857  -2.555  0.00  0.00     0.217 HD
ENDBRANCH   1  16
TORSDOF 4
ENDMDL
