MODEL 1
REMARK VINA RESULT:      -6.5      0.000      0.000
REMARK  8 active torsions:
REMARK  status: ('A' for Active; 'I' for Inactive)
REMARK    1  A    between atoms: C_7  and  C_8 
REMARK    2  A    between atoms: C_8  and  C_9 
REMARK    3  A    between atoms: C_9  and  C_10 
REMARK    4  A    between atoms: C_10  and  C_11 
REMARK    5  A    between atoms: C_11  and  C_12 
REMARK    6  A    between atoms: C_12  and  O_13 
REMARK    7  A    between atoms: O_13  and  C_14 
REMARK    8  A    between atoms: C_17  and  C_21 
ROOT
HETATM    1  C   UNK N   1      35.946  11.181  17.642  0.00  0.00     0.090 A 
HETATM    2  C   UNK N   1      35.312  12.428  17.631  0.00  0.00     0.039 A 
HETATM    3  C   UNK N   1      35.242  13.191  16.467  0.00  0.00     0.018 A 
HETATM    4  C   UNK N   1      35.807  12.715  15.281  0.00  0.00     0.016 A 
HETATM    5  C   UNK N   1      36.457  11.481  15.276  0.00  0.00     0.042 A 
HETATM    6  C   UNK N   1      36.545  10.707  16.436  0.00  0.00     0.068 A 
HETATM    7 Cl   UNK N   1      37.435   9.199  16.293  0.00  0.00    -0.081 Cl
ENDROOT
BRANCH   1   8
HETATM    8  O   UNK N   1      35.935  10.499  18.818  0.00  0.00    -0.349 OA
BRANCH   8   9
HETATM    9  C   UNK N   1      34.825  10.105  19.526  0.00  0.00     0.175 C 
BRANCH   9  10
HETATM   10  C   UNK N   1      33.995   9.156  18.674  0.00  0.00     0.027 C 
BRANCH  10  11
HETATM   11  C   UNK N   1      33.315   8.125  19.568  0.00  0.00     0.002 C 
BRANCH  11  12
HETATM   12  C   UNK N   1      31.895   8.521  19.983  0.00  0.00     0.007 C 
BRANCH  12  13
HETATM   13  C   UNK N   1      31.565   8.146  21.425  0.00  0.00     0.067 C 
BRANCH  13  14
HETATM   14  C   UNK N   1      32.095   9.204  22.324  0.00  0.00     0.078 A 
HETATM   15  O   UNK N   1      32.362  10.433  21.949  0.00  0.00    -0.242 OA
HETATM   16  N   UNK N   1      32.873  11.113  22.928  0.00  0.00    -0.266 N 
HETATM   17  C   UNK N   1      32.945  10.286  23.988  0.00  0.00     0.031 A 
ATOM     18  HN  UNK N   1      33.165  12.090  22.901  1.00  0.00     0.194 HD
HETATM   19  C   UNK N   1      33.513  10.667  25.307  0.00  0.00     0.070 C 
HETATM   20  C   UNK N   1      32.453   9.045  23.647  0.00  0.00     0.061 A 
ENDBRANCH  13  14
ENDBRANCH  12  13
ENDBRANCH  11  12
ENDBRANCH  10  11
ENDBRANCH   9  10
ENDBRANCH   8   9
ENDBRANCH   1   8
BRANCH   4  21
HETATM   21  C   UNK N   1      35.729  13.503  14.041  0.00  0.00     0.148 A 
HETATM   22  N   UNK N   1      36.566  14.406  13.737  0.00  0.00    -0.368 N 
HETATM   23  C   UNK N   1      36.226  14.989  12.470  0.00  0.00     0.148 A 
ATOM     24  HN  UNK N   1      37.365  14.679  14.309  1.00  0.00     0.161 HD
HETATM   25  C   UNK N   1      34.953  14.208  12.077  0.00  0.00     0.197 A 
HETATM   26  O   UNK N   1      34.771  13.335  13.127  0.00  0.00    -0.334 OA
ENDBRANCH   4  21
TORSDOF 8
ENDMDL
MODEL 2
REMARK VINA RESULT:      -6.4      4.108      6.104
REMARK  8 active torsions:
REMARK  status: ('A' for Active; 'I' for Inactive)
REMARK    1  A    between atoms: C_7  and  C_8 
REMARK    2  A    between atoms: C_8  and  C_9 
REMARK    3  A    between atoms: C_9  and  C_10 
REMARK    4  A    between atoms: C_10  and  C_11 
REMARK    5  A    between atoms: C_11  and  C_12 
REMARK    6  A    between atoms: C_12  and  O_13 
REMARK    7  A    between atoms: O_13  and  C_14 
REMARK    8  A    between atoms: C_17  and  C_21 
ROOT
HETATM    1  C   UNK N   1      35.082  12.849  15.728  0.00  0.00     0.090 A 
HETATM    2  C   UNK N   1      36.104  13.789  15.560  0.00  0.00     0.039 A 
HETATM    3  C   UNK N   1      36.652  14.040  14.303  0.00  0.00     0.018 A 
HETATM    4  C   UNK N   1      36.181  13.352  13.182  0.00  0.00     0.016 A 
HETATM    5  C   UNK N   1      35.174  12.399  13.333  0.00  0.00     0.042 A 
HETATM    6  C   UNK N   1      34.619  12.128  14.586  0.00  0.00     0.068 A 
HETATM    7 Cl   UNK N   1      33.395  10.870  14.633  0.00  0.00    -0.081 Cl
ENDROOT
BRANCH   1   8
HETATM    8  O   UNK N   1      34.592  12.698  16.987  0.00  0.00    -0.349 OA
BRANCH   8   9
HETATM    9  C   UNK N   1      35.163  13.155  18.150  0.00  0.00     0.175 C 
BRANCH   9  10
HETATM   10  C   UNK N   1      35.441  11.977  19.072  0.00  0.00     0.027 C 
BRANCH  10  11
HETATM   11  C   UNK N   1      35.061  10.677  18.371  0.00  0.00     0.002 C 
BRANCH  11  12
HETATM   12  C   UNK N   1      36.264   9.915  17.806  0.00  0.00     0.007 C 
BRANCH  12  13
HETATM   13  C   UNK N   1      35.911   9.046  16.603  0.00  0.00     0.067 C 
BRANCH  13  14
HETATM   14  C   UNK N   1      36.757   9.462  15.454  0.00  0.00     0.078 A 
HETATM   15  O   UNK N   1      37.640  10.431  15.492  0.00  0.00    -0.242 OA
HETATM   16  N   UNK N   1      38.178  10.612  14.326  0.00  0.00    -0.266 N 
HETATM   17  C   UNK N   1      37.614   9.721  13.489  0.00  0.00     0.031 A 
ATOM     18  HN  UNK N   1      38.893  11.299  14.088  1.00  0.00     0.194 HD
HETATM   19  C   UNK N   1      37.927   9.623  12.040  0.00  0.00     0.070 C 
HETATM   20  C   UNK N   1      36.694   8.955  14.171  0.00  0.00     0.061 A 
ENDBRANCH  13  14
ENDBRANCH  12  13
ENDBRANCH  11  12
ENDBRANCH  10  11
ENDBRANCH   9  10
ENDBRANCH   8   9
ENDBRANCH   1   8
BRANCH   4  21
HETATM   21  C   UNK N   1      36.741  13.617  11.846  0.00  0.00     0.148 A 
HETATM   22  N   UNK N   1      37.887  13.215  11.481  0.00  0.00    -0.368 N 
HETATM   23  C   UNK N   1      38.146  13.624  10.129  0.00  0.00     0.148 A 
ATOM     24  HN  UNK N   1      38.531  12.679  12.061  1.00  0.00     0.161 HD
HETATM   25  C   UNK N   1      36.857  14.391   9.762  0.00  0.00     0.197 A 
HETATM   26  O   UNK N   1      36.090  14.302  10.904  0.00  0.00    -0.334 OA
ENDBRANCH   4  21
TORSDOF 8
ENDMDL
MODEL 3
REMARK VINA RESULT:      -6.3     11.570     16.538
REMARK  8 active torsions:
REMARK  status: ('A' for Active; 'I' for Inactive)
REMARK    1  A    between atoms: C_7  and  C_8 
REMARK    2  A    between atoms: C_8  and  C_9 
REMARK    3  A    between atoms: C_9  and  C_10 
REMARK    4  A    between atoms: C_10  and  C_11 
REMARK    5  A    between atoms: C_11  and  C_12 
REMARK    6  A    between atoms: C_12  and  O_13 
REMARK    7  A    between atoms: O_13  and  C_14 
REMARK    8  A    between atoms: C_17  and  C_21 
ROOT
HETATM    1  C   UNK N   1      27.645  18.849   4.791  0.00  0.00     0.090 A 
HETATM    2  C   UNK N   1      26.934  17.931   4.009  0.00  0.00     0.039 A 
HETATM    3  C   UNK N   1      25.632  18.196   3.591  0.00  0.00     0.018 A 
HETATM    4  C   UNK N   1      25.012  19.397   3.946  0.00  0.00     0.016 A 
HETATM    5  C   UNK N   1      25.698  20.317   4.739  0.00  0.00     0.042 A 
HETATM    6  C   UNK N   1      27.001  20.064   5.174  0.00  0.00     0.068 A 
HETATM    7 Cl   UNK N   1      27.723  21.289   6.206  0.00  0.00    -0.081 Cl
ENDROOT
BRANCH   1   8
HETATM    8  O   UNK N   1      28.919  18.513   5.122  0.00  0.00    -0.349 OA
BRANCH   8   9
HETATM    9  C   UNK N   1      29.418  17.242   5.278  0.00  0.00     0.175 C 
BRANCH   9  10
HETATM   10  C   UNK N   1      30.250  17.180   6.551  0.00  0.00     0.027 C 
BRANCH  10  11
HETATM   11  C   UNK N   1      31.728  17.069   6.192  0.00  0.00     0.002 C 
BRANCH  11  12
HETATM   12  C   UNK N   1      32.663  17.520   7.318  0.00  0.00     0.007 C 
BRANCH  12  13
HETATM   13  C   UNK N   1      34.011  16.805   7.300  0.00  0.00     0.067 C 
BRANCH  13  14
HETATM   14  C   UNK N   1      34.488  16.657   8.700  0.00  0.00     0.078 A 
HETATM   15  O   UNK N   1      34.613  17.647   9.552  0.00  0.00    -0.242 OA
HETATM   16  N   UNK N   1      35.113  17.230  10.673  0.00  0.00    -0.266 N 
HETATM   17  C   UNK N   1      35.327  15.907  10.542  0.00  0.00     0.031 A 
ATOM     18  HN  UNK N   1      35.307  17.797  11.498  1.00  0.00     0.194 HD
HETATM   19  C   UNK N   1      35.932  15.052  11.596  0.00  0.00     0.070 C 
HETATM   20  C   UNK N   1      34.937  15.492   9.288  0.00  0.00     0.061 A 
ENDBRANCH  13  14
ENDBRANCH  12  13
ENDBRANCH  11  12
ENDBRANCH  10  11
ENDBRANCH   9  10
ENDBRANCH   8   9
ENDBRANCH   1   8
BRANCH   4  21
HETATM   21  C   UNK N   1      23.641  19.697   3.501  0.00  0.00     0.148 A 
HETATM   22  N   UNK N   1      22.657  18.924   3.709  0.00  0.00    -0.368 N 
HETATM   23  C   UNK N   1      21.458  19.493   3.161  0.00  0.00     0.148 A 
ATOM     24  HN  UNK N   1      22.709  18.030   4.195  1.00  0.00     0.161 HD
HETATM   25  C   UNK N   1      21.967  20.818   2.554  0.00  0.00     0.197 A 
HETATM   26  O   UNK N   1      23.316  20.809   2.840  0.00  0.00    -0.334 OA
ENDBRANCH   4  21
TORSDOF 8
ENDMDL
MODEL 4
REMARK VINA RESULT:      -6.3      8.067     13.366
REMARK  8 active torsions:
REMARK  status: ('A' for Active; 'I' for Inactive)
REMARK    1  A    between atoms: C_7  and  C_8 
REMARK    2  A    between atoms: C_8  and  C_9 
REMARK    3  A    between atoms: C_9  and  C_10 
REMARK    4  A    between atoms: C_10  and  C_11 
REMARK    5  A    between atoms: C_11  and  C_12 
REMARK    6  A    between atoms: C_12  and  O_13 
REMARK    7  A    between atoms: O_13  and  C_14 
REMARK    8  A    between atoms: C_17  and  C_21 
ROOT
HETATM    1  C   UNK N   1      32.568  16.778   8.377  0.00  0.00     0.090 A 
HETATM    2  C   UNK N   1      32.097  15.550   8.854  0.00  0.00     0.039 A 
HETATM    3  C   UNK N   1      32.861  14.774   9.724  0.00  0.00     0.018 A 
HETATM    4  C   UNK N   1      34.118  15.219  10.141  0.00  0.00     0.016 A 
HETATM    5  C   UNK N   1      34.611  16.433   9.663  0.00  0.00     0.042 A 
HETATM    6  C   UNK N   1      33.863  17.219   8.783  0.00  0.00     0.068 A 
HETATM    7 Cl   UNK N   1      34.630  18.699   8.226  0.00  0.00    -0.081 Cl
ENDROOT
BRANCH   1   8
HETATM    8  O   UNK N   1      31.737  17.475   7.558  0.00  0.00    -0.349 OA
BRANCH   8   9
HETATM    9  C   UNK N   1      30.382  17.295   7.419  0.00  0.00     0.175 C 
BRANCH   9  10
HETATM   10  C   UNK N   1      30.090  16.690   6.054  0.00  0.00     0.027 C 
BRANCH  10  11
HETATM   11  C   UNK N   1      30.862  17.451   4.981  0.00  0.00     0.002 C 
BRANCH  11  12
HETATM   12  C   UNK N   1      31.800  16.561   4.159  0.00  0.00     0.007 C 
BRANCH  12  13
HETATM   13  C   UNK N   1      33.270  16.944   4.306  0.00  0.00     0.067 C 
BRANCH  13  14
HETATM   14  C   UNK N   1      33.931  15.954   5.197  0.00  0.00     0.078 A 
HETATM   15  O   UNK N   1      35.092  16.136   5.779  0.00  0.00    -0.242 OA
HETATM   16  N   UNK N   1      35.447  15.078   6.440  0.00  0.00    -0.266 N 
HETATM   17  C   UNK N   1      34.472  14.165   6.277  0.00  0.00     0.031 A 
ATOM     18  HN  UNK N   1      36.303  14.961   6.982  1.00  0.00     0.194 HD
HETATM   19  C   UNK N   1      34.511  12.792   6.844  0.00  0.00     0.070 C 
HETATM   20  C   UNK N   1      33.472  14.684   5.485  0.00  0.00     0.061 A 
ENDBRANCH  13  14
ENDBRANCH  12  13
ENDBRANCH  11  12
ENDBRANCH  10  11
ENDBRANCH   9  10
ENDBRANCH   8   9
ENDBRANCH   1   8
BRANCH   4  21
HETATM   21  C   UNK N   1      34.930  14.417  11.071  0.00  0.00     0.148 A 
HETATM   22  N   UNK N   1      36.006  13.837  10.732  0.00  0.00    -0.368 N 
HETATM   23  C   UNK N   1      36.567  13.142  11.856  0.00  0.00     0.148 A 
ATOM     24  HN  UNK N   1      36.413  13.861   9.798  1.00  0.00     0.161 HD
HETATM   25  C   UNK N   1      35.546  13.442  12.975  0.00  0.00     0.197 A 
HETATM   26  O   UNK N   1      34.605  14.233  12.352  0.00  0.00    -0.334 OA
ENDBRANCH   4  21
TORSDOF 8
ENDMDL
MODEL 5
REMARK VINA RESULT:      -6.3     27.875     29.842
REMARK  8 active torsions:
REMARK  status: ('A' for Active; 'I' for Inactive)
REMARK    1  A    between atoms: C_7  and  C_8 
REMARK    2  A    between atoms: C_8  and  C_9 
REMARK    3  A    between atoms: C_9  and  C_10 
REMARK    4  A    between atoms: C_10  and  C_11 
REMARK    5  A    between atoms: C_11  and  C_12 
REMARK    6  A    between atoms: C_12  and  O_13 
REMARK    7  A    between atoms: O_13  and  C_14 
REMARK    8  A    between atoms: C_17  and  C_21 
ROOT
HETATM    1  C   UNK N   1      26.826  25.449  -4.017  0.00  0.00     0.090 A 
HETATM    2  C   UNK N   1      25.917  24.559  -4.599  0.00  0.00     0.039 A 
HETATM    3  C   UNK N   1      26.342  23.577  -5.491  0.00  0.00     0.018 A 
HETATM    4  C   UNK N   1      27.696  23.462  -5.816  0.00  0.00     0.016 A 
HETATM    5  C   UNK N   1      28.614  24.351  -5.258  0.00  0.00     0.042 A 
HETATM    6  C   UNK N   1      28.205  25.348  -4.369  0.00  0.00     0.068 A 
HETATM    7 Cl   UNK N   1      29.463  26.425  -3.783  0.00  0.00    -0.081 Cl
ENDROOT
BRANCH   1   8
HETATM    8  O   UNK N   1      26.318  26.352  -3.136  0.00  0.00    -0.349 OA
BRANCH   8   9
HETATM    9  C   UNK N   1      25.746  27.563  -3.441  0.00  0.00     0.175 C 
BRANCH   9  10
HETATM   10  C   UNK N   1      26.768  28.671  -3.228  0.00  0.00     0.027 C 
BRANCH  10  11
HETATM   11  C   UNK N   1      27.171  29.261  -4.575  0.00  0.00     0.002 C 
BRANCH  11  12
HETATM   12  C   UNK N   1      26.694  28.433  -5.771  0.00  0.00     0.007 C 
BRANCH  12  13
HETATM   13  C   UNK N   1      27.790  28.182  -6.802  0.00  0.00     0.067 C 
BRANCH  13  14
HETATM   14  C   UNK N   1      27.427  26.978  -7.596  0.00  0.00     0.078 A 
HETATM   15  O   UNK N   1      28.280  26.255  -8.283  0.00  0.00    -0.242 OA
HETATM   16  N   UNK N   1      27.670  25.309  -8.926  0.00  0.00    -0.266 N 
HETATM   17  C   UNK N   1      26.358  25.426  -8.649  0.00  0.00     0.031 A 
ATOM     18  HN  UNK N   1      28.102  24.610  -9.529  1.00  0.00     0.194 HD
HETATM   19  C   UNK N   1      25.302  24.553  -9.224  0.00  0.00     0.070 C 
HETATM   20  C   UNK N   1      26.153  26.486  -7.793  0.00  0.00     0.061 A 
ENDBRANCH  13  14
ENDBRANCH  12  13
ENDBRANCH  11  12
ENDBRANCH  10  11
ENDBRANCH   9  10
ENDBRANCH   8   9
ENDBRANCH   1   8
BRANCH   4  21
HETATM   21  C   UNK N   1      28.161  22.421  -6.746  0.00  0.00     0.148 A 
HETATM   22  N   UNK N   1      29.110  21.622  -6.478  0.00  0.00    -0.368 N 
HETATM   23  C   UNK N   1      29.325  20.724  -7.577  0.00  0.00     0.148 A 
ATOM     24  HN  UNK N   1      29.641  21.618  -5.608  1.00  0.00     0.161 HD
HETATM   25  C   UNK N   1      28.262  21.187  -8.597  0.00  0.00     0.197 A 
HETATM   26  O   UNK N   1      27.625  22.226  -7.953  0.00  0.00    -0.334 OA
ENDBRANCH   4  21
TORSDOF 8
ENDMDL
MODEL 6
REMARK VINA RESULT:      -6.2     11.838     17.393
REMARK  8 active torsions:
REMARK  status: ('A' for Active; 'I' for Inactive)
REMARK    1  A    between atoms: C_7  and  C_8 
REMARK    2  A    between atoms: C_8  and  C_9 
REMARK    3  A    between atoms: C_9  and  C_10 
REMARK    4  A    between atoms: C_10  and  C_11 
REMARK    5  A    between atoms: C_11  and  C_12 
REMARK    6  A    between atoms: C_12  and  O_13 
REMARK    7  A    between atoms: O_13  and  C_14 
REMARK    8  A    between atoms: C_17  and  C_21 
ROOT
HETATM    1  C   UNK N   1      28.889  18.250   6.902  0.00  0.00     0.090 A 
HETATM    2  C   UNK N   1      29.208  18.346   8.261  0.00  0.00     0.039 A 
HETATM    3  C   UNK N   1      30.304  17.669   8.793  0.00  0.00     0.018 A 
HETATM    4  C   UNK N   1      31.110  16.881   7.968  0.00  0.00     0.016 A 
HETATM    5  C   UNK N   1      30.798  16.760   6.614  0.00  0.00     0.042 A 
HETATM    6  C   UNK N   1      29.698  17.425   6.065  0.00  0.00     0.068 A 
HETATM    7 Cl   UNK N   1      29.397  17.141   4.358  0.00  0.00    -0.081 Cl
ENDROOT
BRANCH   1   8
HETATM    8  O   UNK N   1      27.820  18.972   6.473  0.00  0.00    -0.349 OA
BRANCH   8   9
HETATM    9  C   UNK N   1      27.482  20.246   6.862  0.00  0.00     0.175 C 
BRANCH   9  10
HETATM   10  C   UNK N   1      26.616  20.887   5.787  0.00  0.00     0.027 C 
BRANCH  10  11
HETATM   11  C   UNK N   1      27.181  20.557   4.409  0.00  0.00     0.002 C 
BRANCH  11  12
HETATM   12  C   UNK N   1      26.111  20.140   3.396  0.00  0.00     0.007 C 
BRANCH  12  13
HETATM   13  C   UNK N   1      25.273  18.954   3.863  0.00  0.00     0.067 C 
BRANCH  13  14
HETATM   14  C   UNK N   1      23.838  19.273   3.645  0.00  0.00     0.078 A 
HETATM   15  O   UNK N   1      22.839  18.545   4.085  0.00  0.00    -0.242 OA
HETATM   16  N   UNK N   1      21.704  19.030   3.687  0.00  0.00    -0.266 N 
HETATM   17  C   UNK N   1      21.979  20.123   2.949  0.00  0.00     0.031 A 
ATOM     18  HN  UNK N   1      20.778  18.656   3.893  1.00  0.00     0.194 HD
HETATM   19  C   UNK N   1      20.950  20.952   2.271  0.00  0.00     0.070 C 
HETATM   20  C   UNK N   1      23.341  20.321   2.896  0.00  0.00     0.061 A 
ENDBRANCH  13  14
ENDBRANCH  12  13
ENDBRANCH  11  12
ENDBRANCH  10  11
ENDBRANCH   9  10
ENDBRANCH   8   9
ENDBRANCH   1   8
BRANCH   4  21
HETATM   21  C   UNK N   1      32.279  16.171   8.513  0.00  0.00     0.148 A 
HETATM   22  N   UNK N   1      33.116  16.711   9.299  0.00  0.00    -0.368 N 
HETATM   23  C   UNK N   1      34.136  15.766   9.658  0.00  0.00     0.148 A 
ATOM     24  HN  UNK N   1      33.071  17.674   9.628  1.00  0.00     0.161 HD
HETATM   25  C   UNK N   1      33.709  14.504   8.878  0.00  0.00     0.197 A 
HETATM   26  O   UNK N   1      32.559  14.898   8.227  0.00  0.00    -0.334 OA
ENDBRANCH   4  21
TORSDOF 8
ENDMDL
MODEL 7
REMARK VINA RESULT:      -6.2     11.777     17.352
REMARK  8 active torsions:
REMARK  status: ('A' for Active; 'I' for Inactive)
REMARK    1  A    between atoms: C_7  and  C_8 
REMARK    2  A    between atoms: C_8  and  C_9 
REMARK    3  A    between atoms: C_9  and  C_10 
REMARK    4  A    between atoms: C_10  and  C_11 
REMARK    5  A    between atoms: C_11  and  C_12 
REMARK    6  A    between atoms: C_12  and  O_13 
REMARK    7  A    between atoms: O_13  and  C_14 
REMARK    8  A    between atoms: C_17  and  C_21 
ROOT
HETATM    1  C   UNK N   1      29.083  17.317   6.555  0.00  0.00     0.090 A 
HETATM    2  C   UNK N   1      30.178  16.890   5.795  0.00  0.00     0.039 A 
HETATM    3  C   UNK N   1      31.429  16.701   6.377  0.00  0.00     0.018 A 
HETATM    4  C   UNK N   1      31.610  16.933   7.743  0.00  0.00     0.016 A 
HETATM    5  C   UNK N   1      30.535  17.375   8.514  0.00  0.00     0.042 A 
HETATM    6  C   UNK N   1      29.275  17.579   7.944  0.00  0.00     0.068 A 
HETATM    7 Cl   UNK N   1      28.028  18.183   9.025  0.00  0.00    -0.081 Cl
ENDROOT
BRANCH   1   8
HETATM    8  O   UNK N   1      27.898  17.443   5.902  0.00  0.00    -0.349 OA
BRANCH   8   9
HETATM    9  C   UNK N   1      27.198  18.606   5.689  0.00  0.00     0.175 C 
BRANCH   9  10
HETATM   10  C   UNK N   1      28.106  19.623   5.013  0.00  0.00     0.027 C 
BRANCH  10  11
HETATM   11  C   UNK N   1      27.345  20.325   3.893  0.00  0.00     0.002 C 
BRANCH  11  12
HETATM   12  C   UNK N   1      25.975  19.704   3.606  0.00  0.00     0.007 C 
BRANCH  12  13
HETATM   13  C   UNK N   1      25.075  20.601   2.761  0.00  0.00     0.067 C 
BRANCH  13  14
HETATM   14  C   UNK N   1      23.659  20.226   3.015  0.00  0.00     0.078 A 
HETATM   15  O   UNK N   1      22.624  20.966   2.692  0.00  0.00    -0.242 OA
HETATM   16  N   UNK N   1      21.521  20.416   3.095  0.00  0.00    -0.266 N 
HETATM   17  C   UNK N   1      21.855  19.267   3.712  0.00  0.00     0.031 A 
ATOM     18  HN  UNK N   1      20.579  20.784   2.968  1.00  0.00     0.194 HD
HETATM   19  C   UNK N   1      20.878  18.351   4.356  0.00  0.00     0.070 C 
HETATM   20  C   UNK N   1      23.222  19.100   3.684  0.00  0.00     0.061 A 
ENDBRANCH  13  14
ENDBRANCH  12  13
ENDBRANCH  11  12
ENDBRANCH  10  11
ENDBRANCH   9  10
ENDBRANCH   8   9
ENDBRANCH   1   8
BRANCH   4  21
HETATM   21  C   UNK N   1      32.923  16.724   8.375  0.00  0.00     0.148 A 
HETATM   22  N   UNK N   1      33.500  15.596   8.423  0.00  0.00    -0.368 N 
HETATM   23  C   UNK N   1      34.762  15.715   9.096  0.00  0.00     0.148 A 
ATOM     24  HN  UNK N   1      33.123  14.730   8.040  1.00  0.00     0.161 HD
HETATM   25  C   UNK N   1      34.806  17.216   9.456  0.00  0.00     0.197 A 
HETATM   26  O   UNK N   1      33.620  17.705   8.952  0.00  0.00    -0.334 OA
ENDBRANCH   4  21
TORSDOF 8
ENDMDL
MODEL 8
REMARK VINA RESULT:      -6.2     27.915     29.832
REMARK  8 active torsions:
REMARK  status: ('A' for Active; 'I' for Inactive)
REMARK    1  A    between atoms: C_7  and  C_8 
REMARK    2  A    between atoms: C_8  and  C_9 
REMARK    3  A    between atoms: C_9  and  C_10 
REMARK    4  A    between atoms: C_10  and  C_11 
REMARK    5  A    between atoms: C_11  and  C_12 
REMARK    6  A    between atoms: C_12  and  O_13 
REMARK    7  A    between atoms: O_13  and  C_14 
REMARK    8  A    between atoms: C_17  and  C_21 
ROOT
HETATM    1  C   UNK N   1      26.288  26.117  -3.978  0.00  0.00     0.090 A 
HETATM    2  C   UNK N   1      27.118  25.025  -3.704  0.00  0.00     0.039 A 
HETATM    3  C   UNK N   1      27.213  23.953  -4.589  0.00  0.00     0.018 A 
HETATM    4  C   UNK N   1      26.477  23.956  -5.777  0.00  0.00     0.016 A 
HETATM    5  C   UNK N   1      25.631  25.029  -6.059  0.00  0.00     0.042 A 
HETATM    6  C   UNK N   1      25.516  26.108  -5.179  0.00  0.00     0.068 A 
HETATM    7 Cl   UNK N   1      24.377  27.363  -5.640  0.00  0.00    -0.081 Cl
ENDROOT
BRANCH   1   8
HETATM    8  O   UNK N   1      26.287  27.127  -3.068  0.00  0.00    -0.349 OA
BRANCH   8   9
HETATM    9  C   UNK N   1      26.329  28.474  -3.338  0.00  0.00     0.175 C 
BRANCH   9  10
HETATM   10  C   UNK N   1      27.664  28.817  -3.982  0.00  0.00     0.027 C 
BRANCH  10  11
HETATM   11  C   UNK N   1      27.425  29.527  -5.311  0.00  0.00     0.002 C 
BRANCH  11  12
HETATM   12  C   UNK N   1      28.361  29.057  -6.429  0.00  0.00     0.007 C 
BRANCH  12  13
HETATM   13  C   UNK N   1      27.756  27.956  -7.294  0.00  0.00     0.067 C 
BRANCH  13  14
HETATM   14  C   UNK N   1      28.628  26.755  -7.211  0.00  0.00     0.078 A 
HETATM   15  O   UNK N   1      28.618  25.767  -8.075  0.00  0.00    -0.242 OA
HETATM   16  N   UNK N   1      29.436  24.829  -7.712  0.00  0.00    -0.266 N 
HETATM   17  C   UNK N   1      30.002  25.224  -6.555  0.00  0.00     0.031 A 
ATOM     18  HN  UNK N   1      29.617  23.957  -8.208  1.00  0.00     0.194 HD
HETATM   19  C   UNK N   1      30.976  24.411  -5.782  0.00  0.00     0.070 C 
HETATM   20  C   UNK N   1      29.514  26.460  -6.194  0.00  0.00     0.061 A 
ENDBRANCH  13  14
ENDBRANCH  12  13
ENDBRANCH  11  12
ENDBRANCH  10  11
ENDBRANCH   9  10
ENDBRANCH   8   9
ENDBRANCH   1   8
BRANCH   4  21
HETATM   21  C   UNK N   1      26.578  22.837  -6.728  0.00  0.00     0.148 A 
HETATM   22  N   UNK N   1      25.568  22.227  -7.195  0.00  0.00    -0.368 N 
HETATM   23  C   UNK N   1      25.989  21.193  -8.097  0.00  0.00     0.148 A 
ATOM     24  HN  UNK N   1      24.598  22.441  -6.964  1.00  0.00     0.161 HD
HETATM   25  C   UNK N   1      27.527  21.323  -8.055  0.00  0.00     0.197 A 
HETATM   26  O   UNK N   1      27.741  22.368  -7.183  0.00  0.00    -0.334 OA
ENDBRANCH   4  21
TORSDOF 8
ENDMDL
MODEL 9
REMARK VINA RESULT:      -6.1      6.463     13.370
REMARK  8 active torsions:
REMARK  status: ('A' for Active; 'I' for Inactive)
REMARK    1  A    between atoms: C_7  and  C_8 
REMARK    2  A    between atoms: C_8  and  C_9 
REMARK    3  A    between atoms: C_9  and  C_10 
REMARK    4  A    between atoms: C_10  and  C_11 
REMARK    5  A    between atoms: C_11  and  C_12 
REMARK    6  A    between atoms: C_12  and  O_13 
REMARK    7  A    between atoms: O_13  and  C_14 
REMARK    8  A    between atoms: C_17  and  C_21 
ROOT
HETATM    1  C   UNK N   1      34.612  15.782   9.397  0.00  0.00     0.090 A 
HETATM    2  C   UNK N   1      35.338  16.551  10.314  0.00  0.00     0.039 A 
HETATM    3  C   UNK N   1      35.680  16.044  11.567  0.00  0.00     0.018 A 
HETATM    4  C   UNK N   1      35.302  14.748  11.927  0.00  0.00     0.016 A 
HETATM    5  C   UNK N   1      34.564  13.973  11.032  0.00  0.00     0.042 A 
HETATM    6  C   UNK N   1      34.205  14.468   9.775  0.00  0.00     0.068 A 
HETATM    7 Cl   UNK N   1      33.234  13.400   8.774  0.00  0.00    -0.081 Cl
ENDROOT
BRANCH   1   8
HETATM    8  O   UNK N   1      34.354  16.353   8.191  0.00  0.00    -0.349 OA
BRANCH   8   9
HETATM    9  C   UNK N   1      33.120  16.696   7.692  0.00  0.00     0.175 C 
BRANCH   9  10
HETATM   10  C   UNK N   1      32.611  17.934   8.416  0.00  0.00     0.027 C 
BRANCH  10  11
HETATM   11  C   UNK N   1      31.096  17.850   8.572  0.00  0.00     0.002 C 
BRANCH  11  12
HETATM   12  C   UNK N   1      30.437  16.870   7.597  0.00  0.00     0.007 C 
BRANCH  12  13
HETATM   13  C   UNK N   1      29.561  17.559   6.555  0.00  0.00     0.067 C 
BRANCH  13  14
HETATM   14  C   UNK N   1      30.157  17.334   5.212  0.00  0.00     0.078 A 
HETATM   15  O   UNK N   1      29.468  17.074   4.126  0.00  0.00    -0.242 OA
HETATM   16  N   UNK N   1      30.257  16.859   3.119  0.00  0.00    -0.266 N 
HETATM   17  C   UNK N   1      31.518  16.982   3.573  0.00  0.00     0.031 A 
ATOM     18  HN  UNK N   1      29.975  16.640   2.164  1.00  0.00     0.194 HD
HETATM   19  C   UNK N   1      32.729  16.773   2.738  0.00  0.00     0.070 C 
HETATM   20  C   UNK N   1      31.505  17.290   4.915  0.00  0.00     0.061 A 
ENDBRANCH  13  14
ENDBRANCH  12  13
ENDBRANCH  11  12
ENDBRANCH  10  11
ENDBRANCH   9  10
ENDBRANCH   8   9
ENDBRANCH   1   8
BRANCH   4  21
HETATM   21  C   UNK N   1      35.668  14.195  13.241  0.00  0.00     0.148 A 
HETATM   22  N   UNK N   1      36.754  14.471  13.834  0.00  0.00    -0.368 N 
HETATM   23  C   UNK N   1      36.819  13.784  15.093  0.00  0.00     0.148 A 
ATOM     24  HN  UNK N   1      37.477  15.092  13.470  1.00  0.00     0.161 HD
HETATM   25  C   UNK N   1      35.486  13.005  15.113  0.00  0.00     0.197 A 
HETATM   26  O   UNK N   1      34.887  13.354  13.922  0.00  0.00    -0.334 OA
ENDBRANCH   4  21
TORSDOF 8
ENDMDL
