MODEL 1
REMARK VINA RESULT:      -6.8      0.000      0.000
REMARK  8 active torsions:
REMARK  status: ('A' for Active; 'I' for Inactive)
REMARK    1  A    between atoms: C_7  and  C_8 
REMARK    2  A    between atoms: C_8  and  C_9 
REMARK    3  A    between atoms: C_9  and  C_10 
REMARK    4  A    between atoms: C_10  and  C_11 
REMARK    5  A    between atoms: C_11  and  C_12 
REMARK    6  A    between atoms: C_12  and  O_13 
REMARK    7  A    between atoms: O_13  and  C_14 
REMARK    8  A    between atoms: C_17  and  C_20 
ROOT
HETATM    1  O   UNK N   1      27.520  18.692   6.588  0.00  0.00    -0.351 OA
ENDROOT
BRANCH   1   2
HETATM    2  C   UNK N   1      27.338  19.797   5.774  0.00  0.00     0.175 C 
BRANCH   2   3
HETATM    3  C   UNK N   1      27.090  19.426   4.316  0.00  0.00     0.027 C 
BRANCH   3   4
HETATM    4  C   UNK N   1      26.628  20.670   3.575  0.00  0.00     0.002 C 
BRANCH   4   5
HETATM    5  C   UNK N   1      25.370  20.403   2.777  0.00  0.00     0.007 C 
BRANCH   5   6
HETATM    6  C   UNK N   1      24.387  19.626   3.638  0.00  0.00     0.067 C 
BRANCH   6   7
HETATM    7  C   UNK N   1      22.980  19.928   3.240  0.00  0.00     0.078 A 
HETATM    8  O   UNK N   1      22.574  21.093   2.799  0.00  0.00    -0.242 OA
HETATM    9  N   UNK N   1      21.296  21.071   2.554  0.00  0.00    -0.266 N 
HETATM   10  C   UNK N   1      20.859  19.835   2.850  0.00  0.00     0.031 A 
ATOM     11  HN  UNK N   1      20.732  21.845   2.204  1.00  0.00     0.194 HD
HETATM   12  C   UNK N   1      19.443  19.396   2.731  0.00  0.00     0.070 C 
HETATM   13  C   UNK N   1      21.907  19.059   3.291  0.00  0.00     0.061 A 
ENDBRANCH   6   7
ENDBRANCH   5   6
ENDBRANCH   4   5
ENDBRANCH   3   4
ENDBRANCH   2   3
ENDBRANCH   1   2
BRANCH   1  14
HETATM   14  C   UNK N   1      28.716  18.277   7.081  0.00  0.00     0.068 A 
HETATM   15  C   UNK N   1      29.103  18.675   8.366  0.00  0.00     0.038 A 
HETATM   16  C   UNK N   1      30.330  18.257   8.894  0.00  0.00     0.018 A 
HETATM   17  C   UNK N   1      31.188  17.448   8.131  0.00  0.00     0.015 A 
HETATM   18  C   UNK N   1      30.804  17.057   6.849  0.00  0.00     0.018 A 
HETATM   19  C   UNK N   1      29.577  17.460   6.334  0.00  0.00     0.038 A 
BRANCH  17  20
HETATM   20  C   UNK N   1      32.484  16.999   8.661  0.00  0.00     0.148 A 
HETATM   21  N   UNK N   1      32.647  15.901   9.270  0.00  0.00    -0.368 N 
HETATM   22  C   UNK N   1      34.022  15.748   9.654  0.00  0.00     0.148 A 
ATOM     23  HN  UNK N   1      31.910  15.223   9.462  1.00  0.00     0.161 HD
HETATM   24  C   UNK N   1      34.663  17.050   9.125  0.00  0.00     0.197 A 
HETATM   25  O   UNK N   1      33.606  17.714   8.537  0.00  0.00    -0.334 OA
ENDBRANCH  17  20
ENDBRANCH   1  14
TORSDOF 8
ENDMDL
MODEL 2
REMARK VINA RESULT:      -6.6      5.150      6.525
REMARK  8 active torsions:
REMARK  status: ('A' for Active; 'I' for Inactive)
REMARK    1  A    between atoms: C_7  and  C_8 
REMARK    2  A    between atoms: C_8  and  C_9 
REMARK    3  A    between atoms: C_9  and  C_10 
REMARK    4  A    between atoms: C_10  and  C_11 
REMARK    5  A    between atoms: C_11  and  C_12 
REMARK    6  A    between atoms: C_12  and  O_13 
REMARK    7  A    between atoms: O_13  and  C_14 
REMARK    8  A    between atoms: C_17  and  C_20 
ROOT
HETATM    1  O   UNK N   1      30.698  18.514   8.977  0.00  0.00    -0.351 OA
ENDROOT
BRANCH   1   2
HETATM    2  C   UNK N   1      29.615  18.054   9.708  0.00  0.00     0.175 C 
BRANCH   2   3
HETATM    3  C   UNK N   1      28.366  17.855   8.857  0.00  0.00     0.027 C 
BRANCH   3   4
HETATM    4  C   UNK N   1      28.295  18.981   7.838  0.00  0.00     0.002 C 
BRANCH   4   5
HETATM    5  C   UNK N   1      28.176  18.444   6.428  0.00  0.00     0.007 C 
BRANCH   5   6
HETATM    6  C   UNK N   1      28.450  16.949   6.437  0.00  0.00     0.067 C 
BRANCH   6   7
HETATM    7  C   UNK N   1      29.709  16.637   5.700  0.00  0.00     0.078 A 
HETATM    8  O   UNK N   1      30.199  15.429   5.557  0.00  0.00    -0.242 OA
HETATM    9  N   UNK N   1      31.317  15.463   4.891  0.00  0.00    -0.266 N 
HETATM   10  C   UNK N   1      31.558  16.750   4.590  0.00  0.00     0.031 A 
ATOM     11  HN  UNK N   1      31.900  14.664   4.644  1.00  0.00     0.194 HD
HETATM   12  C   UNK N   1      32.756  17.227   3.850  0.00  0.00     0.070 C 
HETATM   13  C   UNK N   1      30.549  17.545   5.085  0.00  0.00     0.061 A 
ENDBRANCH   6   7
ENDBRANCH   5   6
ENDBRANCH   4   5
ENDBRANCH   3   4
ENDBRANCH   2   3
ENDBRANCH   1   2
BRANCH   1  14
HETATM   14  C   UNK N   1      31.722  17.741   8.532  0.00  0.00     0.068 A 
HETATM   15  C   UNK N   1      31.637  16.350   8.660  0.00  0.00     0.038 A 
HETATM   16  C   UNK N   1      32.681  15.534   8.205  0.00  0.00     0.018 A 
HETATM   17  C   UNK N   1      33.827  16.110   7.634  0.00  0.00     0.015 A 
HETATM   18  C   UNK N   1      33.913  17.496   7.513  0.00  0.00     0.018 A 
HETATM   19  C   UNK N   1      32.868  18.301   7.949  0.00  0.00     0.038 A 
BRANCH  17  20
HETATM   20  C   UNK N   1      34.940  15.276   7.153  0.00  0.00     0.148 A 
HETATM   21  N   UNK N   1      35.396  14.283   7.794  0.00  0.00    -0.368 N 
HETATM   22  C   UNK N   1      36.470  13.674   7.061  0.00  0.00     0.148 A 
ATOM     23  HN  UNK N   1      35.053  13.964   8.699  1.00  0.00     0.161 HD
HETATM   24  C   UNK N   1      36.558  14.561   5.800  0.00  0.00     0.197 A 
HETATM   25  O   UNK N   1      35.561  15.494   5.991  0.00  0.00    -0.334 OA
ENDBRANCH  17  20
ENDBRANCH   1  14
TORSDOF 8
ENDMDL
MODEL 3
REMARK VINA RESULT:      -6.5      1.446     10.240
REMARK  8 active torsions:
REMARK  status: ('A' for Active; 'I' for Inactive)
REMARK    1  A    between atoms: C_7  and  C_8 
REMARK    2  A    between atoms: C_8  and  C_9 
REMARK    3  A    between atoms: C_9  and  C_10 
REMARK    4  A    between atoms: C_10  and  C_11 
REMARK    5  A    between atoms: C_11  and  C_12 
REMARK    6  A    between atoms: C_12  and  O_13 
REMARK    7  A    between atoms: O_13  and  C_14 
REMARK    8  A    between atoms: C_17  and  C_20 
ROOT
HETATM    1  O   UNK N   1      27.816  19.410   4.587  0.00  0.00    -0.351 OA
ENDROOT
BRANCH   1   2
HETATM    2  C   UNK N   1      28.257  18.449   5.483  0.00  0.00     0.175 C 
BRANCH   2   3
HETATM    3  C   UNK N   1      28.225  18.927   6.930  0.00  0.00     0.027 C 
BRANCH   3   4
HETATM    4  C   UNK N   1      28.235  17.708   7.838  0.00  0.00     0.002 C 
BRANCH   4   5
HETATM    5  C   UNK N   1      28.630  18.076   9.253  0.00  0.00     0.007 C 
BRANCH   5   6
HETATM    6  C   UNK N   1      30.039  18.647   9.247  0.00  0.00     0.067 C 
BRANCH   6   7
HETATM    7  C   UNK N   1      31.023  17.623   8.785  0.00  0.00     0.078 A 
HETATM    8  O   UNK N   1      31.040  16.379   9.199  0.00  0.00    -0.242 OA
HETATM    9  N   UNK N   1      32.021  15.726   8.646  0.00  0.00    -0.266 N 
HETATM   10  C   UNK N   1      32.664  16.586   7.840  0.00  0.00     0.031 A 
ATOM     11  HN  UNK N   1      32.257  14.745   8.797  1.00  0.00     0.194 HD
HETATM   12  C   UNK N   1      33.867  16.242   7.036  0.00  0.00     0.070 C 
HETATM   13  C   UNK N   1      32.057  17.821   7.890  0.00  0.00     0.061 A 
ENDBRANCH   6   7
ENDBRANCH   5   6
ENDBRANCH   4   5
ENDBRANCH   3   4
ENDBRANCH   2   3
ENDBRANCH   1   2
BRANCH   1  14
HETATM   14  C   UNK N   1      26.528  19.573   4.192  0.00  0.00     0.068 A 
HETATM   15  C   UNK N   1      25.524  18.799   4.786  0.00  0.00     0.038 A 
HETATM   16  C   UNK N   1      24.189  18.952   4.395  0.00  0.00     0.018 A 
HETATM   17  C   UNK N   1      23.851  19.874   3.390  0.00  0.00     0.015 A 
HETATM   18  C   UNK N   1      24.851  20.641   2.795  0.00  0.00     0.018 A 
HETATM   19  C   UNK N   1      26.173  20.498   3.198  0.00  0.00     0.038 A 
BRANCH  17  20
HETATM   20  C   UNK N   1      22.456  20.052   2.957  0.00  0.00     0.148 A 
HETATM   21  N   UNK N   1      21.462  19.594   3.596  0.00  0.00    -0.368 N 
HETATM   22  C   UNK N   1      20.241  19.940   2.925  0.00  0.00     0.148 A 
ATOM     23  HN  UNK N   1      21.521  19.058   4.462  1.00  0.00     0.161 HD
HETATM   24  C   UNK N   1      20.748  20.726   1.696  0.00  0.00     0.197 A 
HETATM   25  O   UNK N   1      22.119  20.719   1.850  0.00  0.00    -0.334 OA
ENDBRANCH  17  20
ENDBRANCH   1  14
TORSDOF 8
ENDMDL
MODEL 4
REMARK VINA RESULT:      -6.4      3.330      5.835
REMARK  8 active torsions:
REMARK  status: ('A' for Active; 'I' for Inactive)
REMARK    1  A    between atoms: C_7  and  C_8 
REMARK    2  A    between atoms: C_8  and  C_9 
REMARK    3  A    between atoms: C_9  and  C_10 
REMARK    4  A    between atoms: C_10  and  C_11 
REMARK    5  A    between atoms: C_11  and  C_12 
REMARK    6  A    between atoms: C_12  and  O_13 
REMARK    7  A    between atoms: O_13  and  C_14 
REMARK    8  A    between atoms: C_17  and  C_20 
ROOT
HETATM    1  O   UNK N   1      32.952  16.968   7.521  0.00  0.00    -0.351 OA
ENDROOT
BRANCH   1   2
HETATM    2  C   UNK N   1      31.640  17.392   7.398  0.00  0.00     0.175 C 
BRANCH   2   3
HETATM    3  C   UNK N   1      31.141  18.144   8.626  0.00  0.00     0.027 C 
BRANCH   3   4
HETATM    4  C   UNK N   1      29.733  17.666   8.943  0.00  0.00     0.002 C 
BRANCH   4   5
HETATM    5  C   UNK N   1      28.871  17.621   7.700  0.00  0.00     0.007 C 
BRANCH   5   6
HETATM    6  C   UNK N   1      28.187  18.967   7.517  0.00  0.00     0.067 C 
BRANCH   6   7
HETATM    7  C   UNK N   1      27.895  19.221   6.075  0.00  0.00     0.078 A 
HETATM    8  O   UNK N   1      28.645  18.800   5.086  0.00  0.00    -0.242 OA
HETATM    9  N   UNK N   1      28.159  19.190   3.943  0.00  0.00    -0.266 N 
HETATM   10  C   UNK N   1      27.045  19.893   4.207  0.00  0.00     0.031 A 
ATOM     11  HN  UNK N   1      28.551  18.998   3.021  1.00  0.00     0.194 HD
HETATM   12  C   UNK N   1      26.197  20.538   3.171  0.00  0.00     0.070 C 
HETATM   13  C   UNK N   1      26.829  19.938   5.566  0.00  0.00     0.061 A 
ENDBRANCH   6   7
ENDBRANCH   5   6
ENDBRANCH   4   5
ENDBRANCH   3   4
ENDBRANCH   2   3
ENDBRANCH   1   2
BRANCH   1  14
HETATM   14  C   UNK N   1      33.490  16.412   8.637  0.00  0.00     0.068 A 
HETATM   15  C   UNK N   1      34.508  17.089   9.318  0.00  0.00     0.038 A 
HETATM   16  C   UNK N   1      35.074  16.535  10.473  0.00  0.00     0.018 A 
HETATM   17  C   UNK N   1      34.635  15.287  10.944  0.00  0.00     0.015 A 
HETATM   18  C   UNK N   1      33.625  14.611  10.261  0.00  0.00     0.018 A 
HETATM   19  C   UNK N   1      33.053  15.172   9.126  0.00  0.00     0.038 A 
BRANCH  17  20
HETATM   20  C   UNK N   1      35.216  14.680  12.151  0.00  0.00     0.148 A 
HETATM   21  N   UNK N   1      36.241  15.138  12.739  0.00  0.00    -0.368 N 
HETATM   22  C   UNK N   1      36.554  14.333  13.886  0.00  0.00     0.148 A 
ATOM     23  HN  UNK N   1      36.768  15.959  12.441  1.00  0.00     0.161 HD
HETATM   24  C   UNK N   1      35.452  13.251  13.844  0.00  0.00     0.197 A 
HETATM   25  O   UNK N   1      34.706  13.593  12.736  0.00  0.00    -0.334 OA
ENDBRANCH  17  20
ENDBRANCH   1  14
TORSDOF 8
ENDMDL
MODEL 5
REMARK VINA RESULT:      -6.4      3.964      5.811
REMARK  8 active torsions:
REMARK  status: ('A' for Active; 'I' for Inactive)
REMARK    1  A    between atoms: C_7  and  C_8 
REMARK    2  A    between atoms: C_8  and  C_9 
REMARK    3  A    between atoms: C_9  and  C_10 
REMARK    4  A    between atoms: C_10  and  C_11 
REMARK    5  A    between atoms: C_11  and  C_12 
REMARK    6  A    between atoms: C_12  and  O_13 
REMARK    7  A    between atoms: O_13  and  C_14 
REMARK    8  A    between atoms: C_17  and  C_20 
ROOT
HETATM    1  O   UNK N   1      34.016  17.609   5.649  0.00  0.00    -0.351 OA
ENDROOT
BRANCH   1   2
HETATM    2  C   UNK N   1      33.193  17.088   4.665  0.00  0.00     0.175 C 
BRANCH   2   3
HETATM    3  C   UNK N   1      31.785  17.671   4.697  0.00  0.00     0.027 C 
BRANCH   3   4
HETATM    4  C   UNK N   1      30.890  16.722   5.478  0.00  0.00     0.002 C 
BRANCH   4   5
HETATM    5  C   UNK N   1      30.593  17.256   6.864  0.00  0.00     0.007 C 
BRANCH   5   6
HETATM    6  C   UNK N   1      29.157  16.920   7.232  0.00  0.00     0.067 C 
BRANCH   6   7
HETATM    7  C   UNK N   1      28.232  18.010   6.803  0.00  0.00     0.078 A 
HETATM    8  O   UNK N   1      27.264  17.856   5.933  0.00  0.00    -0.242 OA
HETATM    9  N   UNK N   1      26.639  18.980   5.736  0.00  0.00    -0.266 N 
HETATM   10  C   UNK N   1      27.230  19.902   6.516  0.00  0.00     0.031 A 
ATOM     11  HN  UNK N   1      25.850  19.134   5.108  1.00  0.00     0.194 HD
HETATM   12  C   UNK N   1      26.830  21.332   6.571  0.00  0.00     0.070 C 
HETATM   13  C   UNK N   1      28.258  19.325   7.227  0.00  0.00     0.061 A 
ENDBRANCH   6   7
ENDBRANCH   5   6
ENDBRANCH   4   5
ENDBRANCH   3   4
ENDBRANCH   2   3
ENDBRANCH   1   2
BRANCH   1  14
HETATM   14  C   UNK N   1      34.265  17.021   6.847  0.00  0.00     0.068 A 
HETATM   15  C   UNK N   1      34.128  17.771   8.021  0.00  0.00     0.038 A 
HETATM   16  C   UNK N   1      34.378  17.183   9.267  0.00  0.00     0.018 A 
HETATM   17  C   UNK N   1      34.784  15.841   9.345  0.00  0.00     0.015 A 
HETATM   18  C   UNK N   1      34.926  15.097   8.175  0.00  0.00     0.018 A 
HETATM   19  C   UNK N   1      34.660  15.678   6.941  0.00  0.00     0.038 A 
BRANCH  17  20
HETATM   20  C   UNK N   1      35.058  15.202  10.641  0.00  0.00     0.148 A 
HETATM   21  N   UNK N   1      34.436  14.180  11.061  0.00  0.00    -0.368 N 
HETATM   22  C   UNK N   1      34.937  13.792  12.349  0.00  0.00     0.148 A 
ATOM     23  HN  UNK N   1      33.689  13.703  10.558  1.00  0.00     0.161 HD
HETATM   24  C   UNK N   1      36.029  14.853  12.616  0.00  0.00     0.197 A 
HETATM   25  O   UNK N   1      35.993  15.643  11.486  0.00  0.00    -0.334 OA
ENDBRANCH  17  20
ENDBRANCH   1  14
TORSDOF 8
ENDMDL
MODEL 6
REMARK VINA RESULT:      -6.4      8.275     14.839
REMARK  8 active torsions:
REMARK  status: ('A' for Active; 'I' for Inactive)
REMARK    1  A    between atoms: C_7  and  C_8 
REMARK    2  A    between atoms: C_8  and  C_9 
REMARK    3  A    between atoms: C_9  and  C_10 
REMARK    4  A    between atoms: C_10  and  C_11 
REMARK    5  A    between atoms: C_11  and  C_12 
REMARK    6  A    between atoms: C_12  and  O_13 
REMARK    7  A    between atoms: O_13  and  C_14 
REMARK    8  A    between atoms: C_17  and  C_20 
ROOT
HETATM    1  O   UNK N   1      36.410  12.045  12.170  0.00  0.00    -0.351 OA
ENDROOT
BRANCH   1   2
HETATM    2  C   UNK N   1      36.094  11.721  13.479  0.00  0.00     0.175 C 
BRANCH   2   3
HETATM    3  C   UNK N   1      34.631  11.335  13.659  0.00  0.00     0.027 C 
BRANCH   3   4
HETATM    4  C   UNK N   1      34.154  11.872  14.999  0.00  0.00     0.002 C 
BRANCH   4   5
HETATM    5  C   UNK N   1      35.262  12.602  15.728  0.00  0.00     0.007 C 
BRANCH   5   6
HETATM    6  C   UNK N   1      34.666  13.384  16.888  0.00  0.00     0.067 C 
BRANCH   6   7
HETATM    7  C   UNK N   1      35.095  12.803  18.194  0.00  0.00     0.078 A 
HETATM    8  O   UNK N   1      35.262  13.501  19.291  0.00  0.00    -0.242 OA
HETATM    9  N   UNK N   1      35.662  12.736  20.266  0.00  0.00    -0.266 N 
HETATM   10  C   UNK N   1      35.756  11.489  19.775  0.00  0.00     0.031 A 
ATOM     11  HN  UNK N   1      35.865  13.028  21.221  1.00  0.00     0.194 HD
HETATM   12  C   UNK N   1      36.205  10.311  20.562  0.00  0.00     0.070 C 
HETATM   13  C   UNK N   1      35.397  11.479  18.446  0.00  0.00     0.061 A 
ENDBRANCH   6   7
ENDBRANCH   5   6
ENDBRANCH   4   5
ENDBRANCH   3   4
ENDBRANCH   2   3
ENDBRANCH   1   2
BRANCH   1  14
HETATM   14  C   UNK N   1      35.908  13.107  11.488  0.00  0.00     0.068 A 
HETATM   15  C   UNK N   1      36.120  14.400  11.981  0.00  0.00     0.038 A 
HETATM   16  C   UNK N   1      35.614  15.509  11.293  0.00  0.00     0.018 A 
HETATM   17  C   UNK N   1      34.876  15.329  10.111  0.00  0.00     0.015 A 
HETATM   18  C   UNK N   1      34.660  14.040   9.625  0.00  0.00     0.018 A 
HETATM   19  C   UNK N   1      35.179  12.943  10.301  0.00  0.00     0.038 A 
BRANCH  17  20
HETATM   20  C   UNK N   1      34.329  16.477   9.372  0.00  0.00     0.148 A 
HETATM   21  N   UNK N   1      33.091  16.645   9.158  0.00  0.00    -0.368 N 
HETATM   22  C   UNK N   1      32.877  17.858   8.420  0.00  0.00     0.148 A 
ATOM     23  HN  UNK N   1      32.354  16.011   9.465  1.00  0.00     0.161 HD
HETATM   24  C   UNK N   1      34.315  18.389   8.228  0.00  0.00     0.197 A 
HETATM   25  O   UNK N   1      35.095  17.447   8.866  0.00  0.00    -0.334 OA
ENDBRANCH  17  20
ENDBRANCH   1  14
TORSDOF 8
ENDMDL
MODEL 7
REMARK VINA RESULT:      -6.4      3.826      7.196
REMARK  8 active torsions:
REMARK  status: ('A' for Active; 'I' for Inactive)
REMARK    1  A    between atoms: C_7  and  C_8 
REMARK    2  A    between atoms: C_8  and  C_9 
REMARK    3  A    between atoms: C_9  and  C_10 
REMARK    4  A    between atoms: C_10  and  C_11 
REMARK    5  A    between atoms: C_11  and  C_12 
REMARK    6  A    between atoms: C_12  and  O_13 
REMARK    7  A    between atoms: O_13  and  C_14 
REMARK    8  A    between atoms: C_17  and  C_20 
ROOT
HETATM    1  O   UNK N   1      34.492  16.290   8.379  0.00  0.00    -0.351 OA
ENDROOT
BRANCH   1   2
HETATM    2  C   UNK N   1      34.338  17.642   8.119  0.00  0.00     0.175 C 
BRANCH   2   3
HETATM    3  C   UNK N   1      33.002  17.973   7.464  0.00  0.00     0.027 C 
BRANCH   3   4
HETATM    4  C   UNK N   1      31.906  17.228   8.209  0.00  0.00     0.002 C 
BRANCH   4   5
HETATM    5  C   UNK N   1      30.676  17.046   7.345  0.00  0.00     0.007 C 
BRANCH   5   6
HETATM    6  C   UNK N   1      29.438  17.382   8.160  0.00  0.00     0.067 C 
BRANCH   6   7
HETATM    7  C   UNK N   1      28.582  18.372   7.441  0.00  0.00     0.078 A 
HETATM    8  O   UNK N   1      27.852  19.284   8.036  0.00  0.00    -0.242 OA
HETATM    9  N   UNK N   1      27.194  19.987   7.160  0.00  0.00    -0.266 N 
HETATM   10  C   UNK N   1      27.514  19.508   5.947  0.00  0.00     0.031 A 
ATOM     11  HN  UNK N   1      26.555  20.757   7.358  1.00  0.00     0.194 HD
HETATM   12  C   UNK N   1      26.956  20.022   4.669  0.00  0.00     0.070 C 
HETATM   13  C   UNK N   1      28.409  18.469   6.074  0.00  0.00     0.061 A 
ENDBRANCH   6   7
ENDBRANCH   5   6
ENDBRANCH   4   5
ENDBRANCH   3   4
ENDBRANCH   2   3
ENDBRANCH   1   2
BRANCH   1  14
HETATM   14  C   UNK N   1      34.797  15.760   9.591  0.00  0.00     0.068 A 
HETATM   15  C   UNK N   1      34.316  14.489   9.924  0.00  0.00     0.038 A 
HETATM   16  C   UNK N   1      34.620  13.923  11.168  0.00  0.00     0.018 A 
HETATM   17  C   UNK N   1      35.398  14.636  12.096  0.00  0.00     0.015 A 
HETATM   18  C   UNK N   1      35.872  15.904  11.765  0.00  0.00     0.018 A 
HETATM   19  C   UNK N   1      35.582  16.456  10.523  0.00  0.00     0.038 A 
BRANCH  17  20
HETATM   20  C   UNK N   1      35.728  14.066  13.411  0.00  0.00     0.148 A 
HETATM   21  N   UNK N   1      36.810  14.308  14.025  0.00  0.00    -0.368 N 
HETATM   22  C   UNK N   1      36.830  13.612  15.281  0.00  0.00     0.148 A 
ATOM     23  HN  UNK N   1      37.557  14.908  13.679  1.00  0.00     0.161 HD
HETATM   24  C   UNK N   1      35.475  12.870  15.274  0.00  0.00     0.197 A 
HETATM   25  O   UNK N   1      34.909  13.245  14.074  0.00  0.00    -0.334 OA
ENDBRANCH  17  20
ENDBRANCH   1  14
TORSDOF 8
ENDMDL
MODEL 8
REMARK VINA RESULT:      -6.4      8.537     13.967
REMARK  8 active torsions:
REMARK  status: ('A' for Active; 'I' for Inactive)
REMARK    1  A    between atoms: C_7  and  C_8 
REMARK    2  A    between atoms: C_8  and  C_9 
REMARK    3  A    between atoms: C_9  and  C_10 
REMARK    4  A    between atoms: C_10  and  C_11 
REMARK    5  A    between atoms: C_11  and  C_12 
REMARK    6  A    between atoms: C_12  and  O_13 
REMARK    7  A    between atoms: O_13  and  C_14 
REMARK    8  A    between atoms: C_17  and  C_20 
ROOT
HETATM    1  O   UNK N   1      34.592  13.293  15.267  0.00  0.00    -0.351 OA
ENDROOT
BRANCH   1   2
HETATM    2  C   UNK N   1      35.035  12.901  14.015  0.00  0.00     0.175 C 
BRANCH   2   3
HETATM    3  C   UNK N   1      36.232  13.709  13.529  0.00  0.00     0.027 C 
BRANCH   3   4
HETATM    4  C   UNK N   1      36.602  13.229  12.135  0.00  0.00     0.002 C 
BRANCH   4   5
HETATM    5  C   UNK N   1      36.670  14.379  11.153  0.00  0.00     0.007 C 
BRANCH   5   6
HETATM    6  C   UNK N   1      35.842  15.539  11.684  0.00  0.00     0.067 C 
BRANCH   6   7
HETATM    7  C   UNK N   1      35.225  16.306  10.562  0.00  0.00     0.078 A 
HETATM    8  O   UNK N   1      35.555  17.534  10.240  0.00  0.00    -0.242 OA
HETATM    9  N   UNK N   1      34.837  17.955   9.239  0.00  0.00    -0.266 N 
HETATM   10  C   UNK N   1      34.007  16.954   8.901  0.00  0.00     0.031 A 
ATOM     11  HN  UNK N   1      34.893  18.871   8.797  1.00  0.00     0.194 HD
HETATM   12  C   UNK N   1      32.997  17.035   7.813  0.00  0.00     0.070 C 
HETATM   13  C   UNK N   1      34.221  15.868   9.720  0.00  0.00     0.061 A 
ENDBRANCH   6   7
ENDBRANCH   5   6
ENDBRANCH   4   5
ENDBRANCH   3   4
ENDBRANCH   2   3
ENDBRANCH   1   2
BRANCH   1  14
HETATM   14  C   UNK N   1      34.904  12.673  16.434  0.00  0.00     0.068 A 
HETATM   15  C   UNK N   1      34.958  13.421  17.615  0.00  0.00     0.038 A 
HETATM   16  C   UNK N   1      35.276  12.801  18.829  0.00  0.00     0.018 A 
HETATM   17  C   UNK N   1      35.560  11.426  18.866  0.00  0.00     0.015 A 
HETATM   18  C   UNK N   1      35.513  10.683  17.687  0.00  0.00     0.018 A 
HETATM   19  C   UNK N   1      35.179  11.298  16.487  0.00  0.00     0.038 A 
BRANCH  17  20
HETATM   20  C   UNK N   1      35.902  10.752  20.127  0.00  0.00     0.148 A 
HETATM   21  N   UNK N   1      35.042  10.410  20.992  0.00  0.00    -0.368 N 
HETATM   22  C   UNK N   1      35.686   9.769  22.104  0.00  0.00     0.148 A 
ATOM     23  HN  UNK N   1      34.038  10.569  20.912  1.00  0.00     0.161 HD
HETATM   24  C   UNK N   1      37.175   9.812  21.696  0.00  0.00     0.197 A 
HETATM   25  O   UNK N   1      37.155  10.435  20.465  0.00  0.00    -0.334 OA
ENDBRANCH  17  20
ENDBRANCH   1  14
TORSDOF 8
ENDMDL
MODEL 9
REMARK VINA RESULT:      -6.2      3.522      6.270
REMARK  8 active torsions:
REMARK  status: ('A' for Active; 'I' for Inactive)
REMARK    1  A    between atoms: C_7  and  C_8 
REMARK    2  A    between atoms: C_8  and  C_9 
REMARK    3  A    between atoms: C_9  and  C_10 
REMARK    4  A    between atoms: C_10  and  C_11 
REMARK    5  A    between atoms: C_11  and  C_12 
REMARK    6  A    between atoms: C_12  and  O_13 
REMARK    7  A    between atoms: O_13  and  C_14 
REMARK    8  A    between atoms: C_17  and  C_20 
ROOT
HETATM    1  O   UNK N   1      22.855  20.986   2.660  0.00  0.00    -0.351 OA
ENDROOT
BRANCH   1   2
HETATM    2  C   UNK N   1      21.566  20.522   2.865  0.00  0.00     0.175 C 
BRANCH   2   3
HETATM    3  C   UNK N   1      20.905  20.022   1.586  0.00  0.00     0.027 C 
BRANCH   3   4
HETATM    4  C   UNK N   1      20.365  18.624   1.840  0.00  0.00     0.002 C 
BRANCH   4   5
HETATM    5  C   UNK N   1      20.417  18.269   3.311  0.00  0.00     0.007 C 
BRANCH   5   6
HETATM    6  C   UNK N   1      21.047  16.894   3.471  0.00  0.00     0.067 C 
BRANCH   6   7
HETATM    7  C   UNK N   1      21.331  16.606   4.908  0.00  0.00     0.078 A 
HETATM    8  O   UNK N   1      22.498  16.224   5.366  0.00  0.00    -0.242 OA
HETATM    9  N   UNK N   1      22.443  16.023   6.651  0.00  0.00    -0.266 N 
HETATM   10  C   UNK N   1      21.185  16.289   7.039  0.00  0.00     0.031 A 
ATOM     11  HN  UNK N   1      23.211  15.721   7.250  1.00  0.00     0.194 HD
HETATM   12  C   UNK N   1      20.694  16.160   8.436  0.00  0.00     0.070 C 
HETATM   13  C   UNK N   1      20.430  16.674   5.954  0.00  0.00     0.061 A 
ENDBRANCH   6   7
ENDBRANCH   5   6
ENDBRANCH   4   5
ENDBRANCH   3   4
ENDBRANCH   2   3
ENDBRANCH   1   2
BRANCH   1  14
HETATM   14  C   UNK N   1      23.982  20.383   3.118  0.00  0.00     0.068 A 
HETATM   15  C   UNK N   1      25.231  20.915   2.778  0.00  0.00     0.038 A 
HETATM   16  C   UNK N   1      26.406  20.310   3.241  0.00  0.00     0.018 A 
HETATM   17  C   UNK N   1      26.337  19.155   4.037  0.00  0.00     0.015 A 
HETATM   18  C   UNK N   1      25.092  18.622   4.370  0.00  0.00     0.018 A 
HETATM   19  C   UNK N   1      23.928  19.235   3.923  0.00  0.00     0.038 A 
BRANCH  17  20
HETATM   20  C   UNK N   1      27.556  18.497   4.532  0.00  0.00     0.148 A 
HETATM   21  N   UNK N   1      28.435  17.992   3.773  0.00  0.00    -0.368 N 
HETATM   22  C   UNK N   1      29.503  17.435   4.555  0.00  0.00     0.148 A 
ATOM     23  HN  UNK N   1      28.391  17.981   2.754  1.00  0.00     0.161 HD
HETATM   24  C   UNK N   1      29.043  17.725   6.001  0.00  0.00     0.197 A 
HETATM   25  O   UNK N   1      27.842  18.382   5.832  0.00  0.00    -0.334 OA
ENDBRANCH  17  20
ENDBRANCH   1  14
TORSDOF 8
ENDMDL
