REMARK  15 active torsions:
REMARK  status: ('A' for Active; 'I' for Inactive)
REMARK    1  A    between atoms: O_1  and  C_2 
REMARK    2  A    between atoms: C_2  and  C_3 
REMARK    3  A    between atoms: C_3  and  O_4 
REMARK    4  A    between atoms: O_4  and  C_5 
REMARK    5  A    between atoms: C_5  and  O_6 
REMARK    6  A    between atoms: O_6  and  C_11 
REMARK    7  A    between atoms: C_10  and  C_11 
REMARK    8  A    between atoms: C_13  and  C_14 
REMARK    9  A    between atoms: C_14  and  C_15 
REMARK   10  A    between atoms: C_15  and  C_16 
REMARK   11  A    between atoms: C_16  and  C_17 
REMARK   12  A    between atoms: C_17  and  C_18 
REMARK   13  A    between atoms: C_18  and  O_19 
REMARK   14  A    between atoms: O_19  and  C_20 
REMARK   15  A    between atoms: C_23  and  C_28 
ROOT
HETATM    1  C   UNK N   1      -0.257  -1.540  -1.136  0.00  0.00     0.002 C 
ENDROOT
BRANCH   1   2
HETATM    2  C   UNK N   1      -0.887  -2.397  -0.031  0.00  0.00     0.007 C 
BRANCH   2   3
HETATM    3  C   UNK N   1      -2.375  -2.641  -0.249  0.00  0.00     0.067 C 
BRANCH   3   4
HETATM    4  C   UNK N   1      -3.187  -1.407  -0.017  0.00  0.00     0.078 A 
HETATM    5  O   UNK N   1      -4.484  -1.331  -0.194  0.00  0.00    -0.242 OA
HETATM    6  N   UNK N   1      -4.903  -0.116   0.023  0.00  0.00    -0.263 N 
HETATM    7  C   UNK N   1      -3.824   0.615   0.354  0.00  0.00     0.058 A 
ATOM      8  HN  UNK N   1      -5.865   0.217  -0.045  1.00  0.00     0.194 HD
HETATM    9  C   UNK N   1      -2.705  -0.169   0.348  0.00  0.00     0.064 A 
BRANCH   7  10
HETATM   10  C   UNK N   1      -3.824   2.074   0.617  0.00  0.00     0.229 C 
BRANCH  10  11
HETATM   11  O   UNK N   1      -4.287   2.744  -0.517  0.00  0.00    -0.361 OA
BRANCH  11  12
HETATM   12  C   UNK N   1      -4.932   3.879  -0.024  0.00  0.00     0.338 C 
BRANCH  12  13
HETATM   13  O   UNK N   1      -6.163   3.523   0.532  0.00  0.00    -0.365 OA
BRANCH  13  14
HETATM   14  C   UNK N   1      -7.069   4.455   0.038  0.00  0.00     0.196 C 
BRANCH  14  15
HETATM   15  C   UNK N   1      -8.429   3.803  -0.080  0.00  0.00     0.190 C 
BRANCH  15  16
HETATM   16  O   UNK N   1      -9.395   4.786  -0.280  0.00  0.00    -0.399 OA
HETATM   17  H   UNK N   1      -9.138   5.711  -0.419  0.00  0.00     0.209 HD
ENDBRANCH  15  16
ENDBRANCH  14  15
ENDBRANCH  13  14
ENDBRANCH  12  13
ENDBRANCH  11  12
ENDBRANCH  10  11
ENDBRANCH   7  10
ENDBRANCH   3   4
ENDBRANCH   2   3
ENDBRANCH   1   2
BRANCH   1  18
HETATM   18  C   UNK N   1       0.148  -0.149  -0.641  0.00  0.00     0.027 C 
BRANCH  18  19
HETATM   19  C   UNK N   1       1.101  -0.218   0.545  0.00  0.00     0.176 C 
BRANCH  19  20
HETATM   20  O   UNK N   1       2.359   0.208   0.185  0.00  0.00    -0.348 OA
BRANCH  20  21
HETATM   21  C   UNK N   1       3.483  -0.563   0.141  0.00  0.00     0.112 A 
HETATM   22  C   UNK N   1       4.722   0.085  -0.056  0.00  0.00     0.070 A 
HETATM   23  C   UNK N   1       5.912  -0.654  -0.112  0.00  0.00     0.042 A 
HETATM   24 Cl   UNK N   1       4.804   1.834  -0.210  0.00  0.00    -0.081 Cl
HETATM   25  C   UNK N   1       5.879  -2.047   0.016  0.00  0.00     0.018 A 
HETATM   26  C   UNK N   1       4.667  -2.687   0.210  0.00  0.00     0.042 A 
HETATM   27  C   UNK N   1       3.477  -1.983   0.282  0.00  0.00     0.070 A 
HETATM   28 Cl   UNK N   1       2.062  -2.971   0.558  0.00  0.00    -0.081 Cl
BRANCH  25  29
HETATM   29  C   UNK N   1       7.094  -2.872  -0.033  0.00  0.00     0.148 A 
HETATM   30  N   UNK N   1       8.264  -2.401  -0.156  0.00  0.00    -0.368 N 
HETATM   31  C   UNK N   1       9.226  -3.468  -0.159  0.00  0.00     0.148 A 
ATOM     32  HN  UNK N   1       8.490  -1.409  -0.240  1.00  0.00     0.161 HD
HETATM   33  C   UNK N   1       8.335  -4.722  -0.012  0.00  0.00     0.197 A 
HETATM   34  O   UNK N   1       7.061  -4.204   0.056  0.00  0.00    -0.334 OA
ENDBRANCH  25  29
ENDBRANCH  20  21
ENDBRANCH  19  20
ENDBRANCH  18  19
ENDBRANCH   1  18
TORSDOF 15
