MODEL 1
REMARK VINA RESULT:      -6.7      0.000      0.000
REMARK  15 active torsions:
REMARK  status: ('A' for Active; 'I' for Inactive)
REMARK    1  A    between atoms: O_1  and  C_2 
REMARK    2  A    between atoms: C_2  and  C_3 
REMARK    3  A    between atoms: C_3  and  O_4 
REMARK    4  A    between atoms: O_4  and  C_5 
REMARK    5  A    between atoms: C_5  and  O_6 
REMARK    6  A    between atoms: O_6  and  C_11 
REMARK    7  A    between atoms: C_10  and  C_11 
REMARK    8  A    between atoms: C_13  and  C_14 
REMARK    9  A    between atoms: C_14  and  C_15 
REMARK   10  A    between atoms: C_15  and  C_16 
REMARK   11  A    between atoms: C_16  and  C_17 
REMARK   12  A    between atoms: C_17  and  C_18 
REMARK   13  A    between atoms: C_18  and  O_19 
REMARK   14  A    between atoms: O_19  and  C_20 
REMARK   15  A    between atoms: C_23  and  C_28 
ROOT
HETATM    1  C   UNK N   1      27.030  20.930   5.269  0.00  0.00     0.002 C 
ENDROOT
BRANCH   1   2
HETATM    2  C   UNK N   1      25.579  20.497   5.021  0.00  0.00     0.007 C 
BRANCH   2   3
HETATM    3  C   UNK N   1      25.296  20.191   3.556  0.00  0.00     0.067 C 
BRANCH   3   4
HETATM    4  C   UNK N   1      23.831  20.174   3.258  0.00  0.00     0.078 A 
HETATM    5  O   UNK N   1      23.159  21.199   2.794  0.00  0.00    -0.242 OA
HETATM    6  N   UNK N   1      21.892  20.907   2.695  0.00  0.00    -0.263 N 
HETATM    7  C   UNK N   1      21.752  19.637   3.114  0.00  0.00     0.058 A 
ATOM      8  HN  UNK N   1      21.150  21.523   2.363  1.00  0.00     0.194 HD
HETATM    9  C   UNK N   1      22.965  19.125   3.478  0.00  0.00     0.064 A 
BRANCH   7  10
HETATM   10  C   UNK N   1      20.465  18.912   3.238  0.00  0.00     0.229 C 
BRANCH  10  11
HETATM   11  O   UNK N   1      20.648  17.787   4.044  0.00  0.00    -0.361 OA
BRANCH  11  12
HETATM   12  C   UNK N   1      20.075  16.735   3.328  0.00  0.00     0.338 C 
BRANCH  12  13
HETATM   13  O   UNK N   1      20.713  16.598   2.092  0.00  0.00    -0.365 OA
BRANCH  13  14
HETATM   14  C   UNK N   1      19.877  15.781   1.340  0.00  0.00     0.196 C 
BRANCH  14  15
HETATM   15  C   UNK N   1      19.472  16.517   0.082  0.00  0.00     0.190 C 
BRANCH  15  16
HETATM   16  O   UNK N   1      20.297  17.627  -0.088  0.00  0.00    -0.399 OA
HETATM   17  H   UNK N   1      20.557  17.919  -0.975  0.00  0.00     0.209 HD
ENDBRANCH  15  16
ENDBRANCH  14  15
ENDBRANCH  13  14
ENDBRANCH  12  13
ENDBRANCH  11  12
ENDBRANCH  10  11
ENDBRANCH   7  10
ENDBRANCH   3   4
ENDBRANCH   2   3
ENDBRANCH   1   2
BRANCH   1  18
HETATM   18  C   UNK N   1      27.827  19.888   6.058  0.00  0.00     0.027 C 
BRANCH  18  19
HETATM   19  C   UNK N   1      28.424  18.819   5.153  0.00  0.00     0.176 C 
BRANCH  19  20
HETATM   20  O   UNK N   1      28.661  17.661   5.858  0.00  0.00    -0.348 OA
BRANCH  20  21
HETATM   21  C   UNK N   1      29.767  17.393   6.610  0.00  0.00     0.112 A 
HETATM   22  C   UNK N   1      29.603  17.272   8.007  0.00  0.00     0.070 A 
HETATM   23  C   UNK N   1      30.702  16.999   8.833  0.00  0.00     0.042 A 
HETATM   24 Cl   UNK N   1      28.014  17.434   8.740  0.00  0.00    -0.081 Cl
HETATM   25  C   UNK N   1      31.979  16.857   8.277  0.00  0.00     0.018 A 
HETATM   26  C   UNK N   1      32.144  16.974   6.907  0.00  0.00     0.042 A 
HETATM   27  C   UNK N   1      31.076  17.230   6.065  0.00  0.00     0.070 A 
HETATM   28 Cl   UNK N   1      31.489  17.315   4.369  0.00  0.00    -0.081 Cl
BRANCH  25  29
HETATM   29  C   UNK N   1      33.166  16.569   9.093  0.00  0.00     0.148 A 
HETATM   30  N   UNK N   1      33.370  15.465   9.680  0.00  0.00    -0.368 N 
HETATM   31  C   UNK N   1      34.623  15.505  10.382  0.00  0.00     0.148 A 
ATOM     32  HN  UNK N   1      32.738  14.664   9.657  1.00  0.00     0.161 HD
HETATM   33  C   UNK N   1      35.133  16.932  10.075  0.00  0.00     0.197 A 
HETATM   34  O   UNK N   1      34.143  17.461   9.277  0.00  0.00    -0.334 OA
ENDBRANCH  25  29
ENDBRANCH  20  21
ENDBRANCH  19  20
ENDBRANCH  18  19
ENDBRANCH   1  18
TORSDOF 15
ENDMDL
MODEL 2
REMARK VINA RESULT:      -6.5      7.413     12.627
REMARK  15 active torsions:
REMARK  status: ('A' for Active; 'I' for Inactive)
REMARK    1  A    between atoms: O_1  and  C_2 
REMARK    2  A    between atoms: C_2  and  C_3 
REMARK    3  A    between atoms: C_3  and  O_4 
REMARK    4  A    between atoms: O_4  and  C_5 
REMARK    5  A    between atoms: C_5  and  O_6 
REMARK    6  A    between atoms: O_6  and  C_11 
REMARK    7  A    between atoms: C_10  and  C_11 
REMARK    8  A    between atoms: C_13  and  C_14 
REMARK    9  A    between atoms: C_14  and  C_15 
REMARK   10  A    between atoms: C_15  and  C_16 
REMARK   11  A    between atoms: C_16  and  C_17 
REMARK   12  A    between atoms: C_17  and  C_18 
REMARK   13  A    between atoms: C_18  and  O_19 
REMARK   14  A    between atoms: O_19  and  C_20 
REMARK   15  A    between atoms: C_23  and  C_28 
ROOT
HETATM    1  C   UNK N   1      34.961  13.444  12.048  0.00  0.00     0.002 C 
ENDROOT
BRANCH   1   2
HETATM    2  C   UNK N   1      35.236  14.221  10.754  0.00  0.00     0.007 C 
BRANCH   2   3
HETATM    3  C   UNK N   1      35.595  15.680  11.007  0.00  0.00     0.067 C 
BRANCH   3   4
HETATM    4  C   UNK N   1      35.117  16.575   9.909  0.00  0.00     0.078 A 
HETATM    5  O   UNK N   1      35.401  17.852   9.819  0.00  0.00    -0.242 OA
HETATM    6  N   UNK N   1      34.792  18.383   8.796  0.00  0.00    -0.263 N 
HETATM    7  C   UNK N   1      34.090  17.399   8.207  0.00  0.00     0.058 A 
ATOM      8  HN  UNK N   1      34.840  19.358   8.499  1.00  0.00     0.194 HD
HETATM    9  C   UNK N   1      34.271  16.224   8.879  0.00  0.00     0.064 A 
BRANCH   7  10
HETATM   10  C   UNK N   1      33.188  17.568   7.042  0.00  0.00     0.229 C 
BRANCH  10  11
HETATM   11  O   UNK N   1      32.115  16.683   7.161  0.00  0.00    -0.361 OA
BRANCH  11  12
HETATM   12  C   UNK N   1      31.089  17.439   7.730  0.00  0.00     0.338 C 
BRANCH  12  13
HETATM   13  O   UNK N   1      30.717  16.889   8.959  0.00  0.00    -0.365 OA
BRANCH  13  14
HETATM   14  C   UNK N   1      29.764  17.760   9.474  0.00  0.00     0.196 C 
BRANCH  14  15
HETATM   15  C   UNK N   1      28.475  17.592   8.700  0.00  0.00     0.190 C 
BRANCH  15  16
HETATM   16  O   UNK N   1      27.442  18.231   9.381  0.00  0.00    -0.399 OA
HETATM   17  H   UNK N   1      26.832  17.726   9.940  0.00  0.00     0.209 HD
ENDBRANCH  15  16
ENDBRANCH  14  15
ENDBRANCH  13  14
ENDBRANCH  12  13
ENDBRANCH  11  12
ENDBRANCH  10  11
ENDBRANCH   7  10
ENDBRANCH   3   4
ENDBRANCH   2   3
ENDBRANCH   1   2
BRANCH   1  18
HETATM   18  C   UNK N   1      36.212  13.292  12.918  0.00  0.00     0.027 C 
BRANCH  18  19
HETATM   19  C   UNK N   1      36.015  13.879  14.310  0.00  0.00     0.176 C 
BRANCH  19  20
HETATM   20  O   UNK N   1      34.900  13.344  14.912  0.00  0.00    -0.348 OA
BRANCH  20  21
HETATM   21  C   UNK N   1      34.886  12.295  15.783  0.00  0.00     0.112 A 
HETATM   22  C   UNK N   1      35.194  12.555  17.136  0.00  0.00     0.070 A 
HETATM   23  C   UNK N   1      35.197  11.517  18.078  0.00  0.00     0.042 A 
HETATM   24 Cl   UNK N   1      35.555  14.188  17.675  0.00  0.00    -0.081 Cl
HETATM   25  C   UNK N   1      34.905  10.208  17.681  0.00  0.00     0.018 A 
HETATM   26  C   UNK N   1      34.602   9.948  16.355  0.00  0.00     0.042 A 
HETATM   27  C   UNK N   1      34.578  10.954  15.404  0.00  0.00     0.070 A 
HETATM   28 Cl   UNK N   1      34.146  10.425  13.795  0.00  0.00    -0.081 Cl
BRANCH  25  29
HETATM   29  C   UNK N   1      34.892   9.081  18.624  0.00  0.00     0.148 A 
HETATM   30  N   UNK N   1      34.186   9.048  19.676  0.00  0.00    -0.368 N 
HETATM   31  C   UNK N   1      34.395   7.808  20.370  0.00  0.00     0.148 A 
ATOM     32  HN  UNK N   1      33.560   9.793  19.985  1.00  0.00     0.161 HD
HETATM   33  C   UNK N   1      35.424   7.089  19.468  0.00  0.00     0.197 A 
HETATM   34  O   UNK N   1      35.631   7.984  18.442  0.00  0.00    -0.334 OA
ENDBRANCH  25  29
ENDBRANCH  20  21
ENDBRANCH  19  20
ENDBRANCH  18  19
ENDBRANCH   1  18
TORSDOF 15
ENDMDL
MODEL 3
REMARK VINA RESULT:      -6.4      1.176      2.152
REMARK  15 active torsions:
REMARK  status: ('A' for Active; 'I' for Inactive)
REMARK    1  A    between atoms: O_1  and  C_2 
REMARK    2  A    between atoms: C_2  and  C_3 
REMARK    3  A    between atoms: C_3  and  O_4 
REMARK    4  A    between atoms: O_4  and  C_5 
REMARK    5  A    between atoms: C_5  and  O_6 
REMARK    6  A    between atoms: O_6  and  C_11 
REMARK    7  A    between atoms: C_10  and  C_11 
REMARK    8  A    between atoms: C_13  and  C_14 
REMARK    9  A    between atoms: C_14  and  C_15 
REMARK   10  A    between atoms: C_15  and  C_16 
REMARK   11  A    between atoms: C_16  and  C_17 
REMARK   12  A    between atoms: C_17  and  C_18 
REMARK   13  A    between atoms: C_18  and  O_19 
REMARK   14  A    between atoms: O_19  and  C_20 
REMARK   15  A    between atoms: C_23  and  C_28 
ROOT
HETATM    1  C   UNK N   1      27.594  19.178   5.395  0.00  0.00     0.002 C 
ENDROOT
BRANCH   1   2
HETATM    2  C   UNK N   1      26.710  20.294   4.826  0.00  0.00     0.007 C 
BRANCH   2   3
HETATM    3  C   UNK N   1      26.282  20.033   3.388  0.00  0.00     0.067 C 
BRANCH   3   4
HETATM    4  C   UNK N   1      24.795  19.962   3.248  0.00  0.00     0.078 A 
HETATM    5  O   UNK N   1      24.065  20.866   2.641  0.00  0.00    -0.242 OA
HETATM    6  N   UNK N   1      22.800  20.568   2.735  0.00  0.00    -0.263 N 
HETATM    7  C   UNK N   1      22.720  19.420   3.432  0.00  0.00     0.058 A 
ATOM      8  HN  UNK N   1      22.019  21.101   2.353  1.00  0.00     0.194 HD
HETATM    9  C   UNK N   1      23.971  18.992   3.776  0.00  0.00     0.064 A 
BRANCH   7  10
HETATM   10  C   UNK N   1      21.463  18.748   3.838  0.00  0.00     0.229 C 
BRANCH  10  11
HETATM   11  O   UNK N   1      20.415  19.220   3.045  0.00  0.00    -0.361 OA
BRANCH  11  12
HETATM   12  C   UNK N   1      20.272  18.267   2.036  0.00  0.00     0.338 C 
BRANCH  12  13
HETATM   13  O   UNK N   1      20.249  16.985   2.591  0.00  0.00    -0.365 OA
BRANCH  13  14
HETATM   14  C   UNK N   1      20.079  16.124   1.513  0.00  0.00     0.196 C 
BRANCH  14  15
HETATM   15  C   UNK N   1      19.681  16.932   0.297  0.00  0.00     0.190 C 
BRANCH  15  16
HETATM   16  O   UNK N   1      18.381  16.597  -0.073  0.00  0.00    -0.399 OA
HETATM   17  H   UNK N   1      17.952  15.807   0.290  0.00  0.00     0.209 HD
ENDBRANCH  15  16
ENDBRANCH  14  15
ENDBRANCH  13  14
ENDBRANCH  12  13
ENDBRANCH  11  12
ENDBRANCH  10  11
ENDBRANCH   7  10
ENDBRANCH   3   4
ENDBRANCH   2   3
ENDBRANCH   1   2
BRANCH   1  18
HETATM   18  C   UNK N   1      27.820  18.041   4.395  0.00  0.00     0.027 C 
BRANCH  18  19
HETATM   19  C   UNK N   1      28.983  17.144   4.800  0.00  0.00     0.176 C 
BRANCH  19  20
HETATM   20  O   UNK N   1      30.082  17.897   5.144  0.00  0.00    -0.348 OA
BRANCH  20  21
HETATM   21  C   UNK N   1      31.040  17.548   6.050  0.00  0.00     0.112 A 
HETATM   22  C   UNK N   1      32.342  17.289   5.569  0.00  0.00     0.070 A 
HETATM   23  C   UNK N   1      33.368  16.924   6.452  0.00  0.00     0.042 A 
HETATM   24 Cl   UNK N   1      32.712  17.442   3.858  0.00  0.00    -0.081 Cl
HETATM   25  C   UNK N   1      33.105  16.802   7.821  0.00  0.00     0.018 A 
HETATM   26  C   UNK N   1      31.831  17.056   8.297  0.00  0.00     0.042 A 
HETATM   27  C   UNK N   1      30.800  17.430   7.452  0.00  0.00     0.070 A 
HETATM   28 Cl   UNK N   1      29.276  17.731   8.251  0.00  0.00    -0.081 Cl
BRANCH  25  29
HETATM   29  C   UNK N   1      34.142  16.424   8.792  0.00  0.00     0.148 A 
HETATM   30  N   UNK N   1      34.796  15.340   8.742  0.00  0.00    -0.368 N 
HETATM   31  C   UNK N   1      35.736  15.283   9.827  0.00  0.00     0.148 A 
ATOM     32  HN  UNK N   1      34.673  14.614   8.035  1.00  0.00     0.161 HD
HETATM   33  C   UNK N   1      35.481  16.618  10.561  0.00  0.00     0.197 A 
HETATM   34  O   UNK N   1      34.486  17.210   9.816  0.00  0.00    -0.334 OA
ENDBRANCH  25  29
ENDBRANCH  20  21
ENDBRANCH  19  20
ENDBRANCH  18  19
ENDBRANCH   1  18
TORSDOF 15
ENDMDL
MODEL 4
REMARK VINA RESULT:      -6.3      2.895      4.800
REMARK  15 active torsions:
REMARK  status: ('A' for Active; 'I' for Inactive)
REMARK    1  A    between atoms: O_1  and  C_2 
REMARK    2  A    between atoms: C_2  and  C_3 
REMARK    3  A    between atoms: C_3  and  O_4 
REMARK    4  A    between atoms: O_4  and  C_5 
REMARK    5  A    between atoms: C_5  and  O_6 
REMARK    6  A    between atoms: O_6  and  C_11 
REMARK    7  A    between atoms: C_10  and  C_11 
REMARK    8  A    between atoms: C_13  and  C_14 
REMARK    9  A    between atoms: C_14  and  C_15 
REMARK   10  A    between atoms: C_15  and  C_16 
REMARK   11  A    between atoms: C_16  and  C_17 
REMARK   12  A    between atoms: C_17  and  C_18 
REMARK   13  A    between atoms: C_18  and  O_19 
REMARK   14  A    between atoms: O_19  and  C_20 
REMARK   15  A    between atoms: C_23  and  C_28 
ROOT
HETATM    1  C   UNK N   1      30.918  16.011   5.661  0.00  0.00     0.002 C 
ENDROOT
BRANCH   1   2
HETATM    2  C   UNK N   1      29.516  16.484   6.067  0.00  0.00     0.007 C 
BRANCH   2   3
HETATM    3  C   UNK N   1      29.449  17.986   6.318  0.00  0.00     0.067 C 
BRANCH   3   4
HETATM    4  C   UNK N   1      28.169  18.582   5.826  0.00  0.00     0.078 A 
HETATM    5  O   UNK N   1      27.345  19.280   6.569  0.00  0.00    -0.242 OA
HETATM    6  N   UNK N   1      26.286  19.612   5.887  0.00  0.00    -0.263 N 
HETATM    7  C   UNK N   1      26.442  19.102   4.652  0.00  0.00     0.058 A 
ATOM      8  HN  UNK N   1      25.490  20.154   6.224  1.00  0.00     0.194 HD
HETATM    9  C   UNK N   1      27.635  18.441   4.564  0.00  0.00     0.064 A 
BRANCH   7  10
HETATM   10  C   UNK N   1      25.443  19.177   3.560  0.00  0.00     0.229 C 
BRANCH  10  11
HETATM   11  O   UNK N   1      24.670  20.328   3.724  0.00  0.00    -0.361 OA
BRANCH  11  12
HETATM   12  C   UNK N   1      23.414  19.992   3.216  0.00  0.00     0.338 C 
BRANCH  12  13
HETATM   13  O   UNK N   1      22.761  21.141   2.763  0.00  0.00    -0.365 OA
BRANCH  13  14
HETATM   14  C   UNK N   1      21.419  20.788   2.677  0.00  0.00     0.196 C 
BRANCH  14  15
HETATM   15  C   UNK N   1      21.131  20.288   1.279  0.00  0.00     0.190 C 
BRANCH  15  16
HETATM   16  O   UNK N   1      20.280  21.183   0.637  0.00  0.00    -0.399 OA
HETATM   17  H   UNK N   1      19.586  20.864   0.039  0.00  0.00     0.209 HD
ENDBRANCH  15  16
ENDBRANCH  14  15
ENDBRANCH  13  14
ENDBRANCH  12  13
ENDBRANCH  11  12
ENDBRANCH  10  11
ENDBRANCH   7  10
ENDBRANCH   3   4
ENDBRANCH   2   3
ENDBRANCH   1   2
BRANCH   1  18
HETATM   18  C   UNK N   1      31.808  17.159   5.178  0.00  0.00     0.027 C 
BRANCH  18  19
HETATM   19  C   UNK N   1      33.233  16.700   4.897  0.00  0.00     0.176 C 
BRANCH  19  20
HETATM   20  O   UNK N   1      34.092  17.153   5.871  0.00  0.00    -0.348 OA
BRANCH  20  21
HETATM   21  C   UNK N   1      34.422  16.491   7.017  0.00  0.00     0.112 A 
HETATM   22  C   UNK N   1      33.920  16.993   8.238  0.00  0.00     0.070 A 
HETATM   23  C   UNK N   1      34.226  16.357   9.450  0.00  0.00     0.042 A 
HETATM   24 Cl   UNK N   1      32.880  18.409   8.265  0.00  0.00    -0.081 Cl
HETATM   25  C   UNK N   1      35.045  15.223   9.459  0.00  0.00     0.018 A 
HETATM   26  C   UNK N   1      35.539  14.726   8.265  0.00  0.00     0.042 A 
HETATM   27  C   UNK N   1      35.244  15.325   7.052  0.00  0.00     0.070 A 
HETATM   28 Cl   UNK N   1      35.941  14.531   5.660  0.00  0.00    -0.081 Cl
BRANCH  25  29
HETATM   29  C   UNK N   1      35.397  14.515  10.698  0.00  0.00     0.148 A 
HETATM   30  N   UNK N   1      36.503  13.925  10.885  0.00  0.00    -0.368 N 
HETATM   31  C   UNK N   1      36.534  13.344  12.199  0.00  0.00     0.148 A 
ATOM     32  HN  UNK N   1      37.260  13.870  10.203  1.00  0.00     0.161 HD
HETATM   33  C   UNK N   1      35.150  13.729  12.768  0.00  0.00     0.197 A 
HETATM   34  O   UNK N   1      34.569  14.443  11.743  0.00  0.00    -0.334 OA
ENDBRANCH  25  29
ENDBRANCH  20  21
ENDBRANCH  19  20
ENDBRANCH  18  19
ENDBRANCH   1  18
TORSDOF 15
ENDMDL
MODEL 5
REMARK VINA RESULT:      -6.3      7.581     13.040
REMARK  15 active torsions:
REMARK  status: ('A' for Active; 'I' for Inactive)
REMARK    1  A    between atoms: O_1  and  C_2 
REMARK    2  A    between atoms: C_2  and  C_3 
REMARK    3  A    between atoms: C_3  and  O_4 
REMARK    4  A    between atoms: O_4  and  C_5 
REMARK    5  A    between atoms: C_5  and  O_6 
REMARK    6  A    between atoms: O_6  and  C_11 
REMARK    7  A    between atoms: C_10  and  C_11 
REMARK    8  A    between atoms: C_13  and  C_14 
REMARK    9  A    between atoms: C_14  and  C_15 
REMARK   10  A    between atoms: C_15  and  C_16 
REMARK   11  A    between atoms: C_16  and  C_17 
REMARK   12  A    between atoms: C_17  and  C_18 
REMARK   13  A    between atoms: C_18  and  O_19 
REMARK   14  A    between atoms: O_19  and  C_20 
REMARK   15  A    between atoms: C_23  and  C_28 
ROOT
HETATM    1  C   UNK N   1      35.390  13.071  12.453  0.00  0.00     0.002 C 
ENDROOT
BRANCH   1   2
HETATM    2  C   UNK N   1      35.142  14.477  11.891  0.00  0.00     0.007 C 
BRANCH   2   3
HETATM    3  C   UNK N   1      35.910  14.741  10.602  0.00  0.00     0.067 C 
BRANCH   3   4
HETATM    4  C   UNK N   1      35.360  15.910   9.849  0.00  0.00     0.078 A 
HETATM    5  O   UNK N   1      35.543  17.162  10.190  0.00  0.00    -0.242 OA
HETATM    6  N   UNK N   1      34.892  17.954   9.385  0.00  0.00    -0.263 N 
HETATM    7  C   UNK N   1      34.265  17.170   8.490  0.00  0.00     0.058 A 
ATOM      8  HN  UNK N   1      34.863  18.973   9.426  1.00  0.00     0.194 HD
HETATM    9  C   UNK N   1      34.540  15.856   8.743  0.00  0.00     0.064 A 
BRANCH   7  10
HETATM   10  C   UNK N   1      33.349  17.646   7.426  0.00  0.00     0.229 C 
BRANCH  10  11
HETATM   11  O   UNK N   1      32.202  16.849   7.419  0.00  0.00    -0.361 OA
BRANCH  11  12
HETATM   12  C   UNK N   1      31.297  17.517   8.244  0.00  0.00     0.338 C 
BRANCH  12  13
HETATM   13  O   UNK N   1      30.162  17.875   7.513  0.00  0.00    -0.365 OA
BRANCH  13  14
HETATM   14  C   UNK N   1      29.114  17.175   8.100  0.00  0.00     0.196 C 
BRANCH  14  15
HETATM   15  C   UNK N   1      28.762  17.830   9.417  0.00  0.00     0.190 C 
BRANCH  15  16
HETATM   16  O   UNK N   1      27.460  18.319   9.355  0.00  0.00    -0.399 OA
HETATM   17  H   UNK N   1      26.880  18.088   8.613  0.00  0.00     0.209 HD
ENDBRANCH  15  16
ENDBRANCH  14  15
ENDBRANCH  13  14
ENDBRANCH  12  13
ENDBRANCH  11  12
ENDBRANCH  10  11
ENDBRANCH   7  10
ENDBRANCH   3   4
ENDBRANCH   2   3
ENDBRANCH   1   2
BRANCH   1  18
HETATM   18  C   UNK N   1      36.591  13.022  13.401  0.00  0.00     0.027 C 
BRANCH  18  19
HETATM   19  C   UNK N   1      36.332  13.785  14.694  0.00  0.00     0.176 C 
BRANCH  19  20
HETATM   20  O   UNK N   1      35.213  13.299  15.331  0.00  0.00    -0.348 OA
BRANCH  20  21
HETATM   21  C   UNK N   1      35.199  12.599  16.501  0.00  0.00     0.112 A 
HETATM   22  C   UNK N   1      35.062  11.195  16.431  0.00  0.00     0.070 A 
HETATM   23  C   UNK N   1      35.040  10.421  17.599  0.00  0.00     0.042 A 
HETATM   24 Cl   UNK N   1      34.942  10.383  14.876  0.00  0.00    -0.081 Cl
HETATM   25  C   UNK N   1      35.142  11.039  18.851  0.00  0.00     0.018 A 
HETATM   26  C   UNK N   1      35.278  12.414  18.926  0.00  0.00     0.042 A 
HETATM   27  C   UNK N   1      35.315  13.203  17.789  0.00  0.00     0.070 A 
HETATM   28 Cl   UNK N   1      35.519  14.912  18.094  0.00  0.00    -0.081 Cl
BRANCH  25  29
HETATM   29  C   UNK N   1      35.126  10.278  20.108  0.00  0.00     0.148 A 
HETATM   30  N   UNK N   1      34.107   9.674  20.556  0.00  0.00    -0.368 N 
HETATM   31  C   UNK N   1      34.426   9.021  21.796  0.00  0.00     0.148 A 
ATOM     32  HN  UNK N   1      33.192   9.652  20.102  1.00  0.00     0.161 HD
HETATM   33  C   UNK N   1      35.913   9.392  21.995  0.00  0.00     0.197 A 
HETATM   34  O   UNK N   1      36.204  10.158  20.888  0.00  0.00    -0.334 OA
ENDBRANCH  25  29
ENDBRANCH  20  21
ENDBRANCH  19  20
ENDBRANCH  18  19
ENDBRANCH   1  18
TORSDOF 15
ENDMDL
MODEL 6
REMARK VINA RESULT:      -6.3      6.240      8.983
REMARK  15 active torsions:
REMARK  status: ('A' for Active; 'I' for Inactive)
REMARK    1  A    between atoms: O_1  and  C_2 
REMARK    2  A    between atoms: C_2  and  C_3 
REMARK    3  A    between atoms: C_3  and  O_4 
REMARK    4  A    between atoms: O_4  and  C_5 
REMARK    5  A    between atoms: C_5  and  O_6 
REMARK    6  A    between atoms: O_6  and  C_11 
REMARK    7  A    between atoms: C_10  and  C_11 
REMARK    8  A    between atoms: C_13  and  C_14 
REMARK    9  A    between atoms: C_14  and  C_15 
REMARK   10  A    between atoms: C_15  and  C_16 
REMARK   11  A    between atoms: C_16  and  C_17 
REMARK   12  A    between atoms: C_17  and  C_18 
REMARK   13  A    between atoms: C_18  and  O_19 
REMARK   14  A    between atoms: O_19  and  C_20 
REMARK   15  A    between atoms: C_23  and  C_28 
ROOT
HETATM    1  C   UNK N   1      22.858  11.821  10.353  0.00  0.00     0.002 C 
ENDROOT
BRANCH   1   2
HETATM    2  C   UNK N   1      22.128  13.165  10.237  0.00  0.00     0.007 C 
BRANCH   2   3
HETATM    3  C   UNK N   1      20.869  13.081   9.383  0.00  0.00     0.067 C 
BRANCH   3   4
HETATM    4  C   UNK N   1      20.835  14.137   8.325  0.00  0.00     0.078 A 
HETATM    5  O   UNK N   1      20.078  14.089   7.256  0.00  0.00    -0.242 OA
HETATM    6  N   UNK N   1      20.311  15.114   6.485  0.00  0.00    -0.263 N 
HETATM    7  C   UNK N   1      21.260  15.849   7.092  0.00  0.00     0.058 A 
ATOM      8  HN  UNK N   1      19.861  15.319   5.593  1.00  0.00     0.194 HD
HETATM    9  C   UNK N   1      21.622  15.267   8.274  0.00  0.00     0.064 A 
BRANCH   7  10
HETATM   10  C   UNK N   1      21.884  17.073   6.534  0.00  0.00     0.229 C 
BRANCH  10  11
HETATM   11  O   UNK N   1      20.895  17.864   5.947  0.00  0.00    -0.361 OA
BRANCH  11  12
HETATM   12  C   UNK N   1      21.531  18.498   4.879  0.00  0.00     0.338 C 
BRANCH  12  13
HETATM   13  O   UNK N   1      20.646  19.380   4.254  0.00  0.00    -0.365 OA
BRANCH  13  14
HETATM   14  C   UNK N   1      21.030  19.395   2.917  0.00  0.00     0.196 C 
BRANCH  14  15
HETATM   15  C   UNK N   1      20.843  20.792   2.368  0.00  0.00     0.190 C 
BRANCH  15  16
HETATM   16  O   UNK N   1      21.889  21.601   2.804  0.00  0.00    -0.399 OA
HETATM   17  H   UNK N   1      22.478  21.308   3.516  0.00  0.00     0.209 HD
ENDBRANCH  15  16
ENDBRANCH  14  15
ENDBRANCH  13  14
ENDBRANCH  12  13
ENDBRANCH  11  12
ENDBRANCH  10  11
ENDBRANCH   7  10
ENDBRANCH   3   4
ENDBRANCH   2   3
ENDBRANCH   1   2
BRANCH   1  18
HETATM   18  C   UNK N   1      24.351  11.936  10.033  0.00  0.00     0.027 C 
BRANCH  18  19
HETATM   19  C   UNK N   1      24.677  13.211   9.267  0.00  0.00     0.176 C 
BRANCH  19  20
HETATM   20  O   UNK N   1      25.093  12.918   7.988  0.00  0.00    -0.348 OA
BRANCH  20  21
HETATM   21  C   UNK N   1      24.451  13.270   6.837  0.00  0.00     0.112 A 
HETATM   22  C   UNK N   1      24.875  14.443   6.176  0.00  0.00     0.070 A 
HETATM   23  C   UNK N   1      24.253  14.857   4.990  0.00  0.00     0.042 A 
HETATM   24 Cl   UNK N   1      26.209  15.397   6.810  0.00  0.00    -0.081 Cl
HETATM   25  C   UNK N   1      23.195  14.113   4.456  0.00  0.00     0.018 A 
HETATM   26  C   UNK N   1      22.776  12.962   5.101  0.00  0.00     0.042 A 
HETATM   27  C   UNK N   1      23.379  12.521   6.266  0.00  0.00     0.070 A 
HETATM   28 Cl   UNK N   1      22.722  11.034   6.909  0.00  0.00    -0.081 Cl
BRANCH  25  29
HETATM   29  C   UNK N   1      22.507  14.498   3.216  0.00  0.00     0.148 A 
HETATM   30  N   UNK N   1      21.642  15.421   3.145  0.00  0.00    -0.368 N 
HETATM   31  C   UNK N   1      21.173  15.552   1.793  0.00  0.00     0.148 A 
ATOM     32  HN  UNK N   1      21.326  15.989   3.932  1.00  0.00     0.161 HD
HETATM   33  C   UNK N   1      21.975  14.458   1.053  0.00  0.00     0.197 A 
HETATM   34  O   UNK N   1      22.748  13.900   2.047  0.00  0.00    -0.334 OA
ENDBRANCH  25  29
ENDBRANCH  20  21
ENDBRANCH  19  20
ENDBRANCH  18  19
ENDBRANCH   1  18
TORSDOF 15
ENDMDL
MODEL 7
REMARK VINA RESULT:      -6.2      5.815      8.058
REMARK  15 active torsions:
REMARK  status: ('A' for Active; 'I' for Inactive)
REMARK    1  A    between atoms: O_1  and  C_2 
REMARK    2  A    between atoms: C_2  and  C_3 
REMARK    3  A    between atoms: C_3  and  O_4 
REMARK    4  A    between atoms: O_4  and  C_5 
REMARK    5  A    between atoms: C_5  and  O_6 
REMARK    6  A    between atoms: O_6  and  C_11 
REMARK    7  A    between atoms: C_10  and  C_11 
REMARK    8  A    between atoms: C_13  and  C_14 
REMARK    9  A    between atoms: C_14  and  C_15 
REMARK   10  A    between atoms: C_15  and  C_16 
REMARK   11  A    between atoms: C_16  and  C_17 
REMARK   12  A    between atoms: C_17  and  C_18 
REMARK   13  A    between atoms: C_18  and  O_19 
REMARK   14  A    between atoms: O_19  and  C_20 
REMARK   15  A    between atoms: C_23  and  C_28 
ROOT
HETATM    1  C   UNK N   1      20.555  12.978  10.561  0.00  0.00     0.002 C 
ENDROOT
BRANCH   1   2
HETATM    2  C   UNK N   1      19.968  14.116   9.717  0.00  0.00     0.007 C 
BRANCH   2   3
HETATM    3  C   UNK N   1      21.038  15.034   9.139  0.00  0.00     0.067 C 
BRANCH   3   4
HETATM    4  C   UNK N   1      20.716  15.464   7.743  0.00  0.00     0.078 A 
HETATM    5  O   UNK N   1      19.919  14.810   6.933  0.00  0.00    -0.242 OA
HETATM    6  N   UNK N   1      19.882  15.387   5.765  0.00  0.00    -0.263 N 
HETATM    7  C   UNK N   1      20.691  16.459   5.835  0.00  0.00     0.058 A 
ATOM      8  HN  UNK N   1      19.342  15.085   4.954  1.00  0.00     0.194 HD
HETATM    9  C   UNK N   1      21.242  16.552   7.082  0.00  0.00     0.064 A 
BRANCH   7  10
HETATM   10  C   UNK N   1      21.006  17.370   4.709  0.00  0.00     0.229 C 
BRANCH  10  11
HETATM   11  O   UNK N   1      21.394  16.614   3.601  0.00  0.00    -0.361 OA
BRANCH  11  12
HETATM   12  C   UNK N   1      20.691  17.164   2.529  0.00  0.00     0.338 C 
BRANCH  12  13
HETATM   13  O   UNK N   1      20.057  18.342   2.929  0.00  0.00    -0.365 OA
BRANCH  13  14
HETATM   14  C   UNK N   1      20.421  19.292   1.980  0.00  0.00     0.196 C 
BRANCH  14  15
HETATM   15  C   UNK N   1      21.042  20.477   2.685  0.00  0.00     0.190 C 
BRANCH  15  16
HETATM   16  O   UNK N   1      20.353  20.721   3.871  0.00  0.00    -0.399 OA
HETATM   17  H   UNK N   1      19.835  21.533   3.983  0.00  0.00     0.209 HD
ENDBRANCH  15  16
ENDBRANCH  14  15
ENDBRANCH  13  14
ENDBRANCH  12  13
ENDBRANCH  11  12
ENDBRANCH  10  11
ENDBRANCH   7  10
ENDBRANCH   3   4
ENDBRANCH   2   3
ENDBRANCH   1   2
BRANCH   1  18
HETATM   18  C   UNK N   1      22.083  12.920  10.488  0.00  0.00     0.027 C 
BRANCH  18  19
HETATM   19  C   UNK N   1      22.593  11.504  10.259  0.00  0.00     0.176 C 
BRANCH  19  20
HETATM   20  O   UNK N   1      23.576  11.489   9.296  0.00  0.00    -0.348 OA
BRANCH  20  21
HETATM   21  C   UNK N   1      23.777  12.443   8.343  0.00  0.00     0.112 A 
HETATM   22  C   UNK N   1      24.731  13.450   8.605  0.00  0.00     0.070 A 
HETATM   23  C   UNK N   1      24.980  14.458   7.664  0.00  0.00     0.042 A 
HETATM   24 Cl   UNK N   1      25.646  13.448  10.105  0.00  0.00    -0.081 Cl
HETATM   25  C   UNK N   1      24.273  14.481   6.456  0.00  0.00     0.018 A 
HETATM   26  C   UNK N   1      23.337  13.495   6.194  0.00  0.00     0.042 A 
HETATM   27  C   UNK N   1      23.078  12.480   7.099  0.00  0.00     0.070 A 
HETATM   28 Cl   UNK N   1      21.883  11.320   6.569  0.00  0.00    -0.081 Cl
BRANCH  25  29
HETATM   29  C   UNK N   1      24.494  15.512   5.433  0.00  0.00     0.148 A 
HETATM   30  N   UNK N   1      24.547  16.754   5.680  0.00  0.00    -0.368 N 
HETATM   31  C   UNK N   1      24.784  17.487   4.468  0.00  0.00     0.148 A 
ATOM     32  HN  UNK N   1      24.438  17.172   6.605  1.00  0.00     0.161 HD
HETATM   33  C   UNK N   1      24.856  16.365   3.407  0.00  0.00     0.197 A 
HETATM   34  O   UNK N   1      24.664  15.217   4.142  0.00  0.00    -0.334 OA
ENDBRANCH  25  29
ENDBRANCH  20  21
ENDBRANCH  19  20
ENDBRANCH  18  19
ENDBRANCH   1  18
TORSDOF 15
ENDMDL
MODEL 8
REMARK VINA RESULT:      -6.2      2.908     12.737
REMARK  15 active torsions:
REMARK  status: ('A' for Active; 'I' for Inactive)
REMARK    1  A    between atoms: O_1  and  C_2 
REMARK    2  A    between atoms: C_2  and  C_3 
REMARK    3  A    between atoms: C_3  and  O_4 
REMARK    4  A    between atoms: O_4  and  C_5 
REMARK    5  A    between atoms: C_5  and  O_6 
REMARK    6  A    between atoms: O_6  and  C_11 
REMARK    7  A    between atoms: C_10  and  C_11 
REMARK    8  A    between atoms: C_13  and  C_14 
REMARK    9  A    between atoms: C_14  and  C_15 
REMARK   10  A    between atoms: C_15  and  C_16 
REMARK   11  A    between atoms: C_16  and  C_17 
REMARK   12  A    between atoms: C_17  and  C_18 
REMARK   13  A    between atoms: C_18  and  O_19 
REMARK   14  A    between atoms: O_19  and  C_20 
REMARK   15  A    between atoms: C_23  and  C_28 
ROOT
HETATM    1  C   UNK N   1      31.344  16.712   6.991  0.00  0.00     0.002 C 
ENDROOT
BRANCH   1   2
HETATM    2  C   UNK N   1      32.709  16.096   6.661  0.00  0.00     0.007 C 
BRANCH   2   3
HETATM    3  C   UNK N   1      33.871  17.023   6.992  0.00  0.00     0.067 C 
BRANCH   3   4
HETATM    4  C   UNK N   1      34.401  16.791   8.371  0.00  0.00     0.078 A 
HETATM    5  O   UNK N   1      34.426  17.699   9.316  0.00  0.00    -0.242 OA
HETATM    6  N   UNK N   1      35.002  17.228  10.386  0.00  0.00    -0.263 N 
HETATM    7  C   UNK N   1      35.359  15.961  10.110  0.00  0.00     0.058 A 
ATOM      8  HN  UNK N   1      35.153  17.724  11.265  1.00  0.00     0.194 HD
HETATM    9  C   UNK N   1      34.989  15.635   8.836  0.00  0.00     0.064 A 
BRANCH   7  10
HETATM   10  C   UNK N   1      36.109  15.063  11.021  0.00  0.00     0.229 C 
BRANCH  10  11
HETATM   11  O   UNK N   1      35.219  14.172  11.622  0.00  0.00    -0.361 OA
BRANCH  11  12
HETATM   12  C   UNK N   1      35.607  14.126  12.962  0.00  0.00     0.338 C 
BRANCH  12  13
HETATM   13  O   UNK N   1      36.095  12.855  13.272  0.00  0.00    -0.365 OA
BRANCH  13  14
HETATM   14  C   UNK N   1      35.196  11.968  12.691  0.00  0.00     0.196 C 
BRANCH  14  15
HETATM   15  C   UNK N   1      34.618  11.077  13.769  0.00  0.00     0.190 C 
BRANCH  15  16
HETATM   16  O   UNK N   1      33.317  10.722  13.424  0.00  0.00    -0.399 OA
HETATM   17  H   UNK N   1      33.050   9.790  13.396  0.00  0.00     0.209 HD
ENDBRANCH  15  16
ENDBRANCH  14  15
ENDBRANCH  13  14
ENDBRANCH  12  13
ENDBRANCH  11  12
ENDBRANCH  10  11
ENDBRANCH   7  10
ENDBRANCH   3   4
ENDBRANCH   2   3
ENDBRANCH   1   2
BRANCH   1  18
HETATM   18  C   UNK N   1      30.569  17.130   5.738  0.00  0.00     0.027 C 
BRANCH  18  19
HETATM   19  C   UNK N   1      29.208  17.723   6.077  0.00  0.00     0.176 C 
BRANCH  19  20
HETATM   20  O   UNK N   1      28.814  18.620   5.111  0.00  0.00    -0.348 OA
BRANCH  20  21
HETATM   21  C   UNK N   1      27.532  18.845   4.704  0.00  0.00     0.112 A 
HETATM   22  C   UNK N   1      26.899  20.031   5.135  0.00  0.00     0.070 A 
HETATM   23  C   UNK N   1      25.581  20.316   4.750  0.00  0.00     0.042 A 
HETATM   24 Cl   UNK N   1      27.756  21.189   6.142  0.00  0.00    -0.081 Cl
HETATM   25  C   UNK N   1      24.877  19.418   3.942  0.00  0.00     0.018 A 
HETATM   26  C   UNK N   1      25.493  18.254   3.516  0.00  0.00     0.042 A 
HETATM   27  C   UNK N   1      26.797  17.951   3.869  0.00  0.00     0.070 A 
HETATM   28 Cl   UNK N   1      27.400  16.449   3.208  0.00  0.00    -0.081 Cl
BRANCH  25  29
HETATM   29  C   UNK N   1      23.495  19.665   3.506  0.00  0.00     0.148 A 
HETATM   30  N   UNK N   1      22.542  18.848   3.678  0.00  0.00    -0.368 N 
HETATM   31  C   UNK N   1      21.324  19.395   3.149  0.00  0.00     0.148 A 
ATOM     32  HN  UNK N   1      22.628  17.934   4.126  1.00  0.00     0.161 HD
HETATM   33  C   UNK N   1      21.782  20.765   2.601  0.00  0.00     0.197 A 
HETATM   34  O   UNK N   1      23.128  20.792   2.892  0.00  0.00    -0.334 OA
ENDBRANCH  25  29
ENDBRANCH  20  21
ENDBRANCH  19  20
ENDBRANCH  18  19
ENDBRANCH   1  18
TORSDOF 15
ENDMDL
MODEL 9
REMARK VINA RESULT:      -6.1      3.318      5.999
REMARK  15 active torsions:
REMARK  status: ('A' for Active; 'I' for Inactive)
REMARK    1  A    between atoms: O_1  and  C_2 
REMARK    2  A    between atoms: C_2  and  C_3 
REMARK    3  A    between atoms: C_3  and  O_4 
REMARK    4  A    between atoms: O_4  and  C_5 
REMARK    5  A    between atoms: C_5  and  O_6 
REMARK    6  A    between atoms: O_6  and  C_11 
REMARK    7  A    between atoms: C_10  and  C_11 
REMARK    8  A    between atoms: C_13  and  C_14 
REMARK    9  A    between atoms: C_14  and  C_15 
REMARK   10  A    between atoms: C_15  and  C_16 
REMARK   11  A    between atoms: C_16  and  C_17 
REMARK   12  A    between atoms: C_17  and  C_18 
REMARK   13  A    between atoms: C_18  and  O_19 
REMARK   14  A    between atoms: O_19  and  C_20 
REMARK   15  A    between atoms: C_23  and  C_28 
ROOT
HETATM    1  C   UNK N   1      31.774  16.428   7.375  0.00  0.00     0.002 C 
ENDROOT
BRANCH   1   2
HETATM    2  C   UNK N   1      30.388  16.530   6.726  0.00  0.00     0.007 C 
BRANCH   2   3
HETATM    3  C   UNK N   1      29.556  17.676   7.288  0.00  0.00     0.067 C 
BRANCH   3   4
HETATM    4  C   UNK N   1      28.331  17.935   6.470  0.00  0.00     0.078 A 
HETATM    5  O   UNK N   1      27.244  17.203   6.514  0.00  0.00    -0.242 OA
HETATM    6  N   UNK N   1      26.371  17.631   5.646  0.00  0.00    -0.263 N 
HETATM    7  C   UNK N   1      26.927  18.683   5.021  0.00  0.00     0.058 A 
ATOM      8  HN  UNK N   1      25.444  17.242   5.474  1.00  0.00     0.194 HD
HETATM    9  C   UNK N   1      28.177  18.919   5.519  0.00  0.00     0.064 A 
BRANCH   7  10
HETATM   10  C   UNK N   1      26.313  19.439   3.903  0.00  0.00     0.229 C 
BRANCH  10  11
HETATM   11  O   UNK N   1      25.203  20.140   4.378  0.00  0.00    -0.361 OA
BRANCH  11  12
HETATM   12  C   UNK N   1      24.387  20.318   3.261  0.00  0.00     0.338 C 
BRANCH  12  13
HETATM   13  O   UNK N   1      23.146  19.713   3.477  0.00  0.00    -0.365 OA
BRANCH  13  14
HETATM   14  C   UNK N   1      22.276  20.342   2.594  0.00  0.00     0.196 C 
BRANCH  14  15
HETATM   15  C   UNK N   1      20.862  19.895   2.895  0.00  0.00     0.190 C 
BRANCH  15  16
HETATM   16  O   UNK N   1      20.339  20.680   3.919  0.00  0.00    -0.399 OA
HETATM   17  H   UNK N   1      20.926  21.172   4.515  0.00  0.00     0.209 HD
ENDBRANCH  15  16
ENDBRANCH  14  15
ENDBRANCH  13  14
ENDBRANCH  12  13
ENDBRANCH  11  12
ENDBRANCH  10  11
ENDBRANCH   7  10
ENDBRANCH   3   4
ENDBRANCH   2   3
ENDBRANCH   1   2
BRANCH   1  18
HETATM   18  C   UNK N   1      32.148  14.989   7.738  0.00  0.00     0.027 C 
BRANCH  18  19
HETATM   19  C   UNK N   1      33.388  14.513   6.994  0.00  0.00     0.176 C 
BRANCH  19  20
HETATM   20  O   UNK N   1      34.531  14.892   7.660  0.00  0.00    -0.348 OA
BRANCH  20  21
HETATM   21  C   UNK N   1      34.806  14.658   8.975  0.00  0.00     0.112 A 
HETATM   22  C   UNK N   1      34.947  15.773   9.830  0.00  0.00     0.070 A 
HETATM   23  C   UNK N   1      35.231  15.597  11.191  0.00  0.00     0.042 A 
HETATM   24 Cl   UNK N   1      34.746  17.406   9.212  0.00  0.00    -0.081 Cl
HETATM   25  C   UNK N   1      35.389  14.308  11.713  0.00  0.00     0.018 A 
HETATM   26  C   UNK N   1      35.250  13.211  10.880  0.00  0.00     0.042 A 
HETATM   27  C   UNK N   1      34.958  13.354   9.534  0.00  0.00     0.070 A 
HETATM   28 Cl   UNK N   1      34.797  11.848   8.661  0.00  0.00    -0.081 Cl
BRANCH  25  29
HETATM   29  C   UNK N   1      35.685  14.063  13.132  0.00  0.00     0.148 A 
HETATM   30  N   UNK N   1      36.734  14.468  13.715  0.00  0.00    -0.368 N 
HETATM   31  C   UNK N   1      36.713  14.073  15.096  0.00  0.00     0.148 A 
ATOM     32  HN  UNK N   1      37.485  14.997  13.269  1.00  0.00     0.161 HD
HETATM   33  C   UNK N   1      35.373  13.311  15.206  0.00  0.00     0.197 A 
HETATM   34  O   UNK N   1      34.855  13.389  13.932  0.00  0.00    -0.334 OA
ENDBRANCH  25  29
ENDBRANCH  20  21
ENDBRANCH  19  20
ENDBRANCH  18  19
ENDBRANCH   1  18
TORSDOF 15
ENDMDL
