MODEL 1
REMARK VINA RESULT:      -7.0      0.000      0.000
REMARK  10 active torsions:
REMARK  status: ('A' for Active; 'I' for Inactive)
REMARK    1  A    between atoms: C_7  and  C_8 
REMARK    2  A    between atoms: C_8  and  C_9 
REMARK    3  A    between atoms: C_9  and  C_10 
REMARK    4  A    between atoms: C_10  and  C_11 
REMARK    5  A    between atoms: C_11  and  C_12 
REMARK    6  A    between atoms: C_12  and  C_13 
REMARK    7  A    between atoms: C_13  and  C_14 
REMARK    8  A    between atoms: C_14  and  O_15 
REMARK    9  A    between atoms: O_15  and  C_16 
REMARK   10  A    between atoms: C_19  and  C_23 
ROOT
HETATM    1  O   UNK N   1      34.568  17.034   7.877  0.00  0.00    -0.349 OA
ENDROOT
BRANCH   1   2
HETATM    2  C   UNK N   1      33.831  18.183   7.722  0.00  0.00     0.175 C 
BRANCH   2   3
HETATM    3  C   UNK N   1      32.352  17.879   7.874  0.00  0.00     0.027 C 
BRANCH   3   4
HETATM    4  C   UNK N   1      31.896  16.975   6.747  0.00  0.00     0.002 C 
BRANCH   4   5
HETATM    5  C   UNK N   1      30.386  16.828   6.781  0.00  0.00     0.000 C 
BRANCH   5   6
HETATM    6  C   UNK N   1      29.828  17.649   7.923  0.00  0.00     0.000 C 
BRANCH   6   7
HETATM    7  C   UNK N   1      28.342  17.877   7.726  0.00  0.00     0.007 C 
BRANCH   7   8
HETATM    8  C   UNK N   1      28.090  19.337   7.380  0.00  0.00     0.067 C 
BRANCH   8   9
HETATM    9  C   UNK N   1      27.771  19.522   5.934  0.00  0.00     0.078 A 
HETATM   10  O   UNK N   1      28.390  18.899   4.959  0.00  0.00    -0.242 OA
HETATM   11  N   UNK N   1      27.898  19.240   3.806  0.00  0.00    -0.266 N 
HETATM   12  C   UNK N   1      26.911  20.124   4.043  0.00  0.00     0.031 A 
ATOM     13  HN  UNK N   1      28.201  18.901   2.893  1.00  0.00     0.194 HD
HETATM   14  C   UNK N   1      26.093  20.768   2.983  0.00  0.00     0.070 C 
HETATM   15  C   UNK N   1      26.788  20.334   5.399  0.00  0.00     0.061 A 
ENDBRANCH   8   9
ENDBRANCH   7   8
ENDBRANCH   6   7
ENDBRANCH   5   6
ENDBRANCH   4   5
ENDBRANCH   3   4
ENDBRANCH   2   3
ENDBRANCH   1   2
BRANCH   1  16
HETATM   16  C   UNK N   1      34.700  16.317   9.024  0.00  0.00     0.090 A 
HETATM   17  C   UNK N   1      35.207  16.996  10.137  0.00  0.00     0.039 A 
HETATM   18  C   UNK N   1      35.449  16.330  11.336  0.00  0.00     0.018 A 
HETATM   19  C   UNK N   1      35.164  14.968  11.455  0.00  0.00     0.016 A 
HETATM   20  C   UNK N   1      34.615  14.283  10.370  0.00  0.00     0.042 A 
HETATM   21  C   UNK N   1      34.380  14.933   9.153  0.00  0.00     0.068 A 
HETATM   22 Cl   UNK N   1      33.709  13.951   7.863  0.00  0.00    -0.081 Cl
BRANCH  19  23
HETATM   23  C   UNK N   1      35.519  14.238  12.682  0.00  0.00     0.148 A 
HETATM   24  N   UNK N   1      36.649  14.352  13.248  0.00  0.00    -0.364 N 
HETATM   25  C   UNK N   1      36.735  13.455  14.365  0.00  0.00     0.104 A 
ATOM     26  HN  UNK N   1      37.389  14.989  12.953  1.00  0.00     0.162 HD
HETATM   27  C   UNK N   1      36.986  14.222  15.647  0.00  0.00     0.034 C 
HETATM   28  C   UNK N   1      35.340  12.794  14.371  0.00  0.00     0.202 A 
HETATM   29  O   UNK N   1      34.715  13.349  13.272  0.00  0.00    -0.333 OA
ENDBRANCH  19  23
ENDBRANCH   1  16
TORSDOF 10
ENDMDL
MODEL 2
REMARK VINA RESULT:      -6.5     15.007     18.753
REMARK  10 active torsions:
REMARK  status: ('A' for Active; 'I' for Inactive)
REMARK    1  A    between atoms: C_7  and  C_8 
REMARK    2  A    between atoms: C_8  and  C_9 
REMARK    3  A    between atoms: C_9  and  C_10 
REMARK    4  A    between atoms: C_10  and  C_11 
REMARK    5  A    between atoms: C_11  and  C_12 
REMARK    6  A    between atoms: C_12  and  C_13 
REMARK    7  A    between atoms: C_13  and  C_14 
REMARK    8  A    between atoms: C_14  and  O_15 
REMARK    9  A    between atoms: O_15  and  C_16 
REMARK   10  A    between atoms: C_19  and  C_23 
ROOT
HETATM    1  O   UNK N   1      25.951  27.328  -3.060  0.00  0.00    -0.349 OA
ENDROOT
BRANCH   1   2
HETATM    2  C   UNK N   1      26.780  28.418  -2.946  0.00  0.00     0.175 C 
BRANCH   2   3
HETATM    3  C   UNK N   1      26.490  29.412  -4.055  0.00  0.00     0.027 C 
BRANCH   3   4
HETATM    4  C   UNK N   1      27.725  29.599  -4.912  0.00  0.00     0.002 C 
BRANCH   4   5
HETATM    5  C   UNK N   1      27.570  28.839  -6.216  0.00  0.00     0.000 C 
BRANCH   5   6
HETATM    6  C   UNK N   1      28.821  28.029  -6.475  0.00  0.00     0.000 C 
BRANCH   6   7
HETATM    7  C   UNK N   1      29.438  27.585  -5.163  0.00  0.00     0.007 C 
BRANCH   7   8
HETATM    8  C   UNK N   1      30.765  26.889  -5.432  0.00  0.00     0.067 C 
BRANCH   8   9
HETATM    9  C   UNK N   1      30.773  25.485  -4.925  0.00  0.00     0.078 A 
HETATM   10  O   UNK N   1      30.773  24.424  -5.697  0.00  0.00    -0.242 OA
HETATM   11  N   UNK N   1      30.797  23.336  -4.989  0.00  0.00    -0.266 N 
HETATM   12  C   UNK N   1      30.817  23.707  -3.695  0.00  0.00     0.031 A 
ATOM     13  HN  UNK N   1      30.800  22.380  -5.345  1.00  0.00     0.194 HD
HETATM   14  C   UNK N   1      30.842  22.757  -2.553  0.00  0.00     0.070 C 
HETATM   15  C   UNK N   1      30.809  25.082  -3.603  0.00  0.00     0.061 A 
ENDBRANCH   8   9
ENDBRANCH   7   8
ENDBRANCH   6   7
ENDBRANCH   5   6
ENDBRANCH   4   5
ENDBRANCH   3   4
ENDBRANCH   2   3
ENDBRANCH   1   2
BRANCH   1  16
HETATM   16  C   UNK N   1      26.117  26.282  -3.911  0.00  0.00     0.090 A 
HETATM   17  C   UNK N   1      27.020  25.288  -3.519  0.00  0.00     0.039 A 
HETATM   18  C   UNK N   1      27.315  24.214  -4.356  0.00  0.00     0.018 A 
HETATM   19  C   UNK N   1      26.691  24.099  -5.599  0.00  0.00     0.016 A 
HETATM   20  C   UNK N   1      25.753  25.056  -5.990  0.00  0.00     0.042 A 
HETATM   21  C   UNK N   1      25.457  26.149  -5.168  0.00  0.00     0.068 A 
HETATM   22 Cl   UNK N   1      24.277  27.291  -5.788  0.00  0.00    -0.081 Cl
BRANCH  19  23
HETATM   23  C   UNK N   1      27.080  23.027  -6.530  0.00  0.00     0.148 A 
HETATM   24  N   UNK N   1      26.240  22.400  -7.247  0.00  0.00    -0.364 N 
HETATM   25  C   UNK N   1      26.900  21.358  -7.981  0.00  0.00     0.104 A 
ATOM     26  HN  UNK N   1      25.243  22.606  -7.295  1.00  0.00     0.162 HD
HETATM   27  C   UNK N   1      26.717  21.557  -9.471  0.00  0.00     0.034 C 
HETATM   28  C   UNK N   1      28.376  21.540  -7.568  0.00  0.00     0.202 A 
HETATM   29  O   UNK N   1      28.331  22.578  -6.658  0.00  0.00    -0.333 OA
ENDBRANCH  19  23
ENDBRANCH   1  16
TORSDOF 10
ENDMDL
MODEL 3
REMARK VINA RESULT:      -6.5      4.603     12.138
REMARK  10 active torsions:
REMARK  status: ('A' for Active; 'I' for Inactive)
REMARK    1  A    between atoms: C_7  and  C_8 
REMARK    2  A    between atoms: C_8  and  C_9 
REMARK    3  A    between atoms: C_9  and  C_10 
REMARK    4  A    between atoms: C_10  and  C_11 
REMARK    5  A    between atoms: C_11  and  C_12 
REMARK    6  A    between atoms: C_12  and  C_13 
REMARK    7  A    between atoms: C_13  and  C_14 
REMARK    8  A    between atoms: C_14  and  O_15 
REMARK    9  A    between atoms: O_15  and  C_16 
REMARK   10  A    between atoms: C_19  and  C_23 
ROOT
HETATM    1  O   UNK N   1      35.555  12.869  13.360  0.00  0.00    -0.349 OA
ENDROOT
BRANCH   1   2
HETATM    2  C   UNK N   1      36.722  12.677  14.059  0.00  0.00     0.175 C 
BRANCH   2   3
HETATM    3  C   UNK N   1      36.583  13.225  15.468  0.00  0.00     0.027 C 
BRANCH   3   4
HETATM    4  C   UNK N   1      35.153  13.066  15.941  0.00  0.00     0.002 C 
BRANCH   4   5
HETATM    5  C   UNK N   1      35.114  12.987  17.455  0.00  0.00     0.000 C 
BRANCH   5   6
HETATM    6  C   UNK N   1      35.195  11.538  17.883  0.00  0.00     0.000 C 
BRANCH   6   7
HETATM    7  C   UNK N   1      35.408  11.446  19.382  0.00  0.00     0.007 C 
BRANCH   7   8
HETATM    8  C   UNK N   1      35.348   9.990  19.818  0.00  0.00     0.067 C 
BRANCH   8   9
HETATM    9  C   UNK N   1      33.969   9.580  20.215  0.00  0.00     0.078 A 
HETATM   10  O   UNK N   1      33.335  10.048  21.264  0.00  0.00    -0.242 OA
HETATM   11  N   UNK N   1      32.148   9.529  21.358  0.00  0.00    -0.266 N 
HETATM   12  C   UNK N   1      32.003   8.685  20.320  0.00  0.00     0.031 A 
ATOM     13  HN  UNK N   1      31.457   9.725  22.082  1.00  0.00     0.194 HD
HETATM   14  C   UNK N   1      30.781   7.880  20.062  0.00  0.00     0.070 C 
HETATM   15  C   UNK N   1      33.147   8.688  19.552  0.00  0.00     0.061 A 
ENDBRANCH   8   9
ENDBRANCH   7   8
ENDBRANCH   6   7
ENDBRANCH   5   6
ENDBRANCH   4   5
ENDBRANCH   3   4
ENDBRANCH   2   3
ENDBRANCH   1   2
BRANCH   1  16
HETATM   16  C   UNK N   1      35.396  13.670  12.274  0.00  0.00     0.090 A 
HETATM   17  C   UNK N   1      35.759  15.013  12.423  0.00  0.00     0.039 A 
HETATM   18  C   UNK N   1      35.563  15.929  11.392  0.00  0.00     0.018 A 
HETATM   19  C   UNK N   1      35.020  15.513  10.175  0.00  0.00     0.016 A 
HETATM   20  C   UNK N   1      34.693  14.169   9.991  0.00  0.00     0.042 A 
HETATM   21  C   UNK N   1      34.869  13.239  11.021  0.00  0.00     0.068 A 
HETATM   22 Cl   UNK N   1      34.396  11.587  10.667  0.00  0.00    -0.081 Cl
BRANCH  19  23
HETATM   23  C   UNK N   1      34.711  16.496   9.124  0.00  0.00     0.148 A 
HETATM   24  N   UNK N   1      34.373  16.162   7.947  0.00  0.00    -0.364 N 
HETATM   25  C   UNK N   1      34.225  17.329   7.125  0.00  0.00     0.104 A 
ATOM     26  HN  UNK N   1      34.227  15.203   7.630  1.00  0.00     0.162 HD
HETATM   27  C   UNK N   1      32.818  17.418   6.573  0.00  0.00     0.034 C 
HETATM   28  C   UNK N   1      34.511  18.476   8.119  0.00  0.00     0.202 A 
HETATM   29  O   UNK N   1      34.819  17.816   9.293  0.00  0.00    -0.333 OA
ENDBRANCH  19  23
ENDBRANCH   1  16
TORSDOF 10
ENDMDL
MODEL 4
REMARK VINA RESULT:      -6.5     14.058     16.203
REMARK  10 active torsions:
REMARK  status: ('A' for Active; 'I' for Inactive)
REMARK    1  A    between atoms: C_7  and  C_8 
REMARK    2  A    between atoms: C_8  and  C_9 
REMARK    3  A    between atoms: C_9  and  C_10 
REMARK    4  A    between atoms: C_10  and  C_11 
REMARK    5  A    between atoms: C_11  and  C_12 
REMARK    6  A    between atoms: C_12  and  C_13 
REMARK    7  A    between atoms: C_13  and  C_14 
REMARK    8  A    between atoms: C_14  and  O_15 
REMARK    9  A    between atoms: O_15  and  C_16 
REMARK   10  A    between atoms: C_19  and  C_23 
ROOT
HETATM    1  O   UNK N   1      29.905  25.418  -3.494  0.00  0.00    -0.349 OA
ENDROOT
BRANCH   1   2
HETATM    2  C   UNK N   1      28.826  25.720  -4.290  0.00  0.00     0.175 C 
BRANCH   2   3
HETATM    3  C   UNK N   1      27.626  24.886  -3.882  0.00  0.00     0.027 C 
BRANCH   3   4
HETATM    4  C   UNK N   1      27.256  23.937  -5.003  0.00  0.00     0.002 C 
BRANCH   4   5
HETATM    5  C   UNK N   1      25.878  24.281  -5.537  0.00  0.00     0.000 C 
BRANCH   5   6
HETATM    6  C   UNK N   1      26.011  24.865  -6.927  0.00  0.00     0.000 C 
BRANCH   6   7
HETATM    7  C   UNK N   1      25.601  26.325  -6.922  0.00  0.00     0.007 C 
BRANCH   7   8
HETATM    8  C   UNK N   1      24.904  26.656  -5.610  0.00  0.00     0.067 C 
BRANCH   8   9
HETATM    9  C   UNK N   1      25.586  27.763  -4.877  0.00  0.00     0.078 A 
HETATM   10  O   UNK N   1      25.294  28.122  -3.650  0.00  0.00    -0.242 OA
HETATM   11  N   UNK N   1      26.054  29.101  -3.260  0.00  0.00    -0.266 N 
HETATM   12  C   UNK N   1      26.881  29.390  -4.282  0.00  0.00     0.031 A 
ATOM     13  HN  UNK N   1      26.029  29.563  -2.351  1.00  0.00     0.194 HD
HETATM   14  C   UNK N   1      27.911  30.460  -4.248  0.00  0.00     0.070 C 
HETATM   15  C   UNK N   1      26.622  28.551  -5.344  0.00  0.00     0.061 A 
ENDBRANCH   8   9
ENDBRANCH   7   8
ENDBRANCH   6   7
ENDBRANCH   5   6
ENDBRANCH   4   5
ENDBRANCH   3   4
ENDBRANCH   2   3
ENDBRANCH   1   2
BRANCH   1  16
HETATM   16  C   UNK N   1      30.745  24.363  -3.653  0.00  0.00     0.090 A 
HETATM   17  C   UNK N   1      31.738  24.489  -4.630  0.00  0.00     0.039 A 
HETATM   18  C   UNK N   1      32.601  23.434  -4.919  0.00  0.00     0.018 A 
HETATM   19  C   UNK N   1      32.504  22.233  -4.215  0.00  0.00     0.016 A 
HETATM   20  C   UNK N   1      31.549  22.102  -3.205  0.00  0.00     0.042 A 
HETATM   21  C   UNK N   1      30.665  23.146  -2.913  0.00  0.00     0.068 A 
HETATM   22 Cl   UNK N   1      29.499  22.843  -1.636  0.00  0.00    -0.081 Cl
BRANCH  19  23
HETATM   23  C   UNK N   1      33.339  21.081  -4.591  0.00  0.00     0.148 A 
HETATM   24  N   UNK N   1      33.912  20.337  -3.736  0.00  0.00    -0.364 N 
HETATM   25  C   UNK N   1      34.725  19.359  -4.399  0.00  0.00     0.104 A 
ATOM     26  HN  UNK N   1      33.808  20.422  -2.725  1.00  0.00     0.162 HD
HETATM   27  C   UNK N   1      34.278  17.958  -4.035  0.00  0.00     0.034 C 
HETATM   28  C   UNK N   1      34.464  19.661  -5.890  0.00  0.00     0.202 A 
HETATM   29  O   UNK N   1      33.620  20.754  -5.855  0.00  0.00    -0.333 OA
ENDBRANCH  19  23
ENDBRANCH   1  16
TORSDOF 10
ENDMDL
MODEL 5
REMARK VINA RESULT:      -6.5      1.532      1.928
REMARK  10 active torsions:
REMARK  status: ('A' for Active; 'I' for Inactive)
REMARK    1  A    between atoms: C_7  and  C_8 
REMARK    2  A    between atoms: C_8  and  C_9 
REMARK    3  A    between atoms: C_9  and  C_10 
REMARK    4  A    between atoms: C_10  and  C_11 
REMARK    5  A    between atoms: C_11  and  C_12 
REMARK    6  A    between atoms: C_12  and  C_13 
REMARK    7  A    between atoms: C_13  and  C_14 
REMARK    8  A    between atoms: C_14  and  O_15 
REMARK    9  A    between atoms: O_15  and  C_16 
REMARK   10  A    between atoms: C_19  and  C_23 
ROOT
HETATM    1  O   UNK N   1      34.402  15.052   7.290  0.00  0.00    -0.349 OA
ENDROOT
BRANCH   1   2
HETATM    2  C   UNK N   1      34.762  16.132   6.522  0.00  0.00     0.175 C 
BRANCH   2   3
HETATM    3  C   UNK N   1      33.689  17.203   6.591  0.00  0.00     0.027 C 
BRANCH   3   4
HETATM    4  C   UNK N   1      33.221  17.551   5.193  0.00  0.00     0.002 C 
BRANCH   4   5
HETATM    5  C   UNK N   1      31.887  16.886   4.913  0.00  0.00     0.000 C 
BRANCH   5   6
HETATM    6  C   UNK N   1      31.165  16.640   6.219  0.00  0.00     0.000 C 
BRANCH   6   7
HETATM    7  C   UNK N   1      29.688  16.412   5.966  0.00  0.00     0.007 C 
BRANCH   7   8
HETATM    8  C   UNK N   1      28.873  17.067   7.071  0.00  0.00     0.067 C 
BRANCH   8   9
HETATM    9  C   UNK N   1      28.069  18.219   6.567  0.00  0.00     0.078 A 
HETATM   10  O   UNK N   1      27.245  18.151   5.548  0.00  0.00    -0.242 OA
HETATM   11  N   UNK N   1      26.669  19.297   5.341  0.00  0.00    -0.266 N 
HETATM   12  C   UNK N   1      27.139  20.149   6.270  0.00  0.00     0.031 A 
ATOM     13  HN  UNK N   1      25.988  19.510   4.611  1.00  0.00     0.194 HD
HETATM   14  C   UNK N   1      26.735  21.574   6.378  0.00  0.00     0.070 C 
HETATM   15  C   UNK N   1      28.039  19.500   7.086  0.00  0.00     0.061 A 
ENDBRANCH   8   9
ENDBRANCH   7   8
ENDBRANCH   6   7
ENDBRANCH   5   6
ENDBRANCH   4   5
ENDBRANCH   3   4
ENDBRANCH   2   3
ENDBRANCH   1   2
BRANCH   1  16
HETATM   16  C   UNK N   1      34.640  14.901   8.620  0.00  0.00     0.090 A 
HETATM   17  C   UNK N   1      35.953  14.596   8.994  0.00  0.00     0.039 A 
HETATM   18  C   UNK N   1      36.282  14.349  10.325  0.00  0.00     0.018 A 
HETATM   19  C   UNK N   1      35.304  14.426  11.318  0.00  0.00     0.016 A 
HETATM   20  C   UNK N   1      33.997  14.772  10.970  0.00  0.00     0.042 A 
HETATM   21  C   UNK N   1      33.646  15.008   9.637  0.00  0.00     0.068 A 
HETATM   22 Cl   UNK N   1      31.965  15.412   9.334  0.00  0.00    -0.081 Cl
BRANCH  19  23
HETATM   23  C   UNK N   1      35.623  14.060  12.707  0.00  0.00     0.148 A 
HETATM   24  N   UNK N   1      36.756  14.281  13.234  0.00  0.00    -0.364 N 
HETATM   25  C   UNK N   1      36.799  13.735  14.560  0.00  0.00     0.104 A 
ATOM     26  HN  UNK N   1      37.525  14.775  12.782  1.00  0.00     0.162 HD
HETATM   27  C   UNK N   1      37.082  14.822  15.576  0.00  0.00     0.034 C 
HETATM   28  C   UNK N   1      35.375  13.163  14.732  0.00  0.00     0.202 A 
HETATM   29  O   UNK N   1      34.779  13.410  13.512  0.00  0.00    -0.333 OA
ENDBRANCH  19  23
ENDBRANCH   1  16
TORSDOF 10
ENDMDL
MODEL 6
REMARK VINA RESULT:      -6.4      2.082      3.021
REMARK  10 active torsions:
REMARK  status: ('A' for Active; 'I' for Inactive)
REMARK    1  A    between atoms: C_7  and  C_8 
REMARK    2  A    between atoms: C_8  and  C_9 
REMARK    3  A    between atoms: C_9  and  C_10 
REMARK    4  A    between atoms: C_10  and  C_11 
REMARK    5  A    between atoms: C_11  and  C_12 
REMARK    6  A    between atoms: C_12  and  C_13 
REMARK    7  A    between atoms: C_13  and  C_14 
REMARK    8  A    between atoms: C_14  and  O_15 
REMARK    9  A    between atoms: O_15  and  C_16 
REMARK   10  A    between atoms: C_19  and  C_23 
ROOT
HETATM    1  O   UNK N   1      34.984  15.675   7.765  0.00  0.00    -0.349 OA
ENDROOT
BRANCH   1   2
HETATM    2  C   UNK N   1      33.822  15.825   7.049  0.00  0.00     0.175 C 
BRANCH   2   3
HETATM    3  C   UNK N   1      33.899  15.036   5.755  0.00  0.00     0.027 C 
BRANCH   3   4
HETATM    4  C   UNK N   1      33.623  15.951   4.580  0.00  0.00     0.002 C 
BRANCH   4   5
HETATM    5  C   UNK N   1      33.188  17.316   5.078  0.00  0.00     0.000 C 
BRANCH   5   6
HETATM    6  C   UNK N   1      31.972  17.769   4.300  0.00  0.00     0.000 C 
BRANCH   6   7
HETATM    7  C   UNK N   1      30.790  16.868   4.604  0.00  0.00     0.007 C 
BRANCH   7   8
HETATM    8  C   UNK N   1      29.542  17.714   4.810  0.00  0.00     0.067 C 
BRANCH   8   9
HETATM    9  C   UNK N   1      29.035  17.630   6.211  0.00  0.00     0.078 A 
HETATM   10  O   UNK N   1      27.763  17.593   6.532  0.00  0.00    -0.242 OA
HETATM   11  N   UNK N   1      27.612  17.506   7.819  0.00  0.00    -0.266 N 
HETATM   12  C   UNK N   1      28.845  17.482   8.361  0.00  0.00     0.031 A 
ATOM     13  HN  UNK N   1      26.727  17.463   8.325  1.00  0.00     0.194 HD
HETATM   14  C   UNK N   1      29.116  17.393   9.818  0.00  0.00     0.070 C 
HETATM   15  C   UNK N   1      29.794  17.554   7.364  0.00  0.00     0.061 A 
ENDBRANCH   8   9
ENDBRANCH   7   8
ENDBRANCH   6   7
ENDBRANCH   5   6
ENDBRANCH   4   5
ENDBRANCH   3   4
ENDBRANCH   2   3
ENDBRANCH   1   2
BRANCH   1  16
HETATM   16  C   UNK N   1      35.081  15.261   9.056  0.00  0.00     0.090 A 
HETATM   17  C   UNK N   1      35.309  16.250  10.019  0.00  0.00     0.039 A 
HETATM   18  C   UNK N   1      35.497  15.919  11.359  0.00  0.00     0.018 A 
HETATM   19  C   UNK N   1      35.437  14.585  11.770  0.00  0.00     0.016 A 
HETATM   20  C   UNK N   1      35.167  13.588  10.831  0.00  0.00     0.042 A 
HETATM   21  C   UNK N   1      34.990  13.902   9.479  0.00  0.00     0.068 A 
HETATM   22 Cl   UNK N   1      34.680  12.552   8.402  0.00  0.00    -0.081 Cl
BRANCH  19  23
HETATM   23  C   UNK N   1      35.743  14.222  13.162  0.00  0.00     0.148 A 
HETATM   24  N   UNK N   1      36.839  14.524  13.728  0.00  0.00    -0.364 N 
HETATM   25  C   UNK N   1      36.886  13.960  15.046  0.00  0.00     0.104 A 
ATOM     26  HN  UNK N   1      37.578  15.087  13.308  1.00  0.00     0.162 HD
HETATM   27  C   UNK N   1      37.048  15.048  16.087  0.00  0.00     0.034 C 
HETATM   28  C   UNK N   1      35.509  13.272  15.165  0.00  0.00     0.202 A 
HETATM   29  O   UNK N   1      34.931  13.491  13.930  0.00  0.00    -0.333 OA
ENDBRANCH  19  23
ENDBRANCH   1  16
TORSDOF 10
ENDMDL
MODEL 7
REMARK VINA RESULT:      -6.3      3.210     12.020
REMARK  10 active torsions:
REMARK  status: ('A' for Active; 'I' for Inactive)
REMARK    1  A    between atoms: C_7  and  C_8 
REMARK    2  A    between atoms: C_8  and  C_9 
REMARK    3  A    between atoms: C_9  and  C_10 
REMARK    4  A    between atoms: C_10  and  C_11 
REMARK    5  A    between atoms: C_11  and  C_12 
REMARK    6  A    between atoms: C_12  and  C_13 
REMARK    7  A    between atoms: C_13  and  C_14 
REMARK    8  A    between atoms: C_14  and  O_15 
REMARK    9  A    between atoms: O_15  and  C_16 
REMARK   10  A    between atoms: C_19  and  C_23 
ROOT
HETATM    1  O   UNK N   1      28.701  18.588   4.611  0.00  0.00    -0.349 OA
ENDROOT
BRANCH   1   2
HETATM    2  C   UNK N   1      29.155  17.649   5.506  0.00  0.00     0.175 C 
BRANCH   2   3
HETATM    3  C   UNK N   1      28.819  18.073   6.923  0.00  0.00     0.027 C 
BRANCH   3   4
HETATM    4  C   UNK N   1      29.873  17.552   7.878  0.00  0.00     0.002 C 
BRANCH   4   5
HETATM    5  C   UNK N   1      30.695  16.471   7.202  0.00  0.00     0.000 C 
BRANCH   5   6
HETATM    6  C   UNK N   1      32.012  16.314   7.929  0.00  0.00     0.000 C 
BRANCH   6   7
HETATM    7  C   UNK N   1      33.079  17.165   7.268  0.00  0.00     0.007 C 
BRANCH   7   8
HETATM    8  C   UNK N   1      34.444  16.525   7.475  0.00  0.00     0.067 C 
BRANCH   8   9
HETATM    9  C   UNK N   1      34.827  16.476   8.917  0.00  0.00     0.078 A 
HETATM   10  O   UNK N   1      34.804  17.513   9.720  0.00  0.00    -0.242 OA
HETATM   11  N   UNK N   1      35.171  17.178  10.920  0.00  0.00    -0.266 N 
HETATM   12  C   UNK N   1      35.443  15.860  10.897  0.00  0.00     0.031 A 
ATOM     13  HN  UNK N   1      35.239  17.797  11.728  1.00  0.00     0.194 HD
HETATM   14  C   UNK N   1      35.904  15.080  12.074  0.00  0.00     0.070 C 
HETATM   15  C   UNK N   1      35.230  15.362   9.630  0.00  0.00     0.061 A 
ENDBRANCH   8   9
ENDBRANCH   7   8
ENDBRANCH   6   7
ENDBRANCH   5   6
ENDBRANCH   4   5
ENDBRANCH   3   4
ENDBRANCH   2   3
ENDBRANCH   1   2
BRANCH   1  16
HETATM   16  C   UNK N   1      27.408  18.781   4.242  0.00  0.00     0.090 A 
HETATM   17  C   UNK N   1      26.901  20.078   4.376  0.00  0.00     0.039 A 
HETATM   18  C   UNK N   1      25.567  20.362   4.095  0.00  0.00     0.018 A 
HETATM   19  C   UNK N   1      24.713  19.353   3.646  0.00  0.00     0.016 A 
HETATM   20  C   UNK N   1      25.210  18.061   3.463  0.00  0.00     0.042 A 
HETATM   21  C   UNK N   1      26.544  17.756   3.755  0.00  0.00     0.068 A 
HETATM   22 Cl   UNK N   1      27.034  16.091   3.502  0.00  0.00    -0.081 Cl
BRANCH  19  23
HETATM   23  C   UNK N   1      23.279  19.623   3.452  0.00  0.00     0.148 A 
HETATM   24  N   UNK N   1      22.849  20.555   2.705  0.00  0.00    -0.364 N 
HETATM   25  C   UNK N   1      21.419  20.632   2.786  0.00  0.00     0.104 A 
ATOM     26  HN  UNK N   1      23.435  21.160   2.130  1.00  0.00     0.162 HD
HETATM   27  C   UNK N   1      20.795  20.426   1.421  0.00  0.00     0.034 C 
HETATM   28  C   UNK N   1      21.074  19.469   3.742  0.00  0.00     0.202 A 
HETATM   29  O   UNK N   1      22.310  18.960   4.089  0.00  0.00    -0.333 OA
ENDBRANCH  19  23
ENDBRANCH   1  16
TORSDOF 10
ENDMDL
MODEL 8
REMARK VINA RESULT:      -6.3      3.422      6.015
REMARK  10 active torsions:
REMARK  status: ('A' for Active; 'I' for Inactive)
REMARK    1  A    between atoms: C_7  and  C_8 
REMARK    2  A    between atoms: C_8  and  C_9 
REMARK    3  A    between atoms: C_9  and  C_10 
REMARK    4  A    between atoms: C_10  and  C_11 
REMARK    5  A    between atoms: C_11  and  C_12 
REMARK    6  A    between atoms: C_12  and  C_13 
REMARK    7  A    between atoms: C_13  and  C_14 
REMARK    8  A    between atoms: C_14  and  O_15 
REMARK    9  A    between atoms: O_15  and  C_16 
REMARK   10  A    between atoms: C_19  and  C_23 
ROOT
HETATM    1  O   UNK N   1      28.058  18.674   6.492  0.00  0.00    -0.349 OA
ENDROOT
BRANCH   1   2
HETATM    2  C   UNK N   1      27.648  19.940   6.833  0.00  0.00     0.175 C 
BRANCH   2   3
HETATM    3  C   UNK N   1      26.643  20.454   5.819  0.00  0.00     0.027 C 
BRANCH   3   4
HETATM    4  C   UNK N   1      27.165  20.221   4.416  0.00  0.00     0.002 C 
BRANCH   4   5
HETATM    5  C   UNK N   1      26.079  19.602   3.557  0.00  0.00     0.000 C 
BRANCH   5   6
HETATM    6  C   UNK N   1      25.890  18.154   3.954  0.00  0.00     0.000 C 
BRANCH   6   7
HETATM    7  C   UNK N   1      24.447  17.737   3.741  0.00  0.00     0.007 C 
BRANCH   7   8
HETATM    8  C   UNK N   1      23.541  18.541   4.662  0.00  0.00     0.067 C 
BRANCH   8   9
HETATM    9  C   UNK N   1      22.395  19.152   3.926  0.00  0.00     0.078 A 
HETATM   10  O   UNK N   1      21.139  19.019   4.281  0.00  0.00    -0.242 OA
HETATM   11  N   UNK N   1      20.358  19.668   3.471  0.00  0.00    -0.266 N 
HETATM   12  C   UNK N   1      21.144  20.253   2.548  0.00  0.00     0.031 A 
ATOM     13  HN  UNK N   1      19.341  19.724   3.524  1.00  0.00     0.194 HD
HETATM   14  C   UNK N   1      20.639  21.089   1.429  0.00  0.00     0.070 C 
HETATM   15  C   UNK N   1      22.465  19.955   2.803  0.00  0.00     0.061 A 
ENDBRANCH   8   9
ENDBRANCH   7   8
ENDBRANCH   6   7
ENDBRANCH   5   6
ENDBRANCH   4   5
ENDBRANCH   3   4
ENDBRANCH   2   3
ENDBRANCH   1   2
BRANCH   1  16
HETATM   16  C   UNK N   1      29.198  18.062   6.909  0.00  0.00     0.090 A 
HETATM   17  C   UNK N   1      29.578  18.277   8.238  0.00  0.00     0.039 A 
HETATM   18  C   UNK N   1      30.769  17.755   8.738  0.00  0.00     0.018 A 
HETATM   19  C   UNK N   1      31.597  16.983   7.922  0.00  0.00     0.016 A 
HETATM   20  C   UNK N   1      31.213  16.720   6.605  0.00  0.00     0.042 A 
HETATM   21  C   UNK N   1      30.028  17.249   6.082  0.00  0.00     0.068 A 
HETATM   22 Cl   UNK N   1      29.675  16.860   4.408  0.00  0.00    -0.081 Cl
BRANCH  19  23
HETATM   23  C   UNK N   1      32.905  16.522   8.412  0.00  0.00     0.148 A 
HETATM   24  N   UNK N   1      33.432  16.959   9.481  0.00  0.00    -0.364 N 
HETATM   25  C   UNK N   1      34.741  16.396   9.652  0.00  0.00     0.104 A 
ATOM     26  HN  UNK N   1      32.991  17.614  10.126  1.00  0.00     0.162 HD
HETATM   27  C   UNK N   1      34.825  15.624  10.953  0.00  0.00     0.034 C 
HETATM   28  C   UNK N   1      34.863  15.456   8.433  0.00  0.00     0.202 A 
HETATM   29  O   UNK N   1      33.679  15.657   7.751  0.00  0.00    -0.333 OA
ENDBRANCH  19  23
ENDBRANCH   1  16
TORSDOF 10
ENDMDL
MODEL 9
REMARK VINA RESULT:      -6.3      4.312      7.085
REMARK  10 active torsions:
REMARK  status: ('A' for Active; 'I' for Inactive)
REMARK    1  A    between atoms: C_7  and  C_8 
REMARK    2  A    between atoms: C_8  and  C_9 
REMARK    3  A    between atoms: C_9  and  C_10 
REMARK    4  A    between atoms: C_10  and  C_11 
REMARK    5  A    between atoms: C_11  and  C_12 
REMARK    6  A    between atoms: C_12  and  C_13 
REMARK    7  A    between atoms: C_13  and  C_14 
REMARK    8  A    between atoms: C_14  and  O_15 
REMARK    9  A    between atoms: O_15  and  C_16 
REMARK   10  A    between atoms: C_19  and  C_23 
ROOT
HETATM    1  O   UNK N   1      27.605  18.627   6.341  0.00  0.00    -0.349 OA
ENDROOT
BRANCH   1   2
HETATM    2  C   UNK N   1      27.421  19.682   5.481  0.00  0.00     0.175 C 
BRANCH   2   3
HETATM    3  C   UNK N   1      26.637  19.233   4.262  0.00  0.00     0.027 C 
BRANCH   3   4
HETATM    4  C   UNK N   1      26.405  20.410   3.338  0.00  0.00     0.002 C 
BRANCH   4   5
HETATM    5  C   UNK N   1      25.000  20.354   2.770  0.00  0.00     0.000 C 
BRANCH   5   6
HETATM    6  C   UNK N   1      24.067  19.752   3.799  0.00  0.00     0.000 C 
BRANCH   6   7
HETATM    7  C   UNK N   1      22.654  19.691   3.253  0.00  0.00     0.007 C 
BRANCH   7   8
HETATM    8  C   UNK N   1      21.929  18.491   3.844  0.00  0.00     0.067 C 
BRANCH   8   9
HETATM    9  C   UNK N   1      21.028  17.836   2.850  0.00  0.00     0.078 A 
HETATM   10  O   UNK N   1      20.104  18.469   2.167  0.00  0.00    -0.242 OA
HETATM   11  N   UNK N   1      19.481  17.657   1.367  0.00  0.00    -0.266 N 
HETATM   12  C   UNK N   1      20.029  16.439   1.536  0.00  0.00     0.031 A 
ATOM     13  HN  UNK N   1      18.721  17.896   0.730  1.00  0.00     0.194 HD
HETATM   14  C   UNK N   1      19.597  15.219   0.807  0.00  0.00     0.070 C 
HETATM   15  C   UNK N   1      21.033  16.505   2.477  0.00  0.00     0.061 A 
ENDBRANCH   8   9
ENDBRANCH   7   8
ENDBRANCH   6   7
ENDBRANCH   5   6
ENDBRANCH   4   5
ENDBRANCH   3   4
ENDBRANCH   2   3
ENDBRANCH   1   2
BRANCH   1  16
HETATM   16  C   UNK N   1      28.797  18.181   6.816  0.00  0.00     0.090 A 
HETATM   17  C   UNK N   1      29.117  18.521   8.135  0.00  0.00     0.039 A 
HETATM   18  C   UNK N   1      30.347  18.175   8.689  0.00  0.00     0.018 A 
HETATM   19  C   UNK N   1      31.279  17.455   7.939  0.00  0.00     0.016 A 
HETATM   20  C   UNK N   1      30.961  17.067   6.636  0.00  0.00     0.042 A 
HETATM   21  C   UNK N   1      29.736  17.420   6.059  0.00  0.00     0.068 A 
HETATM   22 Cl   UNK N   1      29.473  16.889   4.408  0.00  0.00    -0.081 Cl
BRANCH  19  23
HETATM   23  C   UNK N   1      32.619  17.182   8.481  0.00  0.00     0.148 A 
HETATM   24  N   UNK N   1      32.897  16.129   9.133  0.00  0.00    -0.364 N 
HETATM   25  C   UNK N   1      34.249  16.186   9.610  0.00  0.00     0.104 A 
ATOM     26  HN  UNK N   1      32.253  15.355   9.295  1.00  0.00     0.162 HD
HETATM   27  C   UNK N   1      35.054  15.022   9.069  0.00  0.00     0.034 C 
HETATM   28  C   UNK N   1      34.750  17.529   9.036  0.00  0.00     0.202 A 
HETATM   29  O   UNK N   1      33.640  18.039   8.393  0.00  0.00    -0.333 OA
ENDBRANCH  19  23
ENDBRANCH   1  16
TORSDOF 10
ENDMDL
