REMARK  8 active torsions:
REMARK  status: ('A' for Active; 'I' for Inactive)
REMARK    1  A    between atoms: C_4  and  C_8 
REMARK    2  A    between atoms: C_8  and  C_9 
REMARK    3  A    between atoms: C_9  and  C_10 
REMARK    4  A    between atoms: C_10  and  C_11 
REMARK    5  A    between atoms: C_11  and  C_12 
REMARK    6  A    between atoms: C_12  and  O_13 
REMARK    7  A    between atoms: O_13  and  C_14 
REMARK    8  A    between atoms: C_18  and  C_22 
ROOT
HETATM    1  C   UNK N   1       1.914   0.729   0.148  0.00  0.00     0.112 A 
HETATM    2  C   UNK N   1       3.200   1.273  -0.044  0.00  0.00     0.070 A 
HETATM    3 Cl   UNK N   1       3.426   3.010  -0.173  0.00  0.00    -0.081 Cl
HETATM    4  C   UNK N   1       4.322   0.442  -0.111  0.00  0.00     0.042 A 
HETATM    5  C   UNK N   1       4.181  -0.944  -0.000  0.00  0.00     0.018 A 
HETATM    6  C   UNK N   1       2.917  -1.492   0.176  0.00  0.00     0.042 A 
HETATM    7  C   UNK N   1       1.785  -0.688   0.256  0.00  0.00     0.070 A 
HETATM    8 Cl   UNK N   1       0.274  -1.545   0.485  0.00  0.00    -0.081 Cl
ENDROOT
BRANCH   1   9
HETATM    9  O   UNK N   1       0.867   1.597   0.223  0.00  0.00    -0.348 OA
BRANCH   9  10
HETATM   10  C   UNK N   1      -0.400   1.300   0.665  0.00  0.00     0.176 C 
BRANCH  10  11
HETATM   11  C   UNK N   1      -1.425   1.560  -0.428  0.00  0.00     0.027 C 
BRANCH  11  12
HETATM   12  C   UNK N   1      -2.036   0.259  -0.939  0.00  0.00     0.002 C 
BRANCH  12  13
HETATM   13  C   UNK N   1      -2.687  -0.518   0.202  0.00  0.00     0.007 C 
BRANCH  13  14
HETATM   14  C   UNK N   1      -4.125  -0.896  -0.111  0.00  0.00     0.067 C 
BRANCH  14  15
HETATM   15  C   UNK N   1      -5.050   0.278  -0.063  0.00  0.00     0.078 A 
HETATM   16  C   UNK N   1      -4.709   1.607   0.124  0.00  0.00     0.061 A 
HETATM   17  C   UNK N   1      -5.921   2.254   0.066  0.00  0.00     0.031 A 
HETATM   18  C   UNK N   1      -6.130   3.719   0.191  0.00  0.00     0.070 C 
HETATM   19  N   UNK N   1      -6.906   1.361  -0.138  0.00  0.00    -0.266 N 
HETATM   20  O   UNK N   1      -6.351   0.190  -0.211  0.00  0.00    -0.242 OA
ATOM     21  HN  UNK N   1      -7.902   1.565  -0.219  1.00  0.00     0.194 HD
ENDBRANCH  14  15
ENDBRANCH  13  14
ENDBRANCH  12  13
ENDBRANCH  11  12
ENDBRANCH  10  11
ENDBRANCH   9  10
ENDBRANCH   1   9
BRANCH   5  22
HETATM   22  C   UNK N   1       5.345  -1.843  -0.044  0.00  0.00     0.148 A 
HETATM   23  N   UNK N   1       6.540  -1.437  -0.157  0.00  0.00    -0.368 N 
HETATM   24  C   UNK N   1       7.443  -2.554  -0.154  0.00  0.00     0.148 A 
ATOM     25  HN  UNK N   1       6.820  -0.460  -0.239  1.00  0.00     0.161 HD
HETATM   26  C   UNK N   1       6.484  -3.757  -0.010  0.00  0.00     0.197 A 
HETATM   27  O   UNK N   1       5.238  -3.171   0.046  0.00  0.00    -0.334 OA
ENDBRANCH   5  22
TORSDOF 8
