MODEL 1
REMARK VINA RESULT:      -6.9      0.000      0.000
REMARK  8 active torsions:
REMARK  status: ('A' for Active; 'I' for Inactive)
REMARK    1  A    between atoms: C_4  and  C_8 
REMARK    2  A    between atoms: C_8  and  C_9 
REMARK    3  A    between atoms: C_9  and  C_10 
REMARK    4  A    between atoms: C_10  and  C_11 
REMARK    5  A    between atoms: C_11  and  C_12 
REMARK    6  A    between atoms: C_12  and  O_13 
REMARK    7  A    between atoms: O_13  and  C_14 
REMARK    8  A    between atoms: C_18  and  C_22 
ROOT
HETATM    1  C   UNK N   1      29.445  17.688   6.643  0.00  0.00     0.112 A 
HETATM    2  C   UNK N   1      29.574  17.801   8.042  0.00  0.00     0.070 A 
HETATM    3 Cl   UNK N   1      28.217  18.323   9.027  0.00  0.00    -0.081 Cl
HETATM    4  C   UNK N   1      30.778  17.476   8.674  0.00  0.00     0.042 A 
HETATM    5  C   UNK N   1      31.875  17.045   7.922  0.00  0.00     0.018 A 
HETATM    6  C   UNK N   1      31.763  16.944   6.542  0.00  0.00     0.042 A 
HETATM    7  C   UNK N   1      30.574  17.251   5.889  0.00  0.00     0.070 A 
HETATM    8 Cl   UNK N   1      30.607  17.061   4.147  0.00  0.00    -0.081 Cl
ENDROOT
BRANCH   1   9
HETATM    9  O   UNK N   1      28.238  18.003   6.094  0.00  0.00    -0.348 OA
BRANCH   9  10
HETATM   10  C   UNK N   1      27.966  19.102   5.315  0.00  0.00     0.176 C 
BRANCH  10  11
HETATM   11  C   UNK N   1      27.138  20.117   6.087  0.00  0.00     0.027 C 
BRANCH  11  12
HETATM   12  C   UNK N   1      25.958  20.618   5.260  0.00  0.00     0.002 C 
BRANCH  12  13
HETATM   13  C   UNK N   1      25.771  19.763   4.010  0.00  0.00     0.007 C 
BRANCH  13  14
HETATM   14  C   UNK N   1      25.098  20.532   2.886  0.00  0.00     0.067 C 
BRANCH  14  15
HETATM   15  C   UNK N   1      23.606  20.458   2.953  0.00  0.00     0.078 A 
HETATM   16  C   UNK N   1      22.835  19.351   3.265  0.00  0.00     0.061 A 
HETATM   17  C   UNK N   1      21.549  19.834   3.199  0.00  0.00     0.031 A 
HETATM   18  C   UNK N   1      20.314  19.055   3.466  0.00  0.00     0.070 C 
HETATM   19  N   UNK N   1      21.568  21.137   2.866  0.00  0.00    -0.266 N 
HETATM   20  O   UNK N   1      22.813  21.478   2.727  0.00  0.00    -0.242 OA
ATOM     21  HN  UNK N   1      20.757  21.744   2.744  1.00  0.00     0.194 HD
ENDBRANCH  14  15
ENDBRANCH  13  14
ENDBRANCH  12  13
ENDBRANCH  11  12
ENDBRANCH  10  11
ENDBRANCH   9  10
ENDBRANCH   1   9
BRANCH   5  22
HETATM   22  C   UNK N   1      33.148  16.675   8.560  0.00  0.00     0.148 A 
HETATM   23  N   UNK N   1      33.744  17.402   9.410  0.00  0.00    -0.368 N 
HETATM   24  C   UNK N   1      34.948  16.756   9.854  0.00  0.00     0.148 A 
ATOM     25  HN  UNK N   1      33.417  18.312   9.732  1.00  0.00     0.161 HD
HETATM   26  C   UNK N   1      34.935  15.437   9.049  0.00  0.00     0.197 A 
HETATM   27  O   UNK N   1      33.779  15.526   8.304  0.00  0.00    -0.334 OA
ENDBRANCH   5  22
TORSDOF 8
ENDMDL
MODEL 2
REMARK VINA RESULT:      -6.6      1.229      2.207
REMARK  8 active torsions:
REMARK  status: ('A' for Active; 'I' for Inactive)
REMARK    1  A    between atoms: C_4  and  C_8 
REMARK    2  A    between atoms: C_8  and  C_9 
REMARK    3  A    between atoms: C_9  and  C_10 
REMARK    4  A    between atoms: C_10  and  C_11 
REMARK    5  A    between atoms: C_11  and  C_12 
REMARK    6  A    between atoms: C_12  and  O_13 
REMARK    7  A    between atoms: O_13  and  C_14 
REMARK    8  A    between atoms: C_18  and  C_22 
ROOT
HETATM    1  C   UNK N   1      29.214  17.963   7.067  0.00  0.00     0.112 A 
HETATM    2  C   UNK N   1      29.805  17.413   5.911  0.00  0.00     0.070 A 
HETATM    3 Cl   UNK N   1      28.983  17.495   4.361  0.00  0.00    -0.081 Cl
HETATM    4  C   UNK N   1      31.066  16.814   5.973  0.00  0.00     0.042 A 
HETATM    5  C   UNK N   1      31.754  16.741   7.188  0.00  0.00     0.018 A 
HETATM    6  C   UNK N   1      31.176  17.268   8.335  0.00  0.00     0.042 A 
HETATM    7  C   UNK N   1      29.926  17.879   8.300  0.00  0.00     0.070 A 
HETATM    8 Cl   UNK N   1      29.351  18.493   9.837  0.00  0.00    -0.081 Cl
ENDROOT
BRANCH   1   9
HETATM    9  O   UNK N   1      27.992  18.549   6.932  0.00  0.00    -0.348 OA
BRANCH   9  10
HETATM   10  C   UNK N   1      27.732  19.898   6.976  0.00  0.00     0.176 C 
BRANCH  10  11
HETATM   11  C   UNK N   1      26.538  20.244   6.100  0.00  0.00     0.027 C 
BRANCH  11  12
HETATM   12  C   UNK N   1      26.979  20.730   4.723  0.00  0.00     0.002 C 
BRANCH  12  13
HETATM   13  C   UNK N   1      26.396  19.846   3.624  0.00  0.00     0.007 C 
BRANCH  13  14
HETATM   14  C   UNK N   1      25.479  20.622   2.694  0.00  0.00     0.067 C 
BRANCH  14  15
HETATM   15  C   UNK N   1      24.035  20.303   2.915  0.00  0.00     0.078 A 
HETATM   16  C   UNK N   1      23.511  19.267   3.670  0.00  0.00     0.061 A 
HETATM   17  C   UNK N   1      22.153  19.446   3.550  0.00  0.00     0.031 A 
HETATM   18  C   UNK N   1      21.107  18.607   4.188  0.00  0.00     0.070 C 
HETATM   19  N   UNK N   1      21.900  20.514   2.772  0.00  0.00    -0.266 N 
HETATM   20  O   UNK N   1      23.046  21.004   2.411  0.00  0.00    -0.242 OA
ATOM     21  HN  UNK N   1      20.980  20.872   2.514  1.00  0.00     0.194 HD
ENDBRANCH  14  15
ENDBRANCH  13  14
ENDBRANCH  12  13
ENDBRANCH  11  12
ENDBRANCH  10  11
ENDBRANCH   9  10
ENDBRANCH   1   9
BRANCH   5  22
HETATM   22  C   UNK N   1      33.092  16.137   7.280  0.00  0.00     0.148 A 
HETATM   23  N   UNK N   1      33.714  15.656   6.287  0.00  0.00    -0.368 N 
HETATM   24  C   UNK N   1      34.996  15.157   6.701  0.00  0.00     0.148 A 
ATOM     25  HN  UNK N   1      33.357  15.626   5.332  1.00  0.00     0.161 HD
HETATM   26  C   UNK N   1      34.996  15.459   8.217  0.00  0.00     0.197 A 
HETATM   27  O   UNK N   1      33.773  16.057   8.427  0.00  0.00    -0.334 OA
ENDBRANCH   5  22
TORSDOF 8
ENDMDL
MODEL 3
REMARK VINA RESULT:      -6.5      5.806      8.300
REMARK  8 active torsions:
REMARK  status: ('A' for Active; 'I' for Inactive)
REMARK    1  A    between atoms: C_4  and  C_8 
REMARK    2  A    between atoms: C_8  and  C_9 
REMARK    3  A    between atoms: C_9  and  C_10 
REMARK    4  A    between atoms: C_10  and  C_11 
REMARK    5  A    between atoms: C_11  and  C_12 
REMARK    6  A    between atoms: C_12  and  O_13 
REMARK    7  A    between atoms: O_13  and  C_14 
REMARK    8  A    between atoms: C_18  and  C_22 
ROOT
HETATM    1  C   UNK N   1      35.546  14.560   9.240  0.00  0.00     0.112 A 
HETATM    2  C   UNK N   1      36.767  14.147   9.810  0.00  0.00     0.070 A 
HETATM    3 Cl   UNK N   1      38.212  14.003   8.822  0.00  0.00    -0.081 Cl
HETATM    4  C   UNK N   1      36.856  13.869  11.177  0.00  0.00     0.042 A 
HETATM    5  C   UNK N   1      35.730  13.985  11.996  0.00  0.00     0.018 A 
HETATM    6  C   UNK N   1      34.518  14.378  11.442  0.00  0.00     0.042 A 
HETATM    7  C   UNK N   1      34.403  14.670  10.088  0.00  0.00     0.070 A 
HETATM    8 Cl   UNK N   1      32.804  15.156   9.561  0.00  0.00    -0.081 Cl
ENDROOT
BRANCH   1   9
HETATM    9  O   UNK N   1      35.533  14.833   7.906  0.00  0.00    -0.348 OA
BRANCH   9  10
HETATM   10  C   UNK N   1      34.937  14.072   6.929  0.00  0.00     0.176 C 
BRANCH  10  11
HETATM   11  C   UNK N   1      33.862  14.870   6.207  0.00  0.00     0.027 C 
BRANCH  11  12
HETATM   12  C   UNK N   1      34.391  16.224   5.744  0.00  0.00     0.002 C 
BRANCH  12  13
HETATM   13  C   UNK N   1      33.451  17.348   6.173  0.00  0.00     0.007 C 
BRANCH  13  14
HETATM   14  C   UNK N   1      31.990  16.950   6.046  0.00  0.00     0.067 C 
BRANCH  14  15
HETATM   15  C   UNK N   1      31.176  17.374   7.226  0.00  0.00     0.078 A 
HETATM   16  C   UNK N   1      29.812  17.213   7.406  0.00  0.00     0.061 A 
HETATM   17  C   UNK N   1      29.592  17.757   8.650  0.00  0.00     0.031 A 
HETATM   18  C   UNK N   1      28.283  17.829   9.347  0.00  0.00     0.070 C 
HETATM   19  N   UNK N   1      30.751  18.211   9.161  0.00  0.00    -0.266 N 
HETATM   20  O   UNK N   1      31.677  17.966   8.285  0.00  0.00    -0.242 OA
ATOM     21  HN  UNK N   1      30.878  18.663  10.066  1.00  0.00     0.194 HD
ENDBRANCH  14  15
ENDBRANCH  13  14
ENDBRANCH  12  13
ENDBRANCH  11  12
ENDBRANCH  10  11
ENDBRANCH   9  10
ENDBRANCH   1   9
BRANCH   5  22
HETATM   22  C   UNK N   1      35.797  13.720  13.442  0.00  0.00     0.148 A 
HETATM   23  N   UNK N   1      36.831  13.929  14.145  0.00  0.00    -0.368 N 
HETATM   24  C   UNK N   1      36.573  13.586  15.516  0.00  0.00     0.148 A 
ATOM     25  HN  UNK N   1      37.717  14.287  13.789  1.00  0.00     0.161 HD
HETATM   26  C   UNK N   1      35.104  13.109  15.469  0.00  0.00     0.197 A 
HETATM   27  O   UNK N   1      34.762  13.247  14.141  0.00  0.00    -0.334 OA
ENDBRANCH   5  22
TORSDOF 8
ENDMDL
MODEL 4
REMARK VINA RESULT:      -6.3      4.447      7.009
REMARK  8 active torsions:
REMARK  status: ('A' for Active; 'I' for Inactive)
REMARK    1  A    between atoms: C_4  and  C_8 
REMARK    2  A    between atoms: C_8  and  C_9 
REMARK    3  A    between atoms: C_9  and  C_10 
REMARK    4  A    between atoms: C_10  and  C_11 
REMARK    5  A    between atoms: C_11  and  C_12 
REMARK    6  A    between atoms: C_12  and  O_13 
REMARK    7  A    between atoms: O_13  and  C_14 
REMARK    8  A    between atoms: C_18  and  C_22 
ROOT
HETATM    1  C   UNK N   1      34.963  14.758   8.998  0.00  0.00     0.112 A 
HETATM    2  C   UNK N   1      35.064  15.836   9.899  0.00  0.00     0.070 A 
HETATM    3 Cl   UNK N   1      34.846  17.489   9.345  0.00  0.00    -0.081 Cl
HETATM    4  C   UNK N   1      35.315  15.610  11.256  0.00  0.00     0.042 A 
HETATM    5  C   UNK N   1      35.482  14.307  11.734  0.00  0.00     0.018 A 
HETATM    6  C   UNK N   1      35.398  13.238  10.853  0.00  0.00     0.042 A 
HETATM    7  C   UNK N   1      35.139  13.434   9.500  0.00  0.00     0.070 A 
HETATM    8 Cl   UNK N   1      35.061  11.974   8.535  0.00  0.00    -0.081 Cl
ENDROOT
BRANCH   1   9
HETATM    9  O   UNK N   1      34.698  15.048   7.694  0.00  0.00    -0.348 OA
BRANCH   9  10
HETATM   10  C   UNK N   1      33.454  15.261   7.149  0.00  0.00     0.176 C 
BRANCH  10  11
HETATM   11  C   UNK N   1      33.499  16.389   6.130  0.00  0.00     0.027 C 
BRANCH  11  12
HETATM   12  C   UNK N   1      32.278  17.295   6.248  0.00  0.00     0.002 C 
BRANCH  12  13
HETATM   13  C   UNK N   1      31.444  16.923   7.471  0.00  0.00     0.007 C 
BRANCH  13  14
HETATM   14  C   UNK N   1      30.010  16.580   7.102  0.00  0.00     0.067 C 
BRANCH  14  15
HETATM   15  C   UNK N   1      29.061  17.699   7.387  0.00  0.00     0.078 A 
HETATM   16  C   UNK N   1      28.623  18.673   6.505  0.00  0.00     0.061 A 
HETATM   17  C   UNK N   1      27.765  19.427   7.270  0.00  0.00     0.031 A 
HETATM   18  C   UNK N   1      26.995  20.608   6.801  0.00  0.00     0.070 C 
HETATM   19  N   UNK N   1      27.708  18.930   8.518  0.00  0.00    -0.266 N 
HETATM   20  O   UNK N   1      28.494  17.897   8.554  0.00  0.00    -0.242 OA
ATOM     21  HN  UNK N   1      27.153  19.295   9.291  1.00  0.00     0.194 HD
ENDBRANCH  14  15
ENDBRANCH  13  14
ENDBRANCH  12  13
ENDBRANCH  11  12
ENDBRANCH  10  11
ENDBRANCH   9  10
ENDBRANCH   1   9
BRANCH   5  22
HETATM   22  C   UNK N   1      35.725  14.035  13.160  0.00  0.00     0.148 A 
HETATM   23  N   UNK N   1      36.755  14.432  13.783  0.00  0.00    -0.368 N 
HETATM   24  C   UNK N   1      36.688  14.020  15.158  0.00  0.00     0.148 A 
ATOM     25  HN  UNK N   1      37.519  14.965  13.369  1.00  0.00     0.161 HD
HETATM   26  C   UNK N   1      35.343  13.263  15.214  0.00  0.00     0.197 A 
HETATM   27  O   UNK N   1      34.867  13.354  13.924  0.00  0.00    -0.334 OA
ENDBRANCH   5  22
TORSDOF 8
ENDMDL
MODEL 5
REMARK VINA RESULT:      -6.3     11.524     13.899
REMARK  8 active torsions:
REMARK  status: ('A' for Active; 'I' for Inactive)
REMARK    1  A    between atoms: C_4  and  C_8 
REMARK    2  A    between atoms: C_8  and  C_9 
REMARK    3  A    between atoms: C_9  and  C_10 
REMARK    4  A    between atoms: C_10  and  C_11 
REMARK    5  A    between atoms: C_11  and  C_12 
REMARK    6  A    between atoms: C_12  and  O_13 
REMARK    7  A    between atoms: O_13  and  C_14 
REMARK    8  A    between atoms: C_18  and  C_22 
ROOT
HETATM    1  C   UNK N   1      29.638  28.465  -4.972  0.00  0.00     0.112 A 
HETATM    2  C   UNK N   1      29.172  27.424  -5.800  0.00  0.00     0.070 A 
HETATM    3 Cl   UNK N   1      28.363  27.783  -7.317  0.00  0.00    -0.081 Cl
HETATM    4  C   UNK N   1      29.366  26.087  -5.441  0.00  0.00     0.042 A 
HETATM    5  C   UNK N   1      30.016  25.765  -4.246  0.00  0.00     0.018 A 
HETATM    6  C   UNK N   1      30.468  26.783  -3.416  0.00  0.00     0.042 A 
HETATM    7  C   UNK N   1      30.297  28.121  -3.754  0.00  0.00     0.070 A 
HETATM    8 Cl   UNK N   1      30.933  29.271  -2.595  0.00  0.00    -0.081 Cl
ENDROOT
BRANCH   1   9
HETATM    9  O   UNK N   1      29.433  29.745  -5.391  0.00  0.00    -0.348 OA
BRANCH   9  10
HETATM   10  C   UNK N   1      28.251  30.442  -5.313  0.00  0.00     0.176 C 
BRANCH  10  11
HETATM   11  C   UNK N   1      27.759  30.506  -3.875  0.00  0.00     0.027 C 
BRANCH  11  12
HETATM   12  C   UNK N   1      26.291  30.105  -3.771  0.00  0.00     0.002 C 
BRANCH  12  13
HETATM   13  C   UNK N   1      26.081  28.682  -4.280  0.00  0.00     0.007 C 
BRANCH  13  14
HETATM   14  C   UNK N   1      26.194  27.654  -3.167  0.00  0.00     0.067 C 
BRANCH  14  15
HETATM   15  C   UNK N   1      26.234  26.251  -3.684  0.00  0.00     0.078 A 
HETATM   16  C   UNK N   1      25.843  25.807  -4.936  0.00  0.00     0.061 A 
HETATM   17  C   UNK N   1      26.102  24.458  -4.887  0.00  0.00     0.031 A 
HETATM   18  C   UNK N   1      25.879  23.490  -5.991  0.00  0.00     0.070 C 
HETATM   19  N   UNK N   1      26.610  24.134  -3.684  0.00  0.00    -0.266 N 
HETATM   20  O   UNK N   1      26.676  25.229  -2.990  0.00  0.00    -0.242 OA
ATOM     21  HN  UNK N   1      26.889  23.203  -3.374  1.00  0.00     0.194 HD
ENDBRANCH  14  15
ENDBRANCH  13  14
ENDBRANCH  12  13
ENDBRANCH  11  12
ENDBRANCH  10  11
ENDBRANCH   9  10
ENDBRANCH   1   9
BRANCH   5  22
HETATM   22  C   UNK N   1      30.255  24.368  -3.852  0.00  0.00     0.148 A 
HETATM   23  N   UNK N   1      30.223  23.395  -4.663  0.00  0.00    -0.368 N 
HETATM   24  C   UNK N   1      30.512  22.168  -3.975  0.00  0.00     0.148 A 
ATOM     25  HN  UNK N   1      30.021  23.472  -5.660  1.00  0.00     0.161 HD
HETATM   26  C   UNK N   1      30.729  22.645  -2.521  0.00  0.00     0.197 A 
HETATM   27  O   UNK N   1      30.541  24.008  -2.598  0.00  0.00    -0.334 OA
ENDBRANCH   5  22
TORSDOF 8
ENDMDL
MODEL 6
REMARK VINA RESULT:      -6.3      2.632     10.717
REMARK  8 active torsions:
REMARK  status: ('A' for Active; 'I' for Inactive)
REMARK    1  A    between atoms: C_4  and  C_8 
REMARK    2  A    between atoms: C_8  and  C_9 
REMARK    3  A    between atoms: C_9  and  C_10 
REMARK    4  A    between atoms: C_10  and  C_11 
REMARK    5  A    between atoms: C_11  and  C_12 
REMARK    6  A    between atoms: C_12  and  O_13 
REMARK    7  A    between atoms: O_13  and  C_14 
REMARK    8  A    between atoms: C_18  and  C_22 
ROOT
HETATM    1  C   UNK N   1      30.171  17.311   7.200  0.00  0.00     0.112 A 
HETATM    2  C   UNK N   1      29.114  18.012   7.815  0.00  0.00     0.070 A 
HETATM    3 Cl   UNK N   1      29.003  18.106   9.566  0.00  0.00    -0.081 Cl
HETATM    4  C   UNK N   1      28.149  18.666   7.044  0.00  0.00     0.042 A 
HETATM    5  C   UNK N   1      28.213  18.623   5.648  0.00  0.00     0.018 A 
HETATM    6  C   UNK N   1      29.242  17.924   5.031  0.00  0.00     0.042 A 
HETATM    7  C   UNK N   1      30.221  17.273   5.774  0.00  0.00     0.070 A 
HETATM    8 Cl   UNK N   1      31.447  16.446   4.834  0.00  0.00    -0.081 Cl
ENDROOT
BRANCH   1   9
HETATM    9  O   UNK N   1      31.087  16.713   8.011  0.00  0.00    -0.348 OA
BRANCH   9  10
HETATM   10  C   UNK N   1      32.107  17.345   8.683  0.00  0.00     0.176 C 
BRANCH  10  11
HETATM   11  C   UNK N   1      33.062  18.012   7.706  0.00  0.00     0.027 C 
BRANCH  11  12
HETATM   12  C   UNK N   1      34.516  17.795   8.113  0.00  0.00     0.002 C 
BRANCH  12  13
HETATM   13  C   UNK N   1      34.603  16.959   9.387  0.00  0.00     0.007 C 
BRANCH  13  14
HETATM   14  C   UNK N   1      35.272  15.616   9.145  0.00  0.00     0.067 C 
BRANCH  14  15
HETATM   15  C   UNK N   1      35.845  15.028  10.394  0.00  0.00     0.078 A 
HETATM   16  C   UNK N   1      35.261  14.993  11.649  0.00  0.00     0.061 A 
HETATM   17  C   UNK N   1      36.196  14.334  12.413  0.00  0.00     0.031 A 
HETATM   18  C   UNK N   1      36.064  14.007  13.856  0.00  0.00     0.070 C 
HETATM   19  N   UNK N   1      37.257  14.007  11.654  0.00  0.00    -0.266 N 
HETATM   20  O   UNK N   1      37.015  14.436  10.453  0.00  0.00    -0.242 OA
ATOM     21  HN  UNK N   1      38.096  13.516  11.964  1.00  0.00     0.194 HD
ENDBRANCH  14  15
ENDBRANCH  13  14
ENDBRANCH  12  13
ENDBRANCH  11  12
ENDBRANCH  10  11
ENDBRANCH   9  10
ENDBRANCH   1   9
BRANCH   5  22
HETATM   22  C   UNK N   1      27.225  19.319   4.810  0.00  0.00     0.148 A 
HETATM   23  N   UNK N   1      27.518  19.919   3.733  0.00  0.00    -0.368 N 
HETATM   24  C   UNK N   1      26.335  20.482   3.143  0.00  0.00     0.148 A 
ATOM     25  HN  UNK N   1      28.457  19.992   3.342  1.00  0.00     0.161 HD
HETATM   26  C   UNK N   1      25.235  20.069   4.146  0.00  0.00     0.197 A 
HETATM   27  O   UNK N   1      25.924  19.365   5.110  0.00  0.00    -0.334 OA
ENDBRANCH   5  22
TORSDOF 8
ENDMDL
MODEL 7
REMARK VINA RESULT:      -6.3      9.239     15.402
REMARK  8 active torsions:
REMARK  status: ('A' for Active; 'I' for Inactive)
REMARK    1  A    between atoms: C_4  and  C_8 
REMARK    2  A    between atoms: C_8  and  C_9 
REMARK    3  A    between atoms: C_9  and  C_10 
REMARK    4  A    between atoms: C_10  and  C_11 
REMARK    5  A    between atoms: C_11  and  C_12 
REMARK    6  A    between atoms: C_12  and  O_13 
REMARK    7  A    between atoms: O_13  and  C_14 
REMARK    8  A    between atoms: C_18  and  C_22 
ROOT
HETATM    1  C   UNK N   1      36.249  12.846  14.290  0.00  0.00     0.112 A 
HETATM    2  C   UNK N   1      36.460  14.237  14.209  0.00  0.00     0.070 A 
HETATM    3 Cl   UNK N   1      37.366  15.079  15.455  0.00  0.00    -0.081 Cl
HETATM    4  C   UNK N   1      35.973  14.969  13.121  0.00  0.00     0.042 A 
HETATM    5  C   UNK N   1      35.258  14.329  12.105  0.00  0.00     0.018 A 
HETATM    6  C   UNK N   1      35.033  12.961  12.182  0.00  0.00     0.042 A 
HETATM    7  C   UNK N   1      35.515  12.208  13.247  0.00  0.00     0.070 A 
HETATM    8 Cl   UNK N   1      35.144  10.496  13.180  0.00  0.00    -0.081 Cl
ENDROOT
BRANCH   1   9
HETATM    9  O   UNK N   1      36.767  12.192  15.367  0.00  0.00    -0.348 OA
BRANCH   9  10
HETATM   10  C   UNK N   1      36.067  11.407  16.251  0.00  0.00     0.176 C 
BRANCH  10  11
HETATM   11  C   UNK N   1      34.958  12.207  16.917  0.00  0.00     0.027 C 
BRANCH  11  12
HETATM   12  C   UNK N   1      35.520  13.209  17.920  0.00  0.00     0.002 C 
BRANCH  12  13
HETATM   13  C   UNK N   1      35.052  12.880  19.335  0.00  0.00     0.007 C 
BRANCH  13  14
HETATM   14  C   UNK N   1      35.666  11.592  19.855  0.00  0.00     0.067 C 
BRANCH  14  15
HETATM   15  C   UNK N   1      34.643  10.530  20.107  0.00  0.00     0.078 A 
HETATM   16  C   UNK N   1      33.928  10.315  21.273  0.00  0.00     0.061 A 
HETATM   17  C   UNK N   1      33.128   9.241  20.958  0.00  0.00     0.031 A 
HETATM   18  C   UNK N   1      32.136   8.603  21.860  0.00  0.00     0.070 C 
HETATM   19  N   UNK N   1      33.364   8.852  19.692  0.00  0.00    -0.266 N 
HETATM   20  O   UNK N   1      34.273   9.644  19.212  0.00  0.00    -0.242 OA
ATOM     21  HN  UNK N   1      32.913   8.080  19.201  1.00  0.00     0.194 HD
ENDBRANCH  14  15
ENDBRANCH  13  14
ENDBRANCH  12  13
ENDBRANCH  11  12
ENDBRANCH  10  11
ENDBRANCH   9  10
ENDBRANCH   1   9
BRANCH   5  22
HETATM   22  C   UNK N   1      34.752  15.068  10.937  0.00  0.00     0.148 A 
HETATM   23  N   UNK N   1      33.583  14.925  10.470  0.00  0.00    -0.368 N 
HETATM   24  C   UNK N   1      33.392  15.794   9.343  0.00  0.00     0.148 A 
ATOM     25  HN  UNK N   1      32.880  14.285  10.840  1.00  0.00     0.161 HD
HETATM   26  C   UNK N   1      34.757  16.511   9.240  0.00  0.00     0.197 A 
HETATM   27  O   UNK N   1      35.485  15.968  10.276  0.00  0.00    -0.334 OA
ENDBRANCH   5  22
TORSDOF 8
ENDMDL
MODEL 8
REMARK VINA RESULT:      -6.2      8.846     13.701
REMARK  8 active torsions:
REMARK  status: ('A' for Active; 'I' for Inactive)
REMARK    1  A    between atoms: C_4  and  C_8 
REMARK    2  A    between atoms: C_8  and  C_9 
REMARK    3  A    between atoms: C_9  and  C_10 
REMARK    4  A    between atoms: C_10  and  C_11 
REMARK    5  A    between atoms: C_11  and  C_12 
REMARK    6  A    between atoms: C_12  and  O_13 
REMARK    7  A    between atoms: O_13  and  C_14 
REMARK    8  A    between atoms: C_18  and  C_22 
ROOT
HETATM    1  C   UNK N   1      35.276  12.421  16.597  0.00  0.00     0.112 A 
HETATM    2  C   UNK N   1      35.118  11.021  16.547  0.00  0.00     0.070 A 
HETATM    3 Cl   UNK N   1      35.069  10.181  15.005  0.00  0.00    -0.081 Cl
HETATM    4  C   UNK N   1      35.021  10.273  17.724  0.00  0.00     0.042 A 
HETATM    5  C   UNK N   1      35.068  10.907  18.969  0.00  0.00     0.018 A 
HETATM    6  C   UNK N   1      35.210  12.287  19.029  0.00  0.00     0.042 A 
HETATM    7  C   UNK N   1      35.318  13.055  17.874  0.00  0.00     0.070 A 
HETATM    8 Cl   UNK N   1      35.497  14.778  18.136  0.00  0.00    -0.081 Cl
ENDROOT
BRANCH   1   9
HETATM    9  O   UNK N   1      35.382  13.086  15.413  0.00  0.00    -0.348 OA
BRANCH   9  10
HETATM   10  C   UNK N   1      36.540  13.589  14.869  0.00  0.00     0.176 C 
BRANCH  10  11
HETATM   11  C   UNK N   1      36.234  14.430  13.639  0.00  0.00     0.027 C 
BRANCH  11  12
HETATM   12  C   UNK N   1      36.564  13.678  12.354  0.00  0.00     0.002 C 
BRANCH  12  13
HETATM   13  C   UNK N   1      36.298  14.552  11.131  0.00  0.00     0.007 C 
BRANCH  13  14
HETATM   14  C   UNK N   1      35.004  15.338  11.262  0.00  0.00     0.067 C 
BRANCH  14  15
HETATM   15  C   UNK N   1      34.817  16.322  10.151  0.00  0.00     0.078 A 
HETATM   16  C   UNK N   1      34.056  16.160   9.007  0.00  0.00     0.061 A 
HETATM   17  C   UNK N   1      34.219  17.356   8.348  0.00  0.00     0.031 A 
HETATM   18  C   UNK N   1      33.593  17.726   7.053  0.00  0.00     0.070 C 
HETATM   19  N   UNK N   1      35.026  18.163   9.060  0.00  0.00    -0.266 N 
HETATM   20  O   UNK N   1      35.365  17.515  10.132  0.00  0.00    -0.242 OA
ATOM     21  HN  UNK N   1      35.317  19.106   8.805  1.00  0.00     0.194 HD
ENDBRANCH  14  15
ENDBRANCH  13  14
ENDBRANCH  12  13
ENDBRANCH  11  12
ENDBRANCH  10  11
ENDBRANCH   9  10
ENDBRANCH   1   9
BRANCH   5  22
HETATM   22  C   UNK N   1      34.992  10.145  20.225  0.00  0.00     0.148 A 
HETATM   23  N   UNK N   1      35.851   9.281  20.574  0.00  0.00    -0.368 N 
HETATM   24  C   UNK N   1      35.503   8.728  21.853  0.00  0.00     0.148 A 
ATOM     25  HN  UNK N   1      36.670   9.017  20.026  1.00  0.00     0.161 HD
HETATM   26  C   UNK N   1      34.199   9.481  22.198  0.00  0.00     0.197 A 
HETATM   27  O   UNK N   1      34.011  10.312  21.115  0.00  0.00    -0.334 OA
ENDBRANCH   5  22
TORSDOF 8
ENDMDL
MODEL 9
REMARK VINA RESULT:      -6.2      7.701      9.299
REMARK  8 active torsions:
REMARK  status: ('A' for Active; 'I' for Inactive)
REMARK    1  A    between atoms: C_4  and  C_8 
REMARK    2  A    between atoms: C_8  and  C_9 
REMARK    3  A    between atoms: C_9  and  C_10 
REMARK    4  A    between atoms: C_10  and  C_11 
REMARK    5  A    between atoms: C_11  and  C_12 
REMARK    6  A    between atoms: C_12  and  O_13 
REMARK    7  A    between atoms: O_13  and  C_14 
REMARK    8  A    between atoms: C_18  and  C_22 
ROOT
HETATM    1  C   UNK N   1      23.055  15.937   4.816  0.00  0.00     0.112 A 
HETATM    2  C   UNK N   1      22.912  17.303   5.134  0.00  0.00     0.070 A 
HETATM    3 Cl   UNK N   1      23.877  18.518   4.312  0.00  0.00    -0.081 Cl
HETATM    4  C   UNK N   1      21.983  17.717   6.092  0.00  0.00     0.042 A 
HETATM    5  C   UNK N   1      21.190  16.778   6.758  0.00  0.00     0.018 A 
HETATM    6  C   UNK N   1      21.332  15.429   6.462  0.00  0.00     0.042 A 
HETATM    7  C   UNK N   1      22.241  14.990   5.506  0.00  0.00     0.070 A 
HETATM    8 Cl   UNK N   1      22.284  13.256   5.256  0.00  0.00    -0.081 Cl
ENDROOT
BRANCH   1   9
HETATM    9  O   UNK N   1      23.966  15.604   3.859  0.00  0.00    -0.348 OA
BRANCH   9  10
HETATM   10  C   UNK N   1      23.758  15.629   2.501  0.00  0.00     0.176 C 
BRANCH  10  11
HETATM   11  C   UNK N   1      23.789  14.221   1.927  0.00  0.00     0.027 C 
BRANCH  11  12
HETATM   12  C   UNK N   1      22.722  14.034   0.853  0.00  0.00     0.002 C 
BRANCH  12  13
HETATM   13  C   UNK N   1      21.373  13.698   1.483  0.00  0.00     0.007 C 
BRANCH  13  14
HETATM   14  C   UNK N   1      20.223  14.393   0.775  0.00  0.00     0.067 C 
BRANCH  14  15
HETATM   15  C   UNK N   1      20.192  15.865   1.037  0.00  0.00     0.078 A 
HETATM   16  C   UNK N   1      20.236  16.498   2.268  0.00  0.00     0.061 A 
HETATM   17  C   UNK N   1      20.197  17.832   1.937  0.00  0.00     0.031 A 
HETATM   18  C   UNK N   1      20.237  18.965   2.896  0.00  0.00     0.070 C 
HETATM   19  N   UNK N   1      20.130  17.969   0.601  0.00  0.00    -0.266 N 
HETATM   20  O   UNK N   1      20.130  16.774   0.094  0.00  0.00    -0.242 OA
ATOM     21  HN  UNK N   1      20.087  18.847   0.083  1.00  0.00     0.194 HD
ENDBRANCH  14  15
ENDBRANCH  13  14
ENDBRANCH  12  13
ENDBRANCH  11  12
ENDBRANCH  10  11
ENDBRANCH   9  10
ENDBRANCH   1   9
BRANCH   5  22
HETATM   22  C   UNK N   1      20.187  17.185   7.755  0.00  0.00     0.148 A 
HETATM   23  N   UNK N   1      19.096  16.569   7.943  0.00  0.00    -0.368 N 
HETATM   24  C   UNK N   1      18.346  17.203   8.991  0.00  0.00     0.148 A 
ATOM     25  HN  UNK N   1      18.794  15.744   7.426  1.00  0.00     0.161 HD
HETATM   26  C   UNK N   1      19.267  18.376   9.397  0.00  0.00     0.197 A 
HETATM   27  O   UNK N   1      20.352  18.238   8.559  0.00  0.00    -0.334 OA
ENDBRANCH   5  22
TORSDOF 8
ENDMDL
