REMARK  8 active torsions:
REMARK  status: ('A' for Active; 'I' for Inactive)
REMARK    1  A    between atoms: C_7  and  C_8 
REMARK    2  A    between atoms: C_8  and  C_9 
REMARK    3  A    between atoms: C_9  and  C_10 
REMARK    4  A    between atoms: C_10  and  C_11 
REMARK    5  A    between atoms: C_11  and  C_12 
REMARK    6  A    between atoms: C_12  and  O_13 
REMARK    7  A    between atoms: O_13  and  C_14 
REMARK    8  A    between atoms: C_17  and  C_20 
ROOT
HETATM    1  C   UNK N   1       0.953   1.222   0.338  0.00  0.00     0.068 A 
HETATM    2  C   UNK N   1       2.241   1.717   0.133  0.00  0.00     0.038 A 
HETATM    3  C   UNK N   1       3.328   0.845   0.072  0.00  0.00     0.018 A 
HETATM    4  C   UNK N   1       3.136  -0.535   0.222  0.00  0.00     0.015 A 
HETATM    5  C   UNK N   1       1.852  -1.034   0.462  0.00  0.00     0.018 A 
HETATM    6  C   UNK N   1       0.766  -0.160   0.524  0.00  0.00     0.038 A 
ENDROOT
BRANCH   1   7
HETATM    7  O   UNK N   1      -0.087   2.088   0.324  0.00  0.00    -0.351 OA
BRANCH   7   8
HETATM    8  C   UNK N   1      -1.409   1.702   0.292  0.00  0.00     0.175 C 
BRANCH   8   9
HETATM    9  C   UNK N   1      -1.811   1.250  -1.112  0.00  0.00     0.027 C 
BRANCH   9  10
HETATM   10  C   UNK N   1      -1.603  -0.252  -1.278  0.00  0.00     0.002 C 
BRANCH  10  11
HETATM   11  C   UNK N   1      -2.824  -1.096  -0.909  0.00  0.00     0.007 C 
BRANCH  11  12
HETATM   12  C   UNK N   1      -3.395  -0.775   0.468  0.00  0.00     0.067 C 
BRANCH  12  13
HETATM   13  C   UNK N   1      -4.464   0.253   0.311  0.00  0.00     0.078 A 
HETATM   14  O   UNK N   1      -5.553   0.085  -0.400  0.00  0.00    -0.242 OA
HETATM   15  N   UNK N   1      -6.263   1.175  -0.415  0.00  0.00    -0.266 N 
HETATM   16  C   UNK N   1      -5.600   2.087   0.316  0.00  0.00     0.031 A 
ATOM     17  HN  UNK N   1      -7.154   1.312  -0.892  1.00  0.00     0.194 HD
HETATM   18  C   UNK N   1      -6.055   3.488   0.516  0.00  0.00     0.070 C 
HETATM   19  C   UNK N   1      -4.436   1.540   0.808  0.00  0.00     0.061 A 
ENDBRANCH  12  13
ENDBRANCH  11  12
ENDBRANCH  10  11
ENDBRANCH   9  10
ENDBRANCH   8   9
ENDBRANCH   7   8
ENDBRANCH   1   7
BRANCH   4  20
HETATM   20  C   UNK N   1       4.276  -1.454   0.093  0.00  0.00     0.148 A 
HETATM   21  N   UNK N   1       5.457  -1.056  -0.144  0.00  0.00    -0.364 N 
HETATM   22  C   UNK N   1       6.346  -2.176  -0.244  0.00  0.00     0.104 A 
ATOM     23  HN  UNK N   1       5.734  -0.080  -0.248  1.00  0.00     0.162 HD
HETATM   24  C   UNK N   1       7.406  -2.098   0.837  0.00  0.00     0.034 C 
HETATM   25  C   UNK N   1       5.402  -3.375  -0.002  0.00  0.00     0.202 A 
HETATM   26  O   UNK N   1       4.170  -2.782   0.188  0.00  0.00    -0.333 OA
ENDBRANCH   4  20
TORSDOF 8
