MODEL 1
REMARK VINA RESULT:      -6.0      0.000      0.000
REMARK  8 active torsions:
REMARK  status: ('A' for Active; 'I' for Inactive)
REMARK    1  A    between atoms: C_7  and  C_8 
REMARK    2  A    between atoms: C_8  and  C_9 
REMARK    3  A    between atoms: C_9  and  C_10 
REMARK    4  A    between atoms: C_10  and  C_11 
REMARK    5  A    between atoms: C_11  and  C_12 
REMARK    6  A    between atoms: C_12  and  O_13 
REMARK    7  A    between atoms: O_13  and  C_14 
REMARK    8  A    between atoms: C_17  and  C_20 
ROOT
HETATM    1  C   UNK N   1      25.895  27.547  -3.675  0.00  0.00     0.068 A 
HETATM    2  C   UNK N   1      26.428  26.299  -3.351  0.00  0.00     0.038 A 
HETATM    3  C   UNK N   1      26.301  25.229  -4.237  0.00  0.00     0.018 A 
HETATM    4  C   UNK N   1      25.632  25.397  -5.457  0.00  0.00     0.015 A 
HETATM    5  C   UNK N   1      25.067  26.636  -5.772  0.00  0.00     0.018 A 
HETATM    6  C   UNK N   1      25.193  27.705  -4.884  0.00  0.00     0.038 A 
ENDROOT
BRANCH   1   7
HETATM    7  O   UNK N   1      26.095  28.580  -2.824  0.00  0.00    -0.351 OA
BRANCH   7   8
HETATM    8  C   UNK N   1      27.141  29.470  -2.927  0.00  0.00     0.175 C 
BRANCH   8   9
HETATM    9  C   UNK N   1      26.709  30.736  -3.668  0.00  0.00     0.027 C 
BRANCH   9  10
HETATM   10  C   UNK N   1      27.615  31.000  -4.866  0.00  0.00     0.002 C 
BRANCH  10  11
HETATM   11  C   UNK N   1      28.485  29.807  -5.265  0.00  0.00     0.007 C 
BRANCH  11  12
HETATM   12  C   UNK N   1      28.043  29.134  -6.559  0.00  0.00     0.067 C 
BRANCH  12  13
HETATM   13  C   UNK N   1      28.540  27.728  -6.557  0.00  0.00     0.078 A 
HETATM   14  O   UNK N   1      28.265  26.845  -7.487  0.00  0.00    -0.242 OA
HETATM   15  N   UNK N   1      28.772  25.686  -7.182  0.00  0.00    -0.266 N 
HETATM   16  C   UNK N   1      29.397  25.827  -6.002  0.00  0.00     0.031 A 
ATOM     17  HN  UNK N   1      28.706  24.831  -7.735  1.00  0.00     0.194 HD
HETATM   18  C   UNK N   1      30.076  24.720  -5.278  0.00  0.00     0.070 C 
HETATM   19  C   UNK N   1      29.279  27.126  -5.559  0.00  0.00     0.061 A 
ENDBRANCH  12  13
ENDBRANCH  11  12
ENDBRANCH  10  11
ENDBRANCH   9  10
ENDBRANCH   8   9
ENDBRANCH   7   8
ENDBRANCH   1   7
BRANCH   4  20
HETATM   20  C   UNK N   1      25.558  24.284  -6.414  0.00  0.00     0.148 A 
HETATM   21  N   UNK N   1      25.704  23.071  -6.071  0.00  0.00    -0.364 N 
HETATM   22  C   UNK N   1      25.609  22.217  -7.219  0.00  0.00     0.104 A 
ATOM     23  HN  UNK N   1      25.866  22.750  -5.117  1.00  0.00     0.162 HD
HETATM   24  C   UNK N   1      24.434  21.271  -7.068  0.00  0.00     0.034 C 
HETATM   25  C   UNK N   1      25.361  23.224  -8.364  0.00  0.00     0.202 A 
HETATM   26  O   UNK N   1      25.355  24.447  -7.724  0.00  0.00    -0.333 OA
ENDBRANCH   4  20
TORSDOF 8
ENDMDL
MODEL 2
REMARK VINA RESULT:      -5.7      1.824      2.294
REMARK  8 active torsions:
REMARK  status: ('A' for Active; 'I' for Inactive)
REMARK    1  A    between atoms: C_7  and  C_8 
REMARK    2  A    between atoms: C_8  and  C_9 
REMARK    3  A    between atoms: C_9  and  C_10 
REMARK    4  A    between atoms: C_10  and  C_11 
REMARK    5  A    between atoms: C_11  and  C_12 
REMARK    6  A    between atoms: C_12  and  O_13 
REMARK    7  A    between atoms: O_13  and  C_14 
REMARK    8  A    between atoms: C_17  and  C_20 
ROOT
HETATM    1  C   UNK N   1      26.012  27.512  -3.728  0.00  0.00     0.068 A 
HETATM    2  C   UNK N   1      26.481  26.245  -3.383  0.00  0.00     0.038 A 
HETATM    3  C   UNK N   1      26.320  25.172  -4.259  0.00  0.00     0.018 A 
HETATM    4  C   UNK N   1      25.680  25.357  -5.492  0.00  0.00     0.015 A 
HETATM    5  C   UNK N   1      25.177  26.618  -5.829  0.00  0.00     0.018 A 
HETATM    6  C   UNK N   1      25.338  27.690  -4.950  0.00  0.00     0.038 A 
ENDROOT
BRANCH   1   7
HETATM    7  O   UNK N   1      26.245  28.545  -2.885  0.00  0.00    -0.351 OA
BRANCH   7   8
HETATM    8  C   UNK N   1      26.675  29.789  -3.292  0.00  0.00     0.175 C 
BRANCH   8   9
HETATM    9  C   UNK N   1      27.912  29.673  -4.184  0.00  0.00     0.027 C 
BRANCH   9  10
HETATM   10  C   UNK N   1      29.051  28.980  -3.443  0.00  0.00     0.002 C 
BRANCH  10  11
HETATM   11  C   UNK N   1      29.757  27.895  -4.258  0.00  0.00     0.007 C 
BRANCH  11  12
HETATM   12  C   UNK N   1      30.698  27.025  -3.432  0.00  0.00     0.067 C 
BRANCH  12  13
HETATM   13  C   UNK N   1      30.349  25.594  -3.664  0.00  0.00     0.078 A 
HETATM   14  O   UNK N   1      30.556  24.633  -2.797  0.00  0.00    -0.242 OA
HETATM   15  N   UNK N   1      30.222  23.481  -3.301  0.00  0.00    -0.266 N 
HETATM   16  C   UNK N   1      29.783  23.711  -4.550  0.00  0.00     0.031 A 
ATOM     17  HN  UNK N   1      30.283  22.575  -2.837  1.00  0.00     0.194 HD
HETATM   18  C   UNK N   1      29.342  22.646  -5.489  0.00  0.00     0.070 C 
HETATM   19  C   UNK N   1      29.842  25.058  -4.830  0.00  0.00     0.061 A 
ENDBRANCH  12  13
ENDBRANCH  11  12
ENDBRANCH  10  11
ENDBRANCH   9  10
ENDBRANCH   8   9
ENDBRANCH   7   8
ENDBRANCH   1   7
BRANCH   4  20
HETATM   20  C   UNK N   1      25.569  24.238  -6.439  0.00  0.00     0.148 A 
HETATM   21  N   UNK N   1      25.705  23.026  -6.089  0.00  0.00    -0.364 N 
HETATM   22  C   UNK N   1      25.574  22.165  -7.228  0.00  0.00     0.104 A 
ATOM     23  HN  UNK N   1      25.881  22.710  -5.136  1.00  0.00     0.162 HD
HETATM   24  C   UNK N   1      24.389  21.238  -7.047  0.00  0.00     0.034 C 
HETATM   25  C   UNK N   1      25.317  23.167  -8.376  0.00  0.00     0.202 A 
HETATM   26  O   UNK N   1      25.343  24.394  -7.746  0.00  0.00    -0.333 OA
ENDBRANCH   4  20
TORSDOF 8
ENDMDL
MODEL 3
REMARK VINA RESULT:      -5.6     13.686     15.954
REMARK  8 active torsions:
REMARK  status: ('A' for Active; 'I' for Inactive)
REMARK    1  A    between atoms: C_7  and  C_8 
REMARK    2  A    between atoms: C_8  and  C_9 
REMARK    3  A    between atoms: C_9  and  C_10 
REMARK    4  A    between atoms: C_10  and  C_11 
REMARK    5  A    between atoms: C_11  and  C_12 
REMARK    6  A    between atoms: C_12  and  O_13 
REMARK    7  A    between atoms: O_13  and  C_14 
REMARK    8  A    between atoms: C_17  and  C_20 
ROOT
HETATM    1  C   UNK N   1      29.104  17.816   6.851  0.00  0.00     0.068 A 
HETATM    2  C   UNK N   1      29.990  17.140   6.012  0.00  0.00     0.038 A 
HETATM    3  C   UNK N   1      31.250  16.764   6.477  0.00  0.00     0.018 A 
HETATM    4  C   UNK N   1      31.640  17.068   7.788  0.00  0.00     0.015 A 
HETATM    5  C   UNK N   1      30.770  17.776   8.623  0.00  0.00     0.018 A 
HETATM    6  C   UNK N   1      29.510  18.152   8.156  0.00  0.00     0.038 A 
ENDROOT
BRANCH   1   7
HETATM    7  O   UNK N   1      27.865  18.106   6.391  0.00  0.00    -0.351 OA
BRANCH   7   8
HETATM    8  C   UNK N   1      27.496  19.338   5.898  0.00  0.00     0.175 C 
BRANCH   8   9
HETATM    9  C   UNK N   1      27.495  19.335   4.369  0.00  0.00     0.027 C 
BRANCH   9  10
HETATM   10  C   UNK N   1      26.234  18.669   3.829  0.00  0.00     0.002 C 
BRANCH  10  11
HETATM   11  C   UNK N   1      24.939  19.397   4.194  0.00  0.00     0.007 C 
BRANCH  11  12
HETATM   12  C   UNK N   1      24.571  20.514   3.223  0.00  0.00     0.067 C 
BRANCH  12  13
HETATM   13  C   UNK N   1      23.101  20.466   2.979  0.00  0.00     0.078 A 
HETATM   14  O   UNK N   1      22.374  21.503   2.640  0.00  0.00    -0.242 OA
HETATM   15  N   UNK N   1      21.116  21.177   2.569  0.00  0.00    -0.266 N 
HETATM   16  C   UNK N   1      21.029  19.873   2.879  0.00  0.00     0.031 A 
ATOM     17  HN  UNK N   1      20.342  21.795   2.324  1.00  0.00     0.194 HD
HETATM   18  C   UNK N   1      19.752  19.116   2.956  0.00  0.00     0.070 C 
HETATM   19  C   UNK N   1      22.282  19.369   3.148  0.00  0.00     0.061 A 
ENDBRANCH  12  13
ENDBRANCH  11  12
ENDBRANCH  10  11
ENDBRANCH   9  10
ENDBRANCH   8   9
ENDBRANCH   7   8
ENDBRANCH   1   7
BRANCH   4  20
HETATM   20  C   UNK N   1      32.944  16.613   8.292  0.00  0.00     0.148 A 
HETATM   21  N   UNK N   1      33.433  17.013   9.392  0.00  0.00    -0.364 N 
HETATM   22  C   UNK N   1      34.723  16.423   9.603  0.00  0.00     0.104 A 
ATOM     23  HN  UNK N   1      32.976  17.660  10.034  1.00  0.00     0.162 HD
HETATM   24  C   UNK N   1      34.706  15.567  10.854  0.00  0.00     0.034 C 
HETATM   25  C   UNK N   1      34.901  15.548   8.342  0.00  0.00     0.202 A 
HETATM   26  O   UNK N   1      33.737  15.765   7.632  0.00  0.00    -0.333 OA
ENDBRANCH   4  20
TORSDOF 8
ENDMDL
MODEL 4
REMARK VINA RESULT:      -5.5      3.637      6.085
REMARK  8 active torsions:
REMARK  status: ('A' for Active; 'I' for Inactive)
REMARK    1  A    between atoms: C_7  and  C_8 
REMARK    2  A    between atoms: C_8  and  C_9 
REMARK    3  A    between atoms: C_9  and  C_10 
REMARK    4  A    between atoms: C_10  and  C_11 
REMARK    5  A    between atoms: C_11  and  C_12 
REMARK    6  A    between atoms: C_12  and  O_13 
REMARK    7  A    between atoms: O_13  and  C_14 
REMARK    8  A    between atoms: C_17  and  C_20 
ROOT
HETATM    1  C   UNK N   1      28.258  23.654  -2.962  0.00  0.00     0.068 A 
HETATM    2  C   UNK N   1      28.813  23.687  -4.241  0.00  0.00     0.038 A 
HETATM    3  C   UNK N   1      30.095  23.185  -4.465  0.00  0.00     0.018 A 
HETATM    4  C   UNK N   1      30.838  22.647  -3.405  0.00  0.00     0.015 A 
HETATM    5  C   UNK N   1      30.300  22.642  -2.114  0.00  0.00     0.018 A 
HETATM    6  C   UNK N   1      29.018  23.146  -1.892  0.00  0.00     0.038 A 
ENDROOT
BRANCH   1   7
HETATM    7  O   UNK N   1      26.987  24.087  -2.792  0.00  0.00    -0.351 OA
BRANCH   7   8
HETATM    8  C   UNK N   1      26.283  24.796  -3.741  0.00  0.00     0.175 C 
BRANCH   8   9
HETATM    9  C   UNK N   1      26.409  26.300  -3.502  0.00  0.00     0.027 C 
BRANCH   9  10
HETATM   10  C   UNK N   1      26.246  27.072  -4.807  0.00  0.00     0.002 C 
BRANCH  10  11
HETATM   11  C   UNK N   1      25.192  26.488  -5.750  0.00  0.00     0.007 C 
BRANCH  11  12
HETATM   12  C   UNK N   1      25.721  26.193  -7.150  0.00  0.00     0.067 C 
BRANCH  12  13
HETATM   13  C   UNK N   1      26.040  24.739  -7.241  0.00  0.00     0.078 A 
HETATM   14  O   UNK N   1      25.192  23.778  -6.962  0.00  0.00    -0.242 OA
HETATM   15  N   UNK N   1      25.770  22.616  -7.058  0.00  0.00    -0.266 N 
HETATM   16  C   UNK N   1      27.047  22.839  -7.410  0.00  0.00     0.031 A 
ATOM     17  HN  UNK N   1      25.336  21.708  -6.895  1.00  0.00     0.194 HD
HETATM   18  C   UNK N   1      28.065  21.770  -7.585  0.00  0.00     0.070 C 
HETATM   19  C   UNK N   1      27.270  24.192  -7.544  0.00  0.00     0.061 A 
ENDBRANCH  12  13
ENDBRANCH  11  12
ENDBRANCH  10  11
ENDBRANCH   9  10
ENDBRANCH   8   9
ENDBRANCH   7   8
ENDBRANCH   1   7
BRANCH   4  20
HETATM   20  C   UNK N   1      32.162  22.061  -3.658  0.00  0.00     0.148 A 
HETATM   21  N   UNK N   1      32.622  21.086  -2.990  0.00  0.00    -0.364 N 
HETATM   22  C   UNK N   1      33.941  20.754  -3.443  0.00  0.00     0.104 A 
ATOM     23  HN  UNK N   1      32.125  20.607  -2.239  1.00  0.00     0.162 HD
HETATM   24  C   UNK N   1      33.963  19.339  -3.987  0.00  0.00     0.034 C 
HETATM   25  C   UNK N   1      34.174  21.780  -4.574  0.00  0.00     0.202 A 
HETATM   26  O   UNK N   1      33.005  22.513  -4.591  0.00  0.00    -0.333 OA
ENDBRANCH   4  20
TORSDOF 8
ENDMDL
MODEL 5
REMARK VINA RESULT:      -5.4      3.031      4.800
REMARK  8 active torsions:
REMARK  status: ('A' for Active; 'I' for Inactive)
REMARK    1  A    between atoms: C_7  and  C_8 
REMARK    2  A    between atoms: C_8  and  C_9 
REMARK    3  A    between atoms: C_9  and  C_10 
REMARK    4  A    between atoms: C_10  and  C_11 
REMARK    5  A    between atoms: C_11  and  C_12 
REMARK    6  A    between atoms: C_12  and  O_13 
REMARK    7  A    between atoms: O_13  and  C_14 
REMARK    8  A    between atoms: C_17  and  C_20 
ROOT
HETATM    1  C   UNK N   1      27.160  24.450  -4.534  0.00  0.00     0.068 A 
HETATM    2  C   UNK N   1      27.826  24.200  -3.334  0.00  0.00     0.038 A 
HETATM    3  C   UNK N   1      28.964  23.394  -3.316  0.00  0.00     0.018 A 
HETATM    4  C   UNK N   1      29.445  22.825  -4.503  0.00  0.00     0.015 A 
HETATM    5  C   UNK N   1      28.763  23.044  -5.703  0.00  0.00     0.018 A 
HETATM    6  C   UNK N   1      27.623  23.849  -5.719  0.00  0.00     0.038 A 
ENDROOT
BRANCH   1   7
HETATM    7  O   UNK N   1      26.100  25.291  -4.527  0.00  0.00    -0.351 OA
BRANCH   7   8
HETATM    8  C   UNK N   1      25.322  25.558  -5.633  0.00  0.00     0.175 C 
BRANCH   8   9
HETATM    9  C   UNK N   1      24.925  27.034  -5.676  0.00  0.00     0.027 C 
BRANCH   9  10
HETATM   10  C   UNK N   1      25.421  27.765  -4.433  0.00  0.00     0.002 C 
BRANCH  10  11
HETATM   11  C   UNK N   1      26.483  28.828  -4.716  0.00  0.00     0.007 C 
BRANCH  11  12
HETATM   12  C   UNK N   1      27.292  28.562  -5.981  0.00  0.00     0.067 C 
BRANCH  12  13
HETATM   13  C   UNK N   1      28.515  27.792  -5.610  0.00  0.00     0.078 A 
HETATM   14  O   UNK N   1      29.148  26.976  -6.417  0.00  0.00    -0.242 OA
HETATM   15  N   UNK N   1      30.131  26.390  -5.797  0.00  0.00    -0.266 N 
HETATM   16  C   UNK N   1      30.128  26.847  -4.534  0.00  0.00     0.031 A 
ATOM     17  HN  UNK N   1      30.780  25.711  -6.195  1.00  0.00     0.194 HD
HETATM   18  C   UNK N   1      31.072  26.393  -3.479  0.00  0.00     0.070 C 
HETATM   19  C   UNK N   1      29.107  27.756  -4.364  0.00  0.00     0.061 A 
ENDBRANCH  12  13
ENDBRANCH  11  12
ENDBRANCH  10  11
ENDBRANCH   9  10
ENDBRANCH   8   9
ENDBRANCH   7   8
ENDBRANCH   1   7
BRANCH   4  20
HETATM   20  C   UNK N   1      30.682  22.029  -4.488  0.00  0.00     0.148 A 
HETATM   21  N   UNK N   1      31.772  22.461  -4.004  0.00  0.00    -0.364 N 
HETATM   22  C   UNK N   1      32.805  21.479  -4.156  0.00  0.00     0.104 A 
ATOM     23  HN  UNK N   1      31.896  23.375  -3.569  1.00  0.00     0.162 HD
HETATM   24  C   UNK N   1      33.315  21.044  -2.797  0.00  0.00     0.034 C 
HETATM   25  C   UNK N   1      32.063  20.320  -4.860  0.00  0.00     0.202 A 
HETATM   26  O   UNK N   1      30.776  20.799  -4.999  0.00  0.00    -0.333 OA
ENDBRANCH   4  20
TORSDOF 8
ENDMDL
MODEL 6
REMARK VINA RESULT:      -5.3      1.971      5.966
REMARK  8 active torsions:
REMARK  status: ('A' for Active; 'I' for Inactive)
REMARK    1  A    between atoms: C_7  and  C_8 
REMARK    2  A    between atoms: C_8  and  C_9 
REMARK    3  A    between atoms: C_9  and  C_10 
REMARK    4  A    between atoms: C_10  and  C_11 
REMARK    5  A    between atoms: C_11  and  C_12 
REMARK    6  A    between atoms: C_12  and  O_13 
REMARK    7  A    between atoms: O_13  and  C_14 
REMARK    8  A    between atoms: C_17  and  C_20 
ROOT
HETATM    1  C   UNK N   1      25.578  25.276  -5.361  0.00  0.00     0.068 A 
HETATM    2  C   UNK N   1      25.167  26.513  -5.857  0.00  0.00     0.038 A 
HETATM    3  C   UNK N   1      25.518  27.688  -5.193  0.00  0.00     0.018 A 
HETATM    4  C   UNK N   1      26.281  27.636  -4.019  0.00  0.00     0.015 A 
HETATM    5  C   UNK N   1      26.667  26.397  -3.498  0.00  0.00     0.018 A 
HETATM    6  C   UNK N   1      26.314  25.222  -4.163  0.00  0.00     0.038 A 
ENDROOT
BRANCH   1   7
HETATM    7  O   UNK N   1      25.279  24.160  -6.066  0.00  0.00    -0.351 OA
BRANCH   7   8
HETATM    8  C   UNK N   1      25.882  23.817  -7.256  0.00  0.00     0.175 C 
BRANCH   8   9
HETATM    9  C   UNK N   1      26.695  22.532  -7.106  0.00  0.00     0.027 C 
BRANCH   9  10
HETATM   10  C   UNK N   1      27.988  22.794  -6.342  0.00  0.00     0.002 C 
BRANCH  10  11
HETATM   11  C   UNK N   1      28.751  24.034  -6.813  0.00  0.00     0.007 C 
BRANCH  11  12
HETATM   12  C   UNK N   1      29.724  24.583  -5.775  0.00  0.00     0.067 C 
BRANCH  12  13
HETATM   13  C   UNK N   1      29.620  26.071  -5.767  0.00  0.00     0.078 A 
HETATM   14  O   UNK N   1      30.097  26.840  -4.818  0.00  0.00    -0.242 OA
HETATM   15  N   UNK N   1      29.792  28.085  -5.041  0.00  0.00    -0.266 N 
HETATM   16  C   UNK N   1      29.085  28.119  -6.183  0.00  0.00     0.031 A 
ATOM     17  HN  UNK N   1      30.042  28.884  -4.460  1.00  0.00     0.194 HD
HETATM   18  C   UNK N   1      28.507  29.355  -6.772  0.00  0.00     0.070 C 
HETATM   19  C   UNK N   1      28.950  26.846  -6.691  0.00  0.00     0.061 A 
ENDBRANCH  12  13
ENDBRANCH  11  12
ENDBRANCH  10  11
ENDBRANCH   9  10
ENDBRANCH   8   9
ENDBRANCH   7   8
ENDBRANCH   1   7
BRANCH   4  20
HETATM   20  C   UNK N   1      26.701  28.881  -3.359  0.00  0.00     0.148 A 
HETATM   21  N   UNK N   1      27.451  28.898  -2.336  0.00  0.00    -0.364 N 
HETATM   22  C   UNK N   1      27.664  30.247  -1.901  0.00  0.00     0.104 A 
ATOM     23  HN  UNK N   1      27.846  28.071  -1.888  1.00  0.00     0.162 HD
HETATM   24  C   UNK N   1      29.138  30.594  -1.984  0.00  0.00     0.034 C 
HETATM   25  C   UNK N   1      26.849  31.062  -2.929  0.00  0.00     0.202 A 
HETATM   26  O   UNK N   1      26.315  30.096  -3.757  0.00  0.00    -0.333 OA
ENDBRANCH   4  20
TORSDOF 8
ENDMDL
MODEL 7
REMARK VINA RESULT:      -5.3      3.162      6.164
REMARK  8 active torsions:
REMARK  status: ('A' for Active; 'I' for Inactive)
REMARK    1  A    between atoms: C_7  and  C_8 
REMARK    2  A    between atoms: C_8  and  C_9 
REMARK    3  A    between atoms: C_9  and  C_10 
REMARK    4  A    between atoms: C_10  and  C_11 
REMARK    5  A    between atoms: C_11  and  C_12 
REMARK    6  A    between atoms: C_12  and  O_13 
REMARK    7  A    between atoms: O_13  and  C_14 
REMARK    8  A    between atoms: C_17  and  C_20 
ROOT
HETATM    1  C   UNK N   1      30.111  23.276  -2.683  0.00  0.00     0.068 A 
HETATM    2  C   UNK N   1      30.450  24.391  -3.451  0.00  0.00     0.038 A 
HETATM    3  C   UNK N   1      29.457  25.249  -3.922  0.00  0.00     0.018 A 
HETATM    4  C   UNK N   1      28.109  24.996  -3.632  0.00  0.00     0.015 A 
HETATM    5  C   UNK N   1      27.760  23.862  -2.892  0.00  0.00     0.018 A 
HETATM    6  C   UNK N   1      28.755  23.004  -2.424  0.00  0.00     0.038 A 
ENDROOT
BRANCH   1   7
HETATM    7  O   UNK N   1      31.103  22.502  -2.186  0.00  0.00    -0.351 OA
BRANCH   7   8
HETATM    8  C   UNK N   1      31.974  21.772  -2.965  0.00  0.00     0.175 C 
BRANCH   8   9
HETATM    9  C   UNK N   1      31.225  20.709  -3.769  0.00  0.00     0.027 C 
BRANCH   9  10
HETATM   10  C   UNK N   1      31.611  20.773  -5.243  0.00  0.00     0.002 C 
BRANCH  10  11
HETATM   11  C   UNK N   1      30.826  21.808  -6.050  0.00  0.00     0.007 C 
BRANCH  11  12
HETATM   12  C   UNK N   1      29.313  21.647  -5.944  0.00  0.00     0.067 C 
BRANCH  12  13
HETATM   13  C   UNK N   1      28.663  22.807  -6.619  0.00  0.00     0.078 A 
HETATM   14  O   UNK N   1      27.366  22.959  -6.743  0.00  0.00    -0.242 OA
HETATM   15  N   UNK N   1      27.094  24.022  -7.441  0.00  0.00    -0.266 N 
HETATM   16  C   UNK N   1      28.268  24.579  -7.784  0.00  0.00     0.031 A 
ATOM     17  HN  UNK N   1      26.166  24.368  -7.682  1.00  0.00     0.194 HD
HETATM   18  C   UNK N   1      28.401  25.796  -8.626  0.00  0.00     0.070 C 
HETATM   19  C   UNK N   1      29.309  23.834  -7.276  0.00  0.00     0.061 A 
ENDBRANCH  12  13
ENDBRANCH  11  12
ENDBRANCH  10  11
ENDBRANCH   9  10
ENDBRANCH   8   9
ENDBRANCH   7   8
ENDBRANCH   1   7
BRANCH   4  20
HETATM   20  C   UNK N   1      27.072  25.939  -4.076  0.00  0.00     0.148 A 
HETATM   21  N   UNK N   1      26.556  26.806  -3.308  0.00  0.00    -0.364 N 
HETATM   22  C   UNK N   1      25.558  27.558  -4.010  0.00  0.00     0.104 A 
ATOM     23  HN  UNK N   1      26.814  26.947  -2.331  1.00  0.00     0.162 HD
HETATM   24  C   UNK N   1      25.949  29.022  -4.061  0.00  0.00     0.034 C 
HETATM   25  C   UNK N   1      25.596  26.929  -5.420  0.00  0.00     0.202 A 
HETATM   26  O   UNK N   1      26.566  25.953  -5.312  0.00  0.00    -0.333 OA
ENDBRANCH   4  20
TORSDOF 8
ENDMDL
MODEL 8
REMARK VINA RESULT:      -5.3     22.422     24.619
REMARK  8 active torsions:
REMARK  status: ('A' for Active; 'I' for Inactive)
REMARK    1  A    between atoms: C_7  and  C_8 
REMARK    2  A    between atoms: C_8  and  C_9 
REMARK    3  A    between atoms: C_9  and  C_10 
REMARK    4  A    between atoms: C_10  and  C_11 
REMARK    5  A    between atoms: C_11  and  C_12 
REMARK    6  A    between atoms: C_12  and  O_13 
REMARK    7  A    between atoms: O_13  and  C_14 
REMARK    8  A    between atoms: C_17  and  C_20 
ROOT
HETATM    1  C   UNK N   1      36.311  13.264  11.777  0.00  0.00     0.068 A 
HETATM    2  C   UNK N   1      35.221  14.066  12.113  0.00  0.00     0.038 A 
HETATM    3  C   UNK N   1      34.822  15.101  11.267  0.00  0.00     0.018 A 
HETATM    4  C   UNK N   1      35.517  15.347  10.075  0.00  0.00     0.015 A 
HETATM    5  C   UNK N   1      36.632  14.568   9.750  0.00  0.00     0.018 A 
HETATM    6  C   UNK N   1      37.030  13.535  10.598  0.00  0.00     0.038 A 
ENDROOT
BRANCH   1   7
HETATM    7  O   UNK N   1      36.630  12.227  12.586  0.00  0.00    -0.351 OA
BRANCH   7   8
HETATM    8  C   UNK N   1      36.550  10.904  12.208  0.00  0.00     0.175 C 
BRANCH   8   9
HETATM    9  C   UNK N   1      35.792  10.084  13.252  0.00  0.00     0.027 C 
BRANCH   9  10
HETATM   10  C   UNK N   1      34.315  10.468  13.274  0.00  0.00     0.002 C 
BRANCH  10  11
HETATM   11  C   UNK N   1      33.804  10.906  14.647  0.00  0.00     0.007 C 
BRANCH  11  12
HETATM   12  C   UNK N   1      34.522  10.230  15.811  0.00  0.00     0.067 C 
BRANCH  12  13
HETATM   13  C   UNK N   1      34.870  11.269  16.822  0.00  0.00     0.078 A 
HETATM   14  O   UNK N   1      35.019  11.033  18.104  0.00  0.00    -0.242 OA
HETATM   15  N   UNK N   1      35.245  12.139  18.750  0.00  0.00    -0.266 N 
HETATM   16  C   UNK N   1      35.237  13.133  17.845  0.00  0.00     0.031 A 
ATOM     17  HN  UNK N   1      35.398  12.235  19.754  1.00  0.00     0.194 HD
HETATM   18  C   UNK N   1      35.416  14.570  18.181  0.00  0.00     0.070 C 
HETATM   19  C   UNK N   1      35.002  12.623  16.588  0.00  0.00     0.061 A 
ENDBRANCH  12  13
ENDBRANCH  11  12
ENDBRANCH  10  11
ENDBRANCH   9  10
ENDBRANCH   8   9
ENDBRANCH   7   8
ENDBRANCH   1   7
BRANCH   4  20
HETATM   20  C   UNK N   1      35.053  16.397   9.157  0.00  0.00     0.148 A 
HETATM   21  N   UNK N   1      34.597  16.147   8.000  0.00  0.00    -0.364 N 
HETATM   22  C   UNK N   1      34.253  17.366   7.330  0.00  0.00     0.104 A 
ATOM     23  HN  UNK N   1      34.490  15.213   7.605  1.00  0.00     0.162 HD
HETATM   24  C   UNK N   1      32.769  17.391   7.022  0.00  0.00     0.034 C 
HETATM   25  C   UNK N   1      34.614  18.440   8.381  0.00  0.00     0.202 A 
HETATM   26  O   UNK N   1      35.091  17.701   9.445  0.00  0.00    -0.333 OA
ENDBRANCH   4  20
TORSDOF 8
ENDMDL
MODEL 9
REMARK VINA RESULT:      -5.2     13.657     15.593
REMARK  8 active torsions:
REMARK  status: ('A' for Active; 'I' for Inactive)
REMARK    1  A    between atoms: C_7  and  C_8 
REMARK    2  A    between atoms: C_8  and  C_9 
REMARK    3  A    between atoms: C_9  and  C_10 
REMARK    4  A    between atoms: C_10  and  C_11 
REMARK    5  A    between atoms: C_11  and  C_12 
REMARK    6  A    between atoms: C_12  and  O_13 
REMARK    7  A    between atoms: O_13  and  C_14 
REMARK    8  A    between atoms: C_17  and  C_20 
ROOT
HETATM    1  C   UNK N   1      30.479  16.915   8.458  0.00  0.00     0.068 A 
HETATM    2  C   UNK N   1      30.279  16.666   7.101  0.00  0.00     0.038 A 
HETATM    3  C   UNK N   1      29.409  17.466   6.359  0.00  0.00     0.018 A 
HETATM    4  C   UNK N   1      28.725  18.523   6.974  0.00  0.00     0.015 A 
HETATM    5  C   UNK N   1      28.895  18.757   8.342  0.00  0.00     0.018 A 
HETATM    6  C   UNK N   1      29.765  17.955   9.082  0.00  0.00     0.038 A 
ENDROOT
BRANCH   1   7
HETATM    7  O   UNK N   1      31.381  16.164   9.132  0.00  0.00    -0.351 OA
BRANCH   7   8
HETATM    8  C   UNK N   1      32.732  16.162   8.867  0.00  0.00     0.175 C 
BRANCH   8   9
HETATM    9  C   UNK N   1      33.167  17.487   8.242  0.00  0.00     0.027 C 
BRANCH   9  10
HETATM   10  C   UNK N   1      33.916  17.250   6.934  0.00  0.00     0.002 C 
BRANCH  10  11
HETATM   11  C   UNK N   1      33.809  15.819   6.404  0.00  0.00     0.007 C 
BRANCH  11  12
HETATM   12  C   UNK N   1      34.136  15.692   4.920  0.00  0.00     0.067 C 
BRANCH  12  13
HETATM   13  C   UNK N   1      32.962  16.164   4.132  0.00  0.00     0.078 A 
HETATM   14  O   UNK N   1      32.862  17.356   3.595  0.00  0.00    -0.242 OA
HETATM   15  N   UNK N   1      31.698  17.510   3.034  0.00  0.00    -0.266 N 
HETATM   16  C   UNK N   1      31.017  16.367   3.221  0.00  0.00     0.031 A 
ATOM     17  HN  UNK N   1      31.365  18.341   2.546  1.00  0.00     0.194 HD
HETATM   18  C   UNK N   1      29.619  16.144   2.767  0.00  0.00     0.070 C 
HETATM   19  C   UNK N   1      31.789  15.467   3.921  0.00  0.00     0.061 A 
ENDBRANCH  12  13
ENDBRANCH  11  12
ENDBRANCH  10  11
ENDBRANCH   9  10
ENDBRANCH   8   9
ENDBRANCH   7   8
ENDBRANCH   1   7
BRANCH   4  20
HETATM   20  C   UNK N   1      27.860  19.402   6.174  0.00  0.00     0.148 A 
HETATM   21  N   UNK N   1      27.806  19.348   4.908  0.00  0.00    -0.364 N 
HETATM   22  C   UNK N   1      26.901  20.340   4.407  0.00  0.00     0.104 A 
ATOM     23  HN  UNK N   1      28.331  18.692   4.329  1.00  0.00     0.162 HD
HETATM   24  C   UNK N   1      25.753  19.676   3.673  0.00  0.00     0.034 C 
HETATM   25  C   UNK N   1      26.405  21.023   5.702  0.00  0.00     0.202 A 
HETATM   26  O   UNK N   1      27.075  20.346   6.701  0.00  0.00    -0.333 OA
ENDBRANCH   4  20
TORSDOF 8
ENDMDL
