REMARK  11 active torsions:
REMARK  status: ('A' for Active; 'I' for Inactive)
REMARK    1  A    between atoms: C_7  and  C_8 
REMARK    2  A    between atoms: C_8  and  C_9 
REMARK    3  A    between atoms: C_9  and  C_10 
REMARK    4  A    between atoms: C_10  and  C_11 
REMARK    5  A    between atoms: C_11  and  C_12 
REMARK    6  A    between atoms: C_12  and  C_13 
REMARK    7  A    between atoms: C_13  and  C_14 
REMARK    8  A    between atoms: C_14  and  O_15 
REMARK    9  A    between atoms: O_15  and  C_16 
REMARK   10  A    between atoms: C_19  and  C_22 
REMARK   11  A    between atoms: C_25  and  C_26 
ROOT
HETATM    1  O   UNK N   1       0.643   2.352  -0.229  0.00  0.00    -0.351 OA
ENDROOT
BRANCH   1   2
HETATM    2  C   UNK N   1      -0.595   2.236  -0.814  0.00  0.00     0.175 C 
BRANCH   2   3
HETATM    3  C   UNK N   1      -1.679   2.280   0.248  0.00  0.00     0.027 C 
BRANCH   3   4
HETATM    4  C   UNK N   1      -1.947   0.880   0.770  0.00  0.00     0.002 C 
BRANCH   4   5
HETATM    5  C   UNK N   1      -2.496   0.026  -0.357  0.00  0.00     0.000 C 
BRANCH   5   6
HETATM    6  C   UNK N   1      -2.901  -1.331   0.161  0.00  0.00     0.000 C 
BRANCH   6   7
HETATM    7  C   UNK N   1      -4.234  -1.705  -0.453  0.00  0.00     0.007 C 
BRANCH   7   8
HETATM    8  C   UNK N   1      -5.356  -1.417   0.533  0.00  0.00     0.067 C 
BRANCH   8   9
HETATM    9  C   UNK N   1      -6.060  -0.133   0.240  0.00  0.00     0.078 A 
HETATM   10  O   UNK N   1      -7.334  -0.052  -0.067  0.00  0.00    -0.242 OA
HETATM   11  N   UNK N   1      -7.694   1.184  -0.231  0.00  0.00    -0.266 N 
HETATM   12  C   UNK N   1      -6.605   1.945  -0.017  0.00  0.00     0.031 A 
ATOM     13  HN  UNK N   1      -8.627   1.516  -0.476  1.00  0.00     0.194 HD
HETATM   14  C   UNK N   1      -6.599   3.429  -0.095  0.00  0.00     0.070 C 
HETATM   15  C   UNK N   1      -5.526   1.142   0.293  0.00  0.00     0.061 A 
ENDBRANCH   8   9
ENDBRANCH   7   8
ENDBRANCH   6   7
ENDBRANCH   5   6
ENDBRANCH   4   5
ENDBRANCH   3   4
ENDBRANCH   2   3
ENDBRANCH   1   2
BRANCH   1  16
HETATM   16  C   UNK N   1       1.544   1.344  -0.164  0.00  0.00     0.068 A 
HETATM   17  C   UNK N   1       2.841   1.645   0.248  0.00  0.00     0.038 A 
HETATM   18  C   UNK N   1       3.808   0.647   0.315  0.00  0.00     0.018 A 
HETATM   19  C   UNK N   1       3.491  -0.676  -0.015  0.00  0.00     0.015 A 
HETATM   20  C   UNK N   1       2.186  -0.994  -0.417  0.00  0.00     0.018 A 
HETATM   21  C   UNK N   1       1.213   0.014  -0.496  0.00  0.00     0.038 A 
BRANCH  19  22
HETATM   22  C   UNK N   1       4.548  -1.701   0.048  0.00  0.00     0.148 A 
HETATM   23  N   UNK N   1       5.745  -1.419   0.360  0.00  0.00    -0.363 N 
HETATM   24  C   UNK N   1       6.565  -2.594   0.315  0.00  0.00     0.107 A 
ATOM     25  HN  UNK N   1       6.077  -0.487   0.608  1.00  0.00     0.162 HD
HETATM   26  C   UNK N   1       5.551  -3.687  -0.095  0.00  0.00     0.202 A 
HETATM   27  O   UNK N   1       4.361  -2.995  -0.230  0.00  0.00    -0.333 OA
BRANCH  24  28
HETATM   28  C   UNK N   1       7.648  -2.442  -0.747  0.00  0.00     0.023 C 
HETATM   29  C   UNK N   1       8.577  -1.283  -0.424  0.00  0.00     0.007 C 
ENDBRANCH  24  28
ENDBRANCH  19  22
ENDBRANCH   1  16
TORSDOF 11
