MODEL 1
REMARK VINA RESULT:      -5.7      0.000      0.000
REMARK  11 active torsions:
REMARK  status: ('A' for Active; 'I' for Inactive)
REMARK    1  A    between atoms: C_7  and  C_8 
REMARK    2  A    between atoms: C_8  and  C_9 
REMARK    3  A    between atoms: C_9  and  C_10 
REMARK    4  A    between atoms: C_10  and  C_11 
REMARK    5  A    between atoms: C_11  and  C_12 
REMARK    6  A    between atoms: C_12  and  C_13 
REMARK    7  A    between atoms: C_13  and  C_14 
REMARK    8  A    between atoms: C_14  and  O_15 
REMARK    9  A    between atoms: O_15  and  C_16 
REMARK   10  A    between atoms: C_19  and  C_22 
REMARK   11  A    between atoms: C_25  and  C_26 
ROOT
HETATM    1  O   UNK N   1      25.910  28.459  -3.070  0.00  0.00    -0.351 OA
ENDROOT
BRANCH   1   2
HETATM    2  C   UNK N   1      26.441  29.673  -3.432  0.00  0.00     0.175 C 
BRANCH   2   3
HETATM    3  C   UNK N   1      27.834  29.482  -4.005  0.00  0.00     0.027 C 
BRANCH   3   4
HETATM    4  C   UNK N   1      27.943  30.189  -5.343  0.00  0.00     0.002 C 
BRANCH   4   5
HETATM    5  C   UNK N   1      27.969  29.154  -6.452  0.00  0.00     0.000 C 
BRANCH   5   6
HETATM    6  C   UNK N   1      29.281  28.412  -6.448  0.00  0.00     0.000 C 
BRANCH   6   7
HETATM    7  C   UNK N   1      28.995  26.925  -6.430  0.00  0.00     0.007 C 
BRANCH   7   8
HETATM    8  C   UNK N   1      30.251  26.162  -6.038  0.00  0.00     0.067 C 
BRANCH   8   9
HETATM    9  C   UNK N   1      29.958  24.991  -5.158  0.00  0.00     0.078 A 
HETATM   10  O   UNK N   1      29.404  23.879  -5.583  0.00  0.00    -0.242 OA
HETATM   11  N   UNK N   1      29.303  23.014  -4.621  0.00  0.00    -0.266 N 
HETATM   12  C   UNK N   1      29.819  23.587  -3.518  0.00  0.00     0.031 A 
ATOM     13  HN  UNK N   1      28.907  22.076  -4.688  1.00  0.00     0.194 HD
HETATM   14  C   UNK N   1      29.904  22.916  -2.195  0.00  0.00     0.070 C 
HETATM   15  C   UNK N   1      30.258  24.861  -3.814  0.00  0.00     0.061 A 
ENDBRANCH   8   9
ENDBRANCH   7   8
ENDBRANCH   6   7
ENDBRANCH   5   6
ENDBRANCH   4   5
ENDBRANCH   3   4
ENDBRANCH   2   3
ENDBRANCH   1   2
BRANCH   1  16
HETATM   16  C   UNK N   1      25.867  27.380  -3.886  0.00  0.00     0.068 A 
HETATM   17  C   UNK N   1      26.457  26.196  -3.446  0.00  0.00     0.038 A 
HETATM   18  C   UNK N   1      26.455  25.065  -4.256  0.00  0.00     0.018 A 
HETATM   19  C   UNK N   1      25.848  25.092  -5.517  0.00  0.00     0.015 A 
HETATM   20  C   UNK N   1      25.238  26.272  -5.965  0.00  0.00     0.018 A 
HETATM   21  C   UNK N   1      25.250  27.417  -5.154  0.00  0.00     0.038 A 
BRANCH  19  22
HETATM   22  C   UNK N   1      25.885  23.879  -6.354  0.00  0.00     0.148 A 
HETATM   23  N   UNK N   1      26.743  23.719  -7.274  0.00  0.00    -0.363 N 
HETATM   24  C   UNK N   1      26.532  22.470  -7.945  0.00  0.00     0.107 A 
ATOM     25  HN  UNK N   1      27.480  24.386  -7.504  1.00  0.00     0.162 HD
HETATM   26  C   UNK N   1      25.319  21.889  -7.183  0.00  0.00     0.202 A 
HETATM   27  O   UNK N   1      25.026  22.861  -6.243  0.00  0.00    -0.333 OA
BRANCH  24  28
HETATM   28  C   UNK N   1      26.182  22.709  -9.409  0.00  0.00     0.023 C 
HETATM   29  C   UNK N   1      26.168  24.194  -9.736  0.00  0.00     0.007 C 
ENDBRANCH  24  28
ENDBRANCH  19  22
ENDBRANCH   1  16
TORSDOF 11
ENDMDL
MODEL 2
REMARK VINA RESULT:      -5.7     10.990     13.598
REMARK  11 active torsions:
REMARK  status: ('A' for Active; 'I' for Inactive)
REMARK    1  A    between atoms: C_7  and  C_8 
REMARK    2  A    between atoms: C_8  and  C_9 
REMARK    3  A    between atoms: C_9  and  C_10 
REMARK    4  A    between atoms: C_10  and  C_11 
REMARK    5  A    between atoms: C_11  and  C_12 
REMARK    6  A    between atoms: C_12  and  C_13 
REMARK    7  A    between atoms: C_13  and  C_14 
REMARK    8  A    between atoms: C_14  and  O_15 
REMARK    9  A    between atoms: O_15  and  C_16 
REMARK   10  A    between atoms: C_19  and  C_22 
REMARK   11  A    between atoms: C_25  and  C_26 
ROOT
HETATM    1  O   UNK N   1      27.717  18.558   4.616  0.00  0.00    -0.351 OA
ENDROOT
BRANCH   1   2
HETATM    2  C   UNK N   1      28.157  18.584   5.918  0.00  0.00     0.175 C 
BRANCH   2   3
HETATM    3  C   UNK N   1      28.111  17.188   6.512  0.00  0.00     0.027 C 
BRANCH   3   4
HETATM    4  C   UNK N   1      28.512  17.236   7.975  0.00  0.00     0.002 C 
BRANCH   4   5
HETATM    5  C   UNK N   1      29.027  18.624   8.303  0.00  0.00     0.000 C 
BRANCH   5   6
HETATM    6  C   UNK N   1      30.347  18.537   9.028  0.00  0.00     0.000 C 
BRANCH   6   7
HETATM    7  C   UNK N   1      30.926  17.154   8.815  0.00  0.00     0.007 C 
BRANCH   7   8
HETATM    8  C   UNK N   1      32.384  17.264   8.395  0.00  0.00     0.067 C 
BRANCH   8   9
HETATM    9  C   UNK N   1      32.548  17.362   6.914  0.00  0.00     0.078 A 
HETATM   10  O   UNK N   1      33.626  17.828   6.327  0.00  0.00    -0.242 OA
HETATM   11  N   UNK N   1      33.517  17.761   5.036  0.00  0.00    -0.266 N 
HETATM   12  C   UNK N   1      32.313  17.223   4.767  0.00  0.00     0.031 A 
ATOM     13  HN  UNK N   1      34.213  18.061   4.353  1.00  0.00     0.194 HD
HETATM   14  C   UNK N   1      31.806  16.963   3.395  0.00  0.00     0.070 C 
HETATM   15  C   UNK N   1      31.651  16.945   5.946  0.00  0.00     0.061 A 
ENDBRANCH   8   9
ENDBRANCH   7   8
ENDBRANCH   6   7
ENDBRANCH   5   6
ENDBRANCH   4   5
ENDBRANCH   3   4
ENDBRANCH   2   3
ENDBRANCH   1   2
BRANCH   1  16
HETATM   16  C   UNK N   1      26.477  18.939   4.231  0.00  0.00     0.068 A 
HETATM   17  C   UNK N   1      25.391  18.174   4.654  0.00  0.00     0.038 A 
HETATM   18  C   UNK N   1      24.098  18.514   4.271  0.00  0.00     0.018 A 
HETATM   19  C   UNK N   1      23.865  19.637   3.467  0.00  0.00     0.015 A 
HETATM   20  C   UNK N   1      24.948  20.423   3.047  0.00  0.00     0.018 A 
HETATM   21  C   UNK N   1      26.253  20.073   3.424  0.00  0.00     0.038 A 
BRANCH  19  22
HETATM   22  C   UNK N   1      22.483  19.953   3.065  0.00  0.00     0.148 A 
HETATM   23  N   UNK N   1      21.478  19.558   3.731  0.00  0.00    -0.363 N 
HETATM   24  C   UNK N   1      20.262  19.980   3.101  0.00  0.00     0.107 A 
ATOM     25  HN  UNK N   1      21.529  19.015   4.593  1.00  0.00     0.162 HD
HETATM   26  C   UNK N   1      20.782  20.758   1.870  0.00  0.00     0.202 A 
HETATM   27  O   UNK N   1      22.157  20.653   1.974  0.00  0.00    -0.333 OA
BRANCH  24  28
HETATM   28  C   UNK N   1      19.445  18.769   2.664  0.00  0.00     0.023 C 
HETATM   29  C   UNK N   1      20.214  17.477   2.887  0.00  0.00     0.007 C 
ENDBRANCH  24  28
ENDBRANCH  19  22
ENDBRANCH   1  16
TORSDOF 11
ENDMDL
MODEL 3
REMARK VINA RESULT:      -5.5     11.003     14.607
REMARK  11 active torsions:
REMARK  status: ('A' for Active; 'I' for Inactive)
REMARK    1  A    between atoms: C_7  and  C_8 
REMARK    2  A    between atoms: C_8  and  C_9 
REMARK    3  A    between atoms: C_9  and  C_10 
REMARK    4  A    between atoms: C_10  and  C_11 
REMARK    5  A    between atoms: C_11  and  C_12 
REMARK    6  A    between atoms: C_12  and  C_13 
REMARK    7  A    between atoms: C_13  and  C_14 
REMARK    8  A    between atoms: C_14  and  O_15 
REMARK    9  A    between atoms: O_15  and  C_16 
REMARK   10  A    between atoms: C_19  and  C_22 
REMARK   11  A    between atoms: C_25  and  C_26 
ROOT
HETATM    1  O   UNK N   1      34.325  17.411   6.050  0.00  0.00    -0.351 OA
ENDROOT
BRANCH   1   2
HETATM    2  C   UNK N   1      34.339  17.334   7.422  0.00  0.00     0.175 C 
BRANCH   2   3
HETATM    3  C   UNK N   1      33.277  18.248   8.006  0.00  0.00     0.027 C 
BRANCH   3   4
HETATM    4  C   UNK N   1      32.227  17.423   8.729  0.00  0.00     0.002 C 
BRANCH   4   5
HETATM    5  C   UNK N   1      30.852  17.977   8.407  0.00  0.00     0.000 C 
BRANCH   5   6
HETATM    6  C   UNK N   1      30.057  16.976   7.607  0.00  0.00     0.000 C 
BRANCH   6   7
HETATM    7  C   UNK N   1      29.719  17.590   6.264  0.00  0.00     0.007 C 
BRANCH   7   8
HETATM    8  C   UNK N   1      28.277  17.272   5.898  0.00  0.00     0.067 C 
BRANCH   8   9
HETATM    9  C   UNK N   1      27.559  18.449   5.324  0.00  0.00     0.078 A 
HETATM   10  O   UNK N   1      27.340  19.563   5.983  0.00  0.00    -0.242 OA
HETATM   11  N   UNK N   1      26.734  20.433   5.234  0.00  0.00    -0.266 N 
HETATM   12  C   UNK N   1      26.553  19.860   4.030  0.00  0.00     0.031 A 
ATOM     13  HN  UNK N   1      26.449  21.373   5.507  1.00  0.00     0.194 HD
HETATM   14  C   UNK N   1      25.901  20.536   2.877  0.00  0.00     0.070 C 
HETATM   15  C   UNK N   1      27.071  18.581   4.037  0.00  0.00     0.061 A 
ENDBRANCH   8   9
ENDBRANCH   7   8
ENDBRANCH   6   7
ENDBRANCH   5   6
ENDBRANCH   4   5
ENDBRANCH   3   4
ENDBRANCH   2   3
ENDBRANCH   1   2
BRANCH   1  16
HETATM   16  C   UNK N   1      33.352  16.878   5.274  0.00  0.00     0.068 A 
HETATM   17  C   UNK N   1      32.899  15.595   5.575  0.00  0.00     0.038 A 
HETATM   18  C   UNK N   1      31.913  14.996   4.798  0.00  0.00     0.018 A 
HETATM   19  C   UNK N   1      31.350  15.677   3.712  0.00  0.00     0.015 A 
HETATM   20  C   UNK N   1      31.787  16.974   3.408  0.00  0.00     0.018 A 
HETATM   21  C   UNK N   1      32.790  17.574   4.184  0.00  0.00     0.038 A 
BRANCH  19  22
HETATM   22  C   UNK N   1      30.322  15.001   2.900  0.00  0.00     0.148 A 
HETATM   23  N   UNK N   1      29.275  15.597   2.503  0.00  0.00    -0.363 N 
HETATM   24  C   UNK N   1      28.439  14.700   1.760  0.00  0.00     0.107 A 
ATOM     25  HN  UNK N   1      29.058  16.576   2.686  1.00  0.00     0.162 HD
HETATM   26  C   UNK N   1      29.257  13.388   1.789  0.00  0.00     0.202 A 
HETATM   27  O   UNK N   1      30.380  13.719   2.526  0.00  0.00    -0.333 OA
BRANCH  24  28
HETATM   28  C   UNK N   1      27.102  14.514   2.469  0.00  0.00     0.023 C 
HETATM   29  C   UNK N   1      26.077  15.527   1.986  0.00  0.00     0.007 C 
ENDBRANCH  24  28
ENDBRANCH  19  22
ENDBRANCH   1  16
TORSDOF 11
ENDMDL
MODEL 4
REMARK VINA RESULT:      -5.5      1.441      2.060
REMARK  11 active torsions:
REMARK  status: ('A' for Active; 'I' for Inactive)
REMARK    1  A    between atoms: C_7  and  C_8 
REMARK    2  A    between atoms: C_8  and  C_9 
REMARK    3  A    between atoms: C_9  and  C_10 
REMARK    4  A    between atoms: C_10  and  C_11 
REMARK    5  A    between atoms: C_11  and  C_12 
REMARK    6  A    between atoms: C_12  and  C_13 
REMARK    7  A    between atoms: C_13  and  C_14 
REMARK    8  A    between atoms: C_14  and  O_15 
REMARK    9  A    between atoms: O_15  and  C_16 
REMARK   10  A    between atoms: C_19  and  C_22 
REMARK   11  A    between atoms: C_25  and  C_26 
ROOT
HETATM    1  O   UNK N   1      25.965  28.911  -3.182  0.00  0.00    -0.351 OA
ENDROOT
BRANCH   1   2
HETATM    2  C   UNK N   1      26.798  29.999  -3.285  0.00  0.00     0.175 C 
BRANCH   2   3
HETATM    3  C   UNK N   1      27.796  30.002  -2.141  0.00  0.00     0.027 C 
BRANCH   3   4
HETATM    4  C   UNK N   1      29.077  29.310  -2.571  0.00  0.00     0.002 C 
BRANCH   4   5
HETATM    5  C   UNK N   1      29.273  29.511  -4.062  0.00  0.00     0.000 C 
BRANCH   5   6
HETATM    6  C   UNK N   1      29.741  28.231  -4.708  0.00  0.00     0.000 C 
BRANCH   6   7
HETATM    7  C   UNK N   1      29.835  27.158  -3.643  0.00  0.00     0.007 C 
BRANCH   7   8
HETATM    8  C   UNK N   1      31.086  26.320  -3.862  0.00  0.00     0.067 C 
BRANCH   8   9
HETATM    9  C   UNK N   1      30.772  24.893  -4.169  0.00  0.00     0.078 A 
HETATM   10  O   UNK N   1      30.500  24.447  -5.374  0.00  0.00    -0.242 OA
HETATM   11  N   UNK N   1      30.307  23.164  -5.361  0.00  0.00    -0.266 N 
HETATM   12  C   UNK N   1      30.464  22.753  -4.089  0.00  0.00     0.031 A 
ATOM     13  HN  UNK N   1      30.079  22.577  -6.164  1.00  0.00     0.194 HD
HETATM   14  C   UNK N   1      30.338  21.338  -3.650  0.00  0.00     0.070 C 
HETATM   15  C   UNK N   1      30.768  23.831  -3.282  0.00  0.00     0.061 A 
ENDBRANCH   8   9
ENDBRANCH   7   8
ENDBRANCH   6   7
ENDBRANCH   5   6
ENDBRANCH   4   5
ENDBRANCH   3   4
ENDBRANCH   2   3
ENDBRANCH   1   2
BRANCH   1  16
HETATM   16  C   UNK N   1      26.096  27.787  -3.924  0.00  0.00     0.068 A 
HETATM   17  C   UNK N   1      25.986  27.896  -5.310  0.00  0.00     0.038 A 
HETATM   18  C   UNK N   1      26.097  26.767  -6.116  0.00  0.00     0.018 A 
HETATM   19  C   UNK N   1      26.335  25.508  -5.551  0.00  0.00     0.015 A 
HETATM   20  C   UNK N   1      26.462  25.388  -4.160  0.00  0.00     0.018 A 
HETATM   21  C   UNK N   1      26.339  26.524  -3.345  0.00  0.00     0.038 A 
BRANCH  19  22
HETATM   22  C   UNK N   1      26.424  24.334  -6.437  0.00  0.00     0.148 A 
HETATM   23  N   UNK N   1      25.468  23.984  -7.194  0.00  0.00    -0.363 N 
HETATM   24  C   UNK N   1      25.812  22.797  -7.921  0.00  0.00     0.107 A 
ATOM     25  HN  UNK N   1      24.580  24.479  -7.275  1.00  0.00     0.162 HD
HETATM   26  C   UNK N   1      27.247  22.511  -7.421  0.00  0.00     0.202 A 
HETATM   27  O   UNK N   1      27.487  23.526  -6.513  0.00  0.00    -0.333 OA
BRANCH  24  28
HETATM   28  C   UNK N   1      24.875  21.656  -7.543  0.00  0.00     0.023 C 
HETATM   29  C   UNK N   1      25.454  20.311  -7.950  0.00  0.00     0.007 C 
ENDBRANCH  24  28
ENDBRANCH  19  22
ENDBRANCH   1  16
TORSDOF 11
ENDMDL
MODEL 5
REMARK VINA RESULT:      -5.5      1.861      5.233
REMARK  11 active torsions:
REMARK  status: ('A' for Active; 'I' for Inactive)
REMARK    1  A    between atoms: C_7  and  C_8 
REMARK    2  A    between atoms: C_8  and  C_9 
REMARK    3  A    between atoms: C_9  and  C_10 
REMARK    4  A    between atoms: C_10  and  C_11 
REMARK    5  A    between atoms: C_11  and  C_12 
REMARK    6  A    between atoms: C_12  and  C_13 
REMARK    7  A    between atoms: C_13  and  C_14 
REMARK    8  A    between atoms: C_14  and  O_15 
REMARK    9  A    between atoms: O_15  and  C_16 
REMARK   10  A    between atoms: C_19  and  C_22 
REMARK   11  A    between atoms: C_25  and  C_26 
ROOT
HETATM    1  O   UNK N   1      29.449  29.484  -5.448  0.00  0.00    -0.351 OA
ENDROOT
BRANCH   1   2
HETATM    2  C   UNK N   1      28.191  29.846  -5.863  0.00  0.00     0.175 C 
BRANCH   2   3
HETATM    3  C   UNK N   1      27.399  30.407  -4.695  0.00  0.00     0.027 C 
BRANCH   3   4
HETATM    4  C   UNK N   1      26.352  29.401  -4.251  0.00  0.00     0.002 C 
BRANCH   4   5
HETATM    5  C   UNK N   1      26.848  28.684  -3.010  0.00  0.00     0.000 C 
BRANCH   5   6
HETATM    6  C   UNK N   1      26.571  27.205  -3.111  0.00  0.00     0.000 C 
BRANCH   6   7
HETATM    7  C   UNK N   1      25.856  26.935  -4.419  0.00  0.00     0.007 C 
BRANCH   7   8
HETATM    8  C   UNK N   1      25.914  25.450  -4.743  0.00  0.00     0.067 C 
BRANCH   8   9
HETATM    9  C   UNK N   1      25.772  25.177  -6.204  0.00  0.00     0.078 A 
HETATM   10  O   UNK N   1      25.385  24.023  -6.697  0.00  0.00    -0.242 OA
HETATM   11  N   UNK N   1      25.308  24.074  -7.992  0.00  0.00    -0.266 N 
HETATM   12  C   UNK N   1      25.658  25.321  -8.360  0.00  0.00     0.031 A 
ATOM     13  HN  UNK N   1      25.034  23.313  -8.613  1.00  0.00     0.194 HD
HETATM   14  C   UNK N   1      25.687  25.794  -9.768  0.00  0.00     0.070 C 
HETATM   15  C   UNK N   1      25.963  26.071  -7.242  0.00  0.00     0.061 A 
ENDBRANCH   8   9
ENDBRANCH   7   8
ENDBRANCH   6   7
ENDBRANCH   5   6
ENDBRANCH   4   5
ENDBRANCH   3   4
ENDBRANCH   2   3
ENDBRANCH   1   2
BRANCH   1  16
HETATM   16  C   UNK N   1      29.764  28.253  -4.979  0.00  0.00     0.068 A 
HETATM   17  C   UNK N   1      29.309  27.142  -5.687  0.00  0.00     0.038 A 
HETATM   18  C   UNK N   1      29.591  25.857  -5.236  0.00  0.00     0.018 A 
HETATM   19  C   UNK N   1      30.347  25.658  -4.074  0.00  0.00     0.015 A 
HETATM   20  C   UNK N   1      30.822  26.768  -3.361  0.00  0.00     0.018 A 
HETATM   21  C   UNK N   1      30.529  28.065  -3.809  0.00  0.00     0.038 A 
BRANCH  19  22
HETATM   22  C   UNK N   1      30.607  24.282  -3.617  0.00  0.00     0.148 A 
HETATM   23  N   UNK N   1      31.178  23.421  -4.354  0.00  0.00    -0.363 N 
HETATM   24  C   UNK N   1      31.277  22.164  -3.673  0.00  0.00     0.107 A 
ATOM     25  HN  UNK N   1      31.519  23.599  -5.299  1.00  0.00     0.162 HD
HETATM   26  C   UNK N   1      30.626  22.479  -2.306  0.00  0.00     0.202 A 
HETATM   27  O   UNK N   1      30.257  23.807  -2.417  0.00  0.00    -0.333 OA
BRANCH  24  28
HETATM   28  C   UNK N   1      30.478  21.097  -4.414  0.00  0.00     0.023 C 
HETATM   29  C   UNK N   1      30.350  21.432  -5.891  0.00  0.00     0.007 C 
ENDBRANCH  24  28
ENDBRANCH  19  22
ENDBRANCH   1  16
TORSDOF 11
ENDMDL
MODEL 6
REMARK VINA RESULT:      -5.4      2.763      5.692
REMARK  11 active torsions:
REMARK  status: ('A' for Active; 'I' for Inactive)
REMARK    1  A    between atoms: C_7  and  C_8 
REMARK    2  A    between atoms: C_8  and  C_9 
REMARK    3  A    between atoms: C_9  and  C_10 
REMARK    4  A    between atoms: C_10  and  C_11 
REMARK    5  A    between atoms: C_11  and  C_12 
REMARK    6  A    between atoms: C_12  and  C_13 
REMARK    7  A    between atoms: C_13  and  C_14 
REMARK    8  A    between atoms: C_14  and  O_15 
REMARK    9  A    between atoms: O_15  and  C_16 
REMARK   10  A    between atoms: C_19  and  C_22 
REMARK   11  A    between atoms: C_25  and  C_26 
ROOT
HETATM    1  O   UNK N   1      26.989  24.847  -2.913  0.00  0.00    -0.351 OA
ENDROOT
BRANCH   1   2
HETATM    2  C   UNK N   1      26.214  25.652  -3.713  0.00  0.00     0.175 C 
BRANCH   2   3
HETATM    3  C   UNK N   1      26.283  27.089  -3.227  0.00  0.00     0.027 C 
BRANCH   3   4
HETATM    4  C   UNK N   1      26.098  28.039  -4.397  0.00  0.00     0.002 C 
BRANCH   4   5
HETATM    5  C   UNK N   1      27.397  28.126  -5.176  0.00  0.00     0.000 C 
BRANCH   5   6
HETATM    6  C   UNK N   1      27.129  28.028  -6.657  0.00  0.00     0.000 C 
BRANCH   6   7
HETATM    7  C   UNK N   1      27.284  26.582  -7.082  0.00  0.00     0.007 C 
BRANCH   7   8
HETATM    8  C   UNK N   1      26.009  26.104  -7.760  0.00  0.00     0.067 C 
BRANCH   8   9
HETATM    9  C   UNK N   1      25.755  24.649  -7.541  0.00  0.00     0.078 A 
HETATM   10  O   UNK N   1      25.282  24.150  -6.423  0.00  0.00    -0.242 OA
HETATM   11  N   UNK N   1      25.121  22.866  -6.519  0.00  0.00    -0.266 N 
HETATM   12  C   UNK N   1      25.502  22.511  -7.760  0.00  0.00     0.031 A 
ATOM     13  HN  UNK N   1      24.770  22.243  -5.791  1.00  0.00     0.194 HD
HETATM   14  C   UNK N   1      25.457  21.119  -8.278  0.00  0.00     0.070 C 
HETATM   15  C   UNK N   1      25.917  23.627  -8.459  0.00  0.00     0.061 A 
ENDBRANCH   8   9
ENDBRANCH   7   8
ENDBRANCH   6   7
ENDBRANCH   5   6
ENDBRANCH   4   5
ENDBRANCH   3   4
ENDBRANCH   2   3
ENDBRANCH   1   2
BRANCH   1  16
HETATM   16  C   UNK N   1      27.945  24.013  -3.383  0.00  0.00     0.068 A 
HETATM   17  C   UNK N   1      28.727  23.320  -2.460  0.00  0.00     0.038 A 
HETATM   18  C   UNK N   1      29.734  22.463  -2.893  0.00  0.00     0.018 A 
HETATM   19  C   UNK N   1      29.970  22.273  -4.260  0.00  0.00     0.015 A 
HETATM   20  C   UNK N   1      29.181  22.953  -5.198  0.00  0.00     0.018 A 
HETATM   21  C   UNK N   1      28.172  23.826  -4.763  0.00  0.00     0.038 A 
BRANCH  19  22
HETATM   22  C   UNK N   1      31.060  21.374  -4.679  0.00  0.00     0.148 A 
HETATM   23  N   UNK N   1      31.563  20.512  -3.896  0.00  0.00    -0.363 N 
HETATM   24  C   UNK N   1      32.621  19.798  -4.550  0.00  0.00     0.107 A 
ATOM     25  HN  UNK N   1      31.258  20.350  -2.936  1.00  0.00     0.162 HD
HETATM   26  C   UNK N   1      32.629  20.439  -5.957  0.00  0.00     0.202 A 
HETATM   27  O   UNK N   1      31.628  21.390  -5.889  0.00  0.00    -0.333 OA
BRANCH  24  28
HETATM   28  C   UNK N   1      33.946  20.048  -3.838  0.00  0.00     0.023 C 
HETATM   29  C   UNK N   1      35.101  19.395  -4.581  0.00  0.00     0.007 C 
ENDBRANCH  24  28
ENDBRANCH  19  22
ENDBRANCH   1  16
TORSDOF 11
ENDMDL
MODEL 7
REMARK VINA RESULT:      -5.4     20.792     24.870
REMARK  11 active torsions:
REMARK  status: ('A' for Active; 'I' for Inactive)
REMARK    1  A    between atoms: C_7  and  C_8 
REMARK    2  A    between atoms: C_8  and  C_9 
REMARK    3  A    between atoms: C_9  and  C_10 
REMARK    4  A    between atoms: C_10  and  C_11 
REMARK    5  A    between atoms: C_11  and  C_12 
REMARK    6  A    between atoms: C_12  and  C_13 
REMARK    7  A    between atoms: C_13  and  C_14 
REMARK    8  A    between atoms: C_14  and  O_15 
REMARK    9  A    between atoms: O_15  and  C_16 
REMARK   10  A    between atoms: C_19  and  C_22 
REMARK   11  A    between atoms: C_25  and  C_26 
ROOT
HETATM    1  O   UNK N   1      36.205  13.424  13.211  0.00  0.00    -0.351 OA
ENDROOT
BRANCH   1   2
HETATM    2  C   UNK N   1      35.452  12.801  14.177  0.00  0.00     0.175 C 
BRANCH   2   3
HETATM    3  C   UNK N   1      36.008  13.117  15.554  0.00  0.00     0.027 C 
BRANCH   3   4
HETATM    4  C   UNK N   1      34.912  12.983  16.596  0.00  0.00     0.002 C 
BRANCH   4   5
HETATM    5  C   UNK N   1      35.297  13.781  17.827  0.00  0.00     0.000 C 
BRANCH   5   6
HETATM    6  C   UNK N   1      35.047  12.974  19.076  0.00  0.00     0.000 C 
BRANCH   6   7
HETATM    7  C   UNK N   1      35.465  11.541  18.818  0.00  0.00     0.007 C 
BRANCH   7   8
HETATM    8  C   UNK N   1      35.552  10.783  20.134  0.00  0.00     0.067 C 
BRANCH   8   9
HETATM    9  C   UNK N   1      34.271  10.099  20.485  0.00  0.00     0.078 A 
HETATM   10  O   UNK N   1      33.613  10.310  21.601  0.00  0.00    -0.242 OA
HETATM   11  N   UNK N   1      32.516   9.618  21.631  0.00  0.00    -0.266 N 
HETATM   12  C   UNK N   1      32.454   8.925  20.479  0.00  0.00     0.031 A 
ATOM     13  HN  UNK N   1      31.829   9.602  22.385  1.00  0.00     0.194 HD
HETATM   14  C   UNK N   1      31.337   8.014  20.115  0.00  0.00     0.070 C 
HETATM   15  C   UNK N   1      33.562   9.204  19.705  0.00  0.00     0.061 A 
ENDBRANCH   8   9
ENDBRANCH   7   8
ENDBRANCH   6   7
ENDBRANCH   5   6
ENDBRANCH   4   5
ENDBRANCH   3   4
ENDBRANCH   2   3
ENDBRANCH   1   2
BRANCH   1  16
HETATM   16  C   UNK N   1      35.678  14.122  12.178  0.00  0.00     0.068 A 
HETATM   17  C   UNK N   1      35.970  15.482  12.085  0.00  0.00     0.038 A 
HETATM   18  C   UNK N   1      35.438  16.247  11.052  0.00  0.00     0.018 A 
HETATM   19  C   UNK N   1      34.616  15.662  10.082  0.00  0.00     0.015 A 
HETATM   20  C   UNK N   1      34.326  14.292  10.156  0.00  0.00     0.018 A 
HETATM   21  C   UNK N   1      34.853  13.522  11.205  0.00  0.00     0.038 A 
BRANCH  19  22
HETATM   22  C   UNK N   1      34.055  16.510   9.015  0.00  0.00     0.148 A 
HETATM   23  N   UNK N   1      32.941  17.105   9.140  0.00  0.00    -0.363 N 
HETATM   24  C   UNK N   1      32.625  17.834   7.947  0.00  0.00     0.107 A 
ATOM     25  HN  UNK N   1      32.354  17.070   9.973  1.00  0.00     0.162 HD
HETATM   26  C   UNK N   1      33.851  17.543   7.050  0.00  0.00     0.202 A 
HETATM   27  O   UNK N   1      34.638  16.716   7.830  0.00  0.00    -0.333 OA
BRANCH  24  28
HETATM   28  C   UNK N   1      31.354  17.282   7.312  0.00  0.00     0.023 C 
HETATM   29  C   UNK N   1      30.116  17.753   8.059  0.00  0.00     0.007 C 
ENDBRANCH  24  28
ENDBRANCH  19  22
ENDBRANCH   1  16
TORSDOF 11
ENDMDL
MODEL 8
REMARK VINA RESULT:      -5.4     18.803     23.132
REMARK  11 active torsions:
REMARK  status: ('A' for Active; 'I' for Inactive)
REMARK    1  A    between atoms: C_7  and  C_8 
REMARK    2  A    between atoms: C_8  and  C_9 
REMARK    3  A    between atoms: C_9  and  C_10 
REMARK    4  A    between atoms: C_10  and  C_11 
REMARK    5  A    between atoms: C_11  and  C_12 
REMARK    6  A    between atoms: C_12  and  C_13 
REMARK    7  A    between atoms: C_13  and  C_14 
REMARK    8  A    between atoms: C_14  and  O_15 
REMARK    9  A    between atoms: O_15  and  C_16 
REMARK   10  A    between atoms: C_19  and  C_22 
REMARK   11  A    between atoms: C_25  and  C_26 
ROOT
HETATM    1  O   UNK N   1      36.414  13.091  12.675  0.00  0.00    -0.351 OA
ENDROOT
BRANCH   1   2
HETATM    2  C   UNK N   1      36.776  13.387  13.967  0.00  0.00     0.175 C 
BRANCH   2   3
HETATM    3  C   UNK N   1      35.539  13.546  14.832  0.00  0.00     0.027 C 
BRANCH   3   4
HETATM    4  C   UNK N   1      35.937  13.613  16.295  0.00  0.00     0.002 C 
BRANCH   4   5
HETATM    5  C   UNK N   1      34.888  12.902  17.129  0.00  0.00     0.000 C 
BRANCH   5   6
HETATM    6  C   UNK N   1      35.534  11.866  18.014  0.00  0.00     0.000 C 
BRANCH   6   7
HETATM    7  C   UNK N   1      35.845  10.642  17.179  0.00  0.00     0.007 C 
BRANCH   7   8
HETATM    8  C   UNK N   1      34.589  10.176  16.458  0.00  0.00     0.067 C 
BRANCH   8   9
HETATM    9  C   UNK N   1      34.753  10.163  14.974  0.00  0.00     0.078 A 
HETATM   10  O   UNK N   1      35.887   9.904  14.366  0.00  0.00    -0.242 OA
HETATM   11  N   UNK N   1      35.737   9.920  13.077  0.00  0.00    -0.266 N 
HETATM   12  C   UNK N   1      34.444  10.198  12.833  0.00  0.00     0.031 A 
ATOM     13  HN  UNK N   1      36.463   9.752  12.381  1.00  0.00     0.194 HD
HETATM   14  C   UNK N   1      33.856  10.295  11.471  0.00  0.00     0.070 C 
HETATM   15  C   UNK N   1      33.766  10.361  14.025  0.00  0.00     0.061 A 
ENDBRANCH   8   9
ENDBRANCH   7   8
ENDBRANCH   6   7
ENDBRANCH   5   6
ENDBRANCH   4   5
ENDBRANCH   3   4
ENDBRANCH   2   3
ENDBRANCH   1   2
BRANCH   1  16
HETATM   16  C   UNK N   1      35.839  13.980  11.832  0.00  0.00     0.068 A 
HETATM   17  C   UNK N   1      35.138  13.486  10.732  0.00  0.00     0.038 A 
HETATM   18  C   UNK N   1      34.544  14.359   9.826  0.00  0.00     0.018 A 
HETATM   19  C   UNK N   1      34.626  15.744  10.012  0.00  0.00     0.015 A 
HETATM   20  C   UNK N   1      35.315  16.252  11.122  0.00  0.00     0.018 A 
HETATM   21  C   UNK N   1      35.925  15.373  12.030  0.00  0.00     0.038 A 
BRANCH  19  22
HETATM   22  C   UNK N   1      34.001  16.636   9.020  0.00  0.00     0.148 A 
HETATM   23  N   UNK N   1      32.825  17.091   9.165  0.00  0.00    -0.363 N 
HETATM   24  C   UNK N   1      32.460  17.905   8.043  0.00  0.00     0.107 A 
ATOM     25  HN  UNK N   1      32.224  16.903   9.968  1.00  0.00     0.162 HD
HETATM   26  C   UNK N   1      33.733  17.847   7.167  0.00  0.00     0.202 A 
HETATM   27  O   UNK N   1      34.588  17.030   7.885  0.00  0.00    -0.333 OA
BRANCH  24  28
HETATM   28  C   UNK N   1      31.275  17.290   7.308  0.00  0.00     0.023 C 
HETATM   29  C   UNK N   1      31.648  16.907   5.885  0.00  0.00     0.007 C 
ENDBRANCH  24  28
ENDBRANCH  19  22
ENDBRANCH   1  16
TORSDOF 11
ENDMDL
MODEL 9
REMARK VINA RESULT:      -5.3     15.796     20.306
REMARK  11 active torsions:
REMARK  status: ('A' for Active; 'I' for Inactive)
REMARK    1  A    between atoms: C_7  and  C_8 
REMARK    2  A    between atoms: C_8  and  C_9 
REMARK    3  A    between atoms: C_9  and  C_10 
REMARK    4  A    between atoms: C_10  and  C_11 
REMARK    5  A    between atoms: C_11  and  C_12 
REMARK    6  A    between atoms: C_12  and  C_13 
REMARK    7  A    between atoms: C_13  and  C_14 
REMARK    8  A    between atoms: C_14  and  O_15 
REMARK    9  A    between atoms: O_15  and  C_16 
REMARK   10  A    between atoms: C_19  and  C_22 
REMARK   11  A    between atoms: C_25  and  C_26 
ROOT
HETATM    1  O   UNK N   1      34.335  16.184   8.384  0.00  0.00    -0.351 OA
ENDROOT
BRANCH   1   2
HETATM    2  C   UNK N   1      34.083  17.531   8.286  0.00  0.00     0.175 C 
BRANCH   2   3
HETATM    3  C   UNK N   1      33.031  17.788   7.222  0.00  0.00     0.027 C 
BRANCH   3   4
HETATM    4  C   UNK N   1      33.540  17.321   5.870  0.00  0.00     0.002 C 
BRANCH   4   5
HETATM    5  C   UNK N   1      32.435  16.566   5.156  0.00  0.00     0.000 C 
BRANCH   5   6
HETATM    6  C   UNK N   1      31.407  17.527   4.613  0.00  0.00     0.000 C 
BRANCH   6   7
HETATM    7  C   UNK N   1      30.027  16.976   4.905  0.00  0.00     0.007 C 
BRANCH   7   8
HETATM    8  C   UNK N   1      29.091  18.107   5.302  0.00  0.00     0.067 C 
BRANCH   8   9
HETATM    9  C   UNK N   1      28.813  18.132   6.769  0.00  0.00     0.078 A 
HETATM   10  O   UNK N   1      27.937  18.930   7.333  0.00  0.00    -0.242 OA
HETATM   11  N   UNK N   1      27.867  18.714   8.611  0.00  0.00    -0.266 N 
HETATM   12  C   UNK N   1      28.736  17.726   8.892  0.00  0.00     0.031 A 
ATOM     13  HN  UNK N   1      27.267  19.202   9.276  1.00  0.00     0.194 HD
HETATM   14  C   UNK N   1      28.949  17.169  10.254  0.00  0.00     0.070 C 
HETATM   15  C   UNK N   1      29.368  17.314   7.737  0.00  0.00     0.061 A 
ENDBRANCH   8   9
ENDBRANCH   7   8
ENDBRANCH   6   7
ENDBRANCH   5   6
ENDBRANCH   4   5
ENDBRANCH   3   4
ENDBRANCH   2   3
ENDBRANCH   1   2
BRANCH   1  16
HETATM   16  C   UNK N   1      34.643  15.556   9.543  0.00  0.00     0.068 A 
HETATM   17  C   UNK N   1      35.176  16.316  10.582  0.00  0.00     0.038 A 
HETATM   18  C   UNK N   1      35.525  15.715  11.787  0.00  0.00     0.018 A 
HETATM   19  C   UNK N   1      35.332  14.342  11.981  0.00  0.00     0.015 A 
HETATM   20  C   UNK N   1      34.783  13.569  10.948  0.00  0.00     0.018 A 
HETATM   21  C   UNK N   1      34.442  14.173   9.728  0.00  0.00     0.038 A 
BRANCH  19  22
HETATM   22  C   UNK N   1      35.734  13.738  13.264  0.00  0.00     0.148 A 
HETATM   23  N   UNK N   1      36.933  13.403  13.507  0.00  0.00    -0.363 N 
HETATM   24  C   UNK N   1      37.035  12.817  14.811  0.00  0.00     0.107 A 
ATOM     25  HN  UNK N   1      37.714  13.533  12.865  1.00  0.00     0.162 HD
HETATM   26  C   UNK N   1      35.577  12.891  15.320  0.00  0.00     0.202 A 
HETATM   27  O   UNK N   1      34.892  13.470  14.267  0.00  0.00    -0.333 OA
BRANCH  24  28
HETATM   28  C   UNK N   1      37.493  11.367  14.704  0.00  0.00     0.023 C 
HETATM   29  C   UNK N   1      36.308  10.425  14.555  0.00  0.00     0.007 C 
ENDBRANCH  24  28
ENDBRANCH  19  22
ENDBRANCH   1  16
TORSDOF 11
ENDMDL
