REMARK  10 active torsions:
REMARK  status: ('A' for Active; 'I' for Inactive)
REMARK    1  A    between atoms: C_7  and  C_8 
REMARK    2  A    between atoms: C_8  and  C_9 
REMARK    3  A    between atoms: C_9  and  C_10 
REMARK    4  A    between atoms: C_10  and  C_11 
REMARK    5  A    between atoms: C_11  and  C_12 
REMARK    6  A    between atoms: C_12  and  C_13 
REMARK    7  A    between atoms: C_13  and  C_14 
REMARK    8  A    between atoms: C_14  and  O_15 
REMARK    9  A    between atoms: O_15  and  C_16 
REMARK   10  A    between atoms: C_19  and  C_22 
ROOT
HETATM    1  C   UNK N   1       0.657   1.930   0.735  0.00  0.00     0.175 C 
ENDROOT
BRANCH   1   2
HETATM    2  C   UNK N   1      -0.417   2.067  -0.325  0.00  0.00     0.027 C 
BRANCH   2   3
HETATM    3  C   UNK N   1      -0.906   0.690  -0.733  0.00  0.00     0.002 C 
BRANCH   3   4
HETATM    4  C   UNK N   1      -2.014   0.229   0.195  0.00  0.00     0.000 C 
BRANCH   4   5
HETATM    5  C   UNK N   1      -2.364  -1.214  -0.114  0.00  0.00     0.000 C 
BRANCH   5   6
HETATM    6  C   UNK N   1      -3.669  -1.606   0.558  0.00  0.00     0.007 C 
BRANCH   6   7
HETATM    7  C   UNK N   1      -4.826  -1.448  -0.417  0.00  0.00     0.067 C 
BRANCH   7   8
HETATM    8  C   UNK N   1      -5.566  -0.171  -0.190  0.00  0.00     0.078 A 
HETATM    9  O   UNK N   1      -6.845  -0.101   0.096  0.00  0.00    -0.242 OA
HETATM   10  N   UNK N   1      -7.221   1.138   0.224  0.00  0.00    -0.266 N 
HETATM   11  C   UNK N   1      -6.137   1.903   0.008  0.00  0.00     0.031 A 
ATOM     12  HN  UNK N   1      -8.161   1.467   0.446  1.00  0.00     0.194 HD
HETATM   13  C   UNK N   1      -6.137   3.389   0.065  0.00  0.00     0.070 C 
HETATM   14  C   UNK N   1      -5.046   1.107  -0.267  0.00  0.00     0.061 A 
ENDBRANCH   7   8
ENDBRANCH   6   7
ENDBRANCH   5   6
ENDBRANCH   4   5
ENDBRANCH   3   4
ENDBRANCH   2   3
ENDBRANCH   1   2
BRANCH   1  15
HETATM   15  O   UNK N   1       1.910   2.087   0.181  0.00  0.00    -0.351 OA
BRANCH  15  16
HETATM   16  C   UNK N   1       2.804   1.073   0.083  0.00  0.00     0.068 A 
HETATM   17  C   UNK N   1       4.152   1.373  -0.139  0.00  0.00     0.038 A 
HETATM   18  C   UNK N   1       5.103   0.350  -0.187  0.00  0.00     0.018 A 
HETATM   19  C   UNK N   1       4.712  -0.988  -0.035  0.00  0.00     0.015 A 
HETATM   20  C   UNK N   1       3.358  -1.293   0.154  0.00  0.00     0.018 A 
HETATM   21  C   UNK N   1       2.410  -0.269   0.221  0.00  0.00     0.038 A 
BRANCH  19  22
HETATM   22  C   UNK N   1       5.715  -2.069  -0.039  0.00  0.00     0.148 A 
HETATM   23  N   UNK N   1       6.964  -1.857  -0.121  0.00  0.00    -0.368 N 
HETATM   24  C   UNK N   1       7.682  -3.099  -0.073  0.00  0.00     0.148 A 
ATOM     25  HN  UNK N   1       7.395  -0.937  -0.208  1.00  0.00     0.161 HD
HETATM   26  C   UNK N   1       6.543  -4.135   0.054  0.00  0.00     0.197 A 
HETATM   27  O   UNK N   1       5.401  -3.362   0.066  0.00  0.00    -0.334 OA
ENDBRANCH  19  22
ENDBRANCH  15  16
ENDBRANCH   1  15
TORSDOF 10
