MODEL 1
REMARK VINA RESULT:      -5.6      0.000      0.000
REMARK  10 active torsions:
REMARK  status: ('A' for Active; 'I' for Inactive)
REMARK    1  A    between atoms: C_7  and  C_8 
REMARK    2  A    between atoms: C_8  and  C_9 
REMARK    3  A    between atoms: C_9  and  C_10 
REMARK    4  A    between atoms: C_10  and  C_11 
REMARK    5  A    between atoms: C_11  and  C_12 
REMARK    6  A    between atoms: C_12  and  C_13 
REMARK    7  A    between atoms: C_13  and  C_14 
REMARK    8  A    between atoms: C_14  and  O_15 
REMARK    9  A    between atoms: O_15  and  C_16 
REMARK   10  A    between atoms: C_19  and  C_22 
ROOT
HETATM    1  C   UNK N   1      26.272  29.687  -3.539  0.00  0.00     0.175 C 
ENDROOT
BRANCH   1   2
HETATM    2  C   UNK N   1      27.768  29.678  -3.781  0.00  0.00     0.027 C 
BRANCH   2   3
HETATM    3  C   UNK N   1      28.043  29.862  -5.262  0.00  0.00     0.002 C 
BRANCH   3   4
HETATM    4  C   UNK N   1      28.753  28.643  -5.820  0.00  0.00     0.000 C 
BRANCH   4   5
HETATM    5  C   UNK N   1      29.417  27.883  -4.688  0.00  0.00     0.000 C 
BRANCH   5   6
HETATM    6  C   UNK N   1      30.413  26.872  -5.232  0.00  0.00     0.007 C 
BRANCH   6   7
HETATM    7  C   UNK N   1      30.957  26.014  -4.099  0.00  0.00     0.067 C 
BRANCH   7   8
HETATM    8  C   UNK N   1      30.573  24.580  -4.261  0.00  0.00     0.078 A 
HETATM    9  O   UNK N   1      29.687  24.148  -5.127  0.00  0.00    -0.242 OA
HETATM   10  N   UNK N   1      29.544  22.858  -5.035  0.00  0.00    -0.266 N 
HETATM   11  C   UNK N   1      30.373  22.439  -4.063  0.00  0.00     0.031 A 
ATOM     12  HN  UNK N   1      28.921  22.275  -5.594  1.00  0.00     0.194 HD
HETATM   13  C   UNK N   1      30.518  21.020  -3.643  0.00  0.00     0.070 C 
HETATM   14  C   UNK N   1      31.055  23.511  -3.530  0.00  0.00     0.061 A 
ENDBRANCH   7   8
ENDBRANCH   6   7
ENDBRANCH   5   6
ENDBRANCH   4   5
ENDBRANCH   3   4
ENDBRANCH   2   3
ENDBRANCH   1   2
BRANCH   1  15
HETATM   15  O   UNK N   1      25.842  28.450  -3.108  0.00  0.00    -0.351 OA
BRANCH  15  16
HETATM   16  C   UNK N   1      25.840  27.353  -3.904  0.00  0.00     0.068 A 
HETATM   17  C   UNK N   1      25.211  27.418  -5.151  0.00  0.00     0.038 A 
HETATM   18  C   UNK N   1      25.243  26.320  -6.015  0.00  0.00     0.018 A 
HETATM   19  C   UNK N   1      25.888  25.135  -5.631  0.00  0.00     0.015 A 
HETATM   20  C   UNK N   1      26.490  25.057  -4.368  0.00  0.00     0.018 A 
HETATM   21  C   UNK N   1      26.474  26.161  -3.513  0.00  0.00     0.038 A 
BRANCH  19  22
HETATM   22  C   UNK N   1      25.966  23.988  -6.554  0.00  0.00     0.148 A 
HETATM   23  N   UNK N   1      25.226  23.870  -7.579  0.00  0.00    -0.368 N 
HETATM   24  C   UNK N   1      25.554  22.668  -8.292  0.00  0.00     0.148 A 
ATOM     25  HN  UNK N   1      24.503  24.534  -7.856  1.00  0.00     0.161 HD
HETATM   26  C   UNK N   1      26.689  22.072  -7.430  0.00  0.00     0.197 A 
HETATM   27  O   UNK N   1      26.835  22.986  -6.408  0.00  0.00    -0.334 OA
ENDBRANCH  19  22
ENDBRANCH  15  16
ENDBRANCH   1  15
TORSDOF 10
ENDMDL
MODEL 2
REMARK VINA RESULT:      -5.5     11.163     13.506
REMARK  10 active torsions:
REMARK  status: ('A' for Active; 'I' for Inactive)
REMARK    1  A    between atoms: C_7  and  C_8 
REMARK    2  A    between atoms: C_8  and  C_9 
REMARK    3  A    between atoms: C_9  and  C_10 
REMARK    4  A    between atoms: C_10  and  C_11 
REMARK    5  A    between atoms: C_11  and  C_12 
REMARK    6  A    between atoms: C_12  and  C_13 
REMARK    7  A    between atoms: C_13  and  C_14 
REMARK    8  A    between atoms: C_14  and  O_15 
REMARK    9  A    between atoms: O_15  and  C_16 
REMARK   10  A    between atoms: C_19  and  C_22 
ROOT
HETATM    1  C   UNK N   1      28.610  17.367   4.615  0.00  0.00     0.175 C 
ENDROOT
BRANCH   1   2
HETATM    2  C   UNK N   1      29.819  17.330   5.529  0.00  0.00     0.027 C 
BRANCH   2   3
HETATM    3  C   UNK N   1      30.912  16.494   4.891  0.00  0.00     0.002 C 
BRANCH   3   4
HETATM    4  C   UNK N   1      32.031  17.386   4.388  0.00  0.00     0.000 C 
BRANCH   4   5
HETATM    5  C   UNK N   1      33.355  16.897   4.943  0.00  0.00     0.000 C 
BRANCH   5   6
HETATM    6  C   UNK N   1      33.755  17.705   6.167  0.00  0.00     0.007 C 
BRANCH   6   7
HETATM    7  C   UNK N   1      33.741  16.819   7.404  0.00  0.00     0.067 C 
BRANCH   7   8
HETATM    8  C   UNK N   1      32.483  16.994   8.190  0.00  0.00     0.078 A 
HETATM    9  O   UNK N   1      31.841  16.013   8.780  0.00  0.00    -0.242 OA
HETATM   10  N   UNK N   1      30.772  16.456   9.376  0.00  0.00    -0.266 N 
HETATM   11  C   UNK N   1      30.720  17.781   9.159  0.00  0.00     0.031 A 
ATOM     12  HN  UNK N   1      30.100  15.901   9.908  1.00  0.00     0.194 HD
HETATM   13  C   UNK N   1      29.649  18.672   9.677  0.00  0.00     0.070 C 
HETATM   14  C   UNK N   1      31.798  18.176   8.396  0.00  0.00     0.061 A 
ENDBRANCH   7   8
ENDBRANCH   6   7
ENDBRANCH   5   6
ENDBRANCH   4   5
ENDBRANCH   3   4
ENDBRANCH   2   3
ENDBRANCH   1   2
BRANCH   1  15
HETATM   15  O   UNK N   1      28.162  18.661   4.454  0.00  0.00    -0.351 OA
BRANCH  15  16
HETATM   16  C   UNK N   1      26.863  18.966   4.217  0.00  0.00     0.068 A 
HETATM   17  C   UNK N   1      26.559  20.067   3.410  0.00  0.00     0.038 A 
HETATM   18  C   UNK N   1      25.229  20.369   3.102  0.00  0.00     0.018 A 
HETATM   19  C   UNK N   1      24.187  19.585   3.617  0.00  0.00     0.015 A 
HETATM   20  C   UNK N   1      24.488  18.502   4.453  0.00  0.00     0.018 A 
HETATM   21  C   UNK N   1      25.818  18.188   4.745  0.00  0.00     0.038 A 
BRANCH  19  22
HETATM   22  C   UNK N   1      22.785  19.870   3.260  0.00  0.00     0.148 A 
HETATM   23  N   UNK N   1      21.836  19.052   3.465  0.00  0.00    -0.368 N 
HETATM   24  C   UNK N   1      20.590  19.622   3.038  0.00  0.00     0.148 A 
ATOM     25  HN  UNK N   1      21.944  18.124   3.873  1.00  0.00     0.161 HD
HETATM   26  C   UNK N   1      21.022  21.007   2.510  0.00  0.00     0.197 A 
HETATM   27  O   UNK N   1      22.387  21.020   2.713  0.00  0.00    -0.334 OA
ENDBRANCH  19  22
ENDBRANCH  15  16
ENDBRANCH   1  15
TORSDOF 10
ENDMDL
MODEL 3
REMARK VINA RESULT:      -5.5      2.072      6.166
REMARK  10 active torsions:
REMARK  status: ('A' for Active; 'I' for Inactive)
REMARK    1  A    between atoms: C_7  and  C_8 
REMARK    2  A    between atoms: C_8  and  C_9 
REMARK    3  A    between atoms: C_9  and  C_10 
REMARK    4  A    between atoms: C_10  and  C_11 
REMARK    5  A    between atoms: C_11  and  C_12 
REMARK    6  A    between atoms: C_12  and  C_13 
REMARK    7  A    between atoms: C_13  and  C_14 
REMARK    8  A    between atoms: C_14  and  O_15 
REMARK    9  A    between atoms: O_15  and  C_16 
REMARK   10  A    between atoms: C_19  and  C_22 
ROOT
HETATM    1  C   UNK N   1      31.753  21.887  -2.872  0.00  0.00     0.175 C 
ENDROOT
BRANCH   1   2
HETATM    2  C   UNK N   1      30.985  20.823  -3.629  0.00  0.00     0.027 C 
BRANCH   2   3
HETATM    3  C   UNK N   1      31.546  20.693  -5.032  0.00  0.00     0.002 C 
BRANCH   3   4
HETATM    4  C   UNK N   1      31.182  21.912  -5.859  0.00  0.00     0.000 C 
BRANCH   4   5
HETATM    5  C   UNK N   1      30.561  21.467  -7.169  0.00  0.00     0.000 C 
BRANCH   5   6
HETATM    6  C   UNK N   1      29.058  21.299  -7.021  0.00  0.00     0.007 C 
BRANCH   6   7
HETATM    7  C   UNK N   1      28.467  22.500  -6.296  0.00  0.00     0.067 C 
BRANCH   7   8
HETATM    8  C   UNK N   1      27.271  23.038  -7.009  0.00  0.00     0.078 A 
HETATM    9  O   UNK N   1      26.034  22.877  -6.599  0.00  0.00    -0.242 OA
HETATM   10  N   UNK N   1      25.199  23.439  -7.424  0.00  0.00    -0.266 N 
HETATM   11  C   UNK N   1      25.929  23.985  -8.412  0.00  0.00     0.031 A 
ATOM     12  HN  UNK N   1      24.183  23.460  -7.337  1.00  0.00     0.194 HD
HETATM   13  C   UNK N   1      25.353  24.731  -9.562  0.00  0.00     0.070 C 
HETATM   14  C   UNK N   1      27.269  23.751  -8.192  0.00  0.00     0.061 A 
ENDBRANCH   7   8
ENDBRANCH   6   7
ENDBRANCH   5   6
ENDBRANCH   4   5
ENDBRANCH   3   4
ENDBRANCH   2   3
ENDBRANCH   1   2
BRANCH   1  15
HETATM   15  O   UNK N   1      30.897  22.660  -2.116  0.00  0.00    -0.351 OA
BRANCH  15  16
HETATM   16  C   UNK N   1      29.939  23.448  -2.663  0.00  0.00     0.068 A 
HETATM   17  C   UNK N   1      28.594  23.146  -2.430  0.00  0.00     0.038 A 
HETATM   18  C   UNK N   1      27.588  23.975  -2.934  0.00  0.00     0.018 A 
HETATM   19  C   UNK N   1      27.917  25.104  -3.697  0.00  0.00     0.015 A 
HETATM   20  C   UNK N   1      29.263  25.390  -3.960  0.00  0.00     0.018 A 
HETATM   21  C   UNK N   1      30.269  24.572  -3.440  0.00  0.00     0.038 A 
BRANCH  19  22
HETATM   22  C   UNK N   1      26.863  26.008  -4.194  0.00  0.00     0.148 A 
HETATM   23  N   UNK N   1      26.093  25.713  -5.159  0.00  0.00    -0.368 N 
HETATM   24  C   UNK N   1      25.159  26.777  -5.392  0.00  0.00     0.148 A 
ATOM     25  HN  UNK N   1      26.133  24.844  -5.692  1.00  0.00     0.161 HD
HETATM   26  C   UNK N   1      25.561  27.811  -4.317  0.00  0.00     0.197 A 
HETATM   27  O   UNK N   1      26.611  27.205  -3.660  0.00  0.00    -0.334 OA
ENDBRANCH  19  22
ENDBRANCH  15  16
ENDBRANCH   1  15
TORSDOF 10
ENDMDL
MODEL 4
REMARK VINA RESULT:      -5.5      2.190      5.385
REMARK  10 active torsions:
REMARK  status: ('A' for Active; 'I' for Inactive)
REMARK    1  A    between atoms: C_7  and  C_8 
REMARK    2  A    between atoms: C_8  and  C_9 
REMARK    3  A    between atoms: C_9  and  C_10 
REMARK    4  A    between atoms: C_10  and  C_11 
REMARK    5  A    between atoms: C_11  and  C_12 
REMARK    6  A    between atoms: C_12  and  C_13 
REMARK    7  A    between atoms: C_13  and  C_14 
REMARK    8  A    between atoms: C_14  and  O_15 
REMARK    9  A    between atoms: O_15  and  C_16 
REMARK   10  A    between atoms: C_19  and  C_22 
ROOT
HETATM    1  C   UNK N   1      26.327  25.694  -3.956  0.00  0.00     0.175 C 
ENDROOT
BRANCH   1   2
HETATM    2  C   UNK N   1      26.146  27.049  -3.302  0.00  0.00     0.027 C 
BRANCH   2   3
HETATM    3  C   UNK N   1      26.701  28.129  -4.211  0.00  0.00     0.002 C 
BRANCH   3   4
HETATM    4  C   UNK N   1      27.665  27.527  -5.216  0.00  0.00     0.000 C 
BRANCH   4   5
HETATM    5  C   UNK N   1      27.390  28.107  -6.590  0.00  0.00     0.000 C 
BRANCH   5   6
HETATM    6  C   UNK N   1      27.279  27.002  -7.627  0.00  0.00     0.007 C 
BRANCH   6   7
HETATM    7  C   UNK N   1      25.904  26.355  -7.553  0.00  0.00     0.067 C 
BRANCH   7   8
HETATM    8  C   UNK N   1      25.988  24.870  -7.688  0.00  0.00     0.078 A 
HETATM    9  O   UNK N   1      24.951  24.087  -7.880  0.00  0.00    -0.242 OA
HETATM   10  N   UNK N   1      25.320  22.841  -7.943  0.00  0.00    -0.266 N 
HETATM   11  C   UNK N   1      26.655  22.817  -7.782  0.00  0.00     0.031 A 
ATOM     12  HN  UNK N   1      24.712  22.035  -8.087  1.00  0.00     0.194 HD
HETATM   13  C   UNK N   1      27.477  21.578  -7.794  0.00  0.00     0.070 C 
HETATM   14  C   UNK N   1      27.132  24.099  -7.610  0.00  0.00     0.061 A 
ENDBRANCH   7   8
ENDBRANCH   6   7
ENDBRANCH   5   6
ENDBRANCH   4   5
ENDBRANCH   3   4
ENDBRANCH   2   3
ENDBRANCH   1   2
BRANCH   1  15
HETATM   15  O   UNK N   1      26.656  24.740  -3.016  0.00  0.00    -0.351 OA
BRANCH  15  16
HETATM   16  C   UNK N   1      27.786  23.995  -3.087  0.00  0.00     0.068 A 
HETATM   17  C   UNK N   1      28.417  23.832  -4.324  0.00  0.00     0.038 A 
HETATM   18  C   UNK N   1      29.615  23.117  -4.416  0.00  0.00     0.018 A 
HETATM   19  C   UNK N   1      30.183  22.538  -3.273  0.00  0.00     0.015 A 
HETATM   20  C   UNK N   1      29.535  22.672  -2.038  0.00  0.00     0.018 A 
HETATM   21  C   UNK N   1      28.348  23.403  -1.943  0.00  0.00     0.038 A 
BRANCH  19  22
HETATM   22  C   UNK N   1      31.469  21.821  -3.353  0.00  0.00     0.148 A 
HETATM   23  N   UNK N   1      31.897  21.280  -4.419  0.00  0.00    -0.368 N 
HETATM   24  C   UNK N   1      33.183  20.685  -4.192  0.00  0.00     0.148 A 
ATOM     25  HN  UNK N   1      31.398  21.271  -5.309  1.00  0.00     0.161 HD
HETATM   26  C   UNK N   1      33.433  20.997  -2.700  0.00  0.00     0.197 A 
HETATM   27  O   UNK N   1      32.306  21.697  -2.321  0.00  0.00    -0.334 OA
ENDBRANCH  19  22
ENDBRANCH  15  16
ENDBRANCH   1  15
TORSDOF 10
ENDMDL
MODEL 5
REMARK VINA RESULT:      -5.3     15.317     19.320
REMARK  10 active torsions:
REMARK  status: ('A' for Active; 'I' for Inactive)
REMARK    1  A    between atoms: C_7  and  C_8 
REMARK    2  A    between atoms: C_8  and  C_9 
REMARK    3  A    between atoms: C_9  and  C_10 
REMARK    4  A    between atoms: C_10  and  C_11 
REMARK    5  A    between atoms: C_11  and  C_12 
REMARK    6  A    between atoms: C_12  and  C_13 
REMARK    7  A    between atoms: C_13  and  C_14 
REMARK    8  A    between atoms: C_14  and  O_15 
REMARK    9  A    between atoms: O_15  and  C_16 
REMARK   10  A    between atoms: C_19  and  C_22 
ROOT
HETATM    1  C   UNK N   1      34.886  15.222   7.150  0.00  0.00     0.175 C 
ENDROOT
BRANCH   1   2
HETATM    2  C   UNK N   1      34.189  15.945   6.015  0.00  0.00     0.027 C 
BRANCH   2   3
HETATM    3  C   UNK N   1      33.611  17.252   6.524  0.00  0.00     0.002 C 
BRANCH   3   4
HETATM    4  C   UNK N   1      32.095  17.195   6.515  0.00  0.00     0.000 C 
BRANCH   4   5
HETATM    5  C   UNK N   1      31.591  16.940   7.923  0.00  0.00     0.000 C 
BRANCH   5   6
HETATM    6  C   UNK N   1      30.257  17.632   8.149  0.00  0.00     0.007 C 
BRANCH   6   7
HETATM    7  C   UNK N   1      29.276  17.244   7.053  0.00  0.00     0.067 C 
BRANCH   7   8
HETATM    8  C   UNK N   1      28.590  18.441   6.481  0.00  0.00     0.078 A 
HETATM    9  O   UNK N   1      28.544  18.721   5.199  0.00  0.00    -0.242 OA
HETATM   10  N   UNK N   1      27.896  19.830   4.994  0.00  0.00    -0.266 N 
HETATM   11  C   UNK N   1      27.508  20.288   6.196  0.00  0.00     0.031 A 
ATOM     12  HN  UNK N   1      27.716  20.269   4.090  1.00  0.00     0.194 HD
HETATM   13  C   UNK N   1      26.730  21.539   6.404  0.00  0.00     0.070 C 
HETATM   14  C   UNK N   1      27.935  19.431   7.187  0.00  0.00     0.061 A 
ENDBRANCH   7   8
ENDBRANCH   6   7
ENDBRANCH   5   6
ENDBRANCH   4   5
ENDBRANCH   3   4
ENDBRANCH   2   3
ENDBRANCH   1   2
BRANCH   1  15
HETATM   15  O   UNK N   1      34.982  16.036   8.259  0.00  0.00    -0.351 OA
BRANCH  15  16
HETATM   16  C   UNK N   1      35.105  15.552   9.519  0.00  0.00     0.068 A 
HETATM   17  C   UNK N   1      34.667  14.253   9.795  0.00  0.00     0.038 A 
HETATM   18  C   UNK N   1      34.835  13.709  11.072  0.00  0.00     0.018 A 
HETATM   19  C   UNK N   1      35.425  14.468  12.093  0.00  0.00     0.015 A 
HETATM   20  C   UNK N   1      35.834  15.781  11.827  0.00  0.00     0.018 A 
HETATM   21  C   UNK N   1      35.683  16.318  10.546  0.00  0.00     0.038 A 
BRANCH  19  22
HETATM   22  C   UNK N   1      35.647  13.886  13.429  0.00  0.00     0.148 A 
HETATM   23  N   UNK N   1      36.757  13.955  14.041  0.00  0.00    -0.368 N 
HETATM   24  C   UNK N   1      36.656  13.322  15.326  0.00  0.00     0.148 A 
ATOM     25  HN  UNK N   1      37.599  14.396  13.673  1.00  0.00     0.161 HD
HETATM   26  C   UNK N   1      35.189  12.839  15.341  0.00  0.00     0.197 A 
HETATM   27  O   UNK N   1      34.696  13.256  14.123  0.00  0.00    -0.334 OA
ENDBRANCH  19  22
ENDBRANCH  15  16
ENDBRANCH   1  15
TORSDOF 10
ENDMDL
MODEL 6
REMARK VINA RESULT:      -5.2      2.130      5.653
REMARK  10 active torsions:
REMARK  status: ('A' for Active; 'I' for Inactive)
REMARK    1  A    between atoms: C_7  and  C_8 
REMARK    2  A    between atoms: C_8  and  C_9 
REMARK    3  A    between atoms: C_9  and  C_10 
REMARK    4  A    between atoms: C_10  and  C_11 
REMARK    5  A    between atoms: C_11  and  C_12 
REMARK    6  A    between atoms: C_12  and  C_13 
REMARK    7  A    between atoms: C_13  and  C_14 
REMARK    8  A    between atoms: C_14  and  O_15 
REMARK    9  A    between atoms: O_15  and  C_16 
REMARK   10  A    between atoms: C_19  and  C_22 
ROOT
HETATM    1  C   UNK N   1      25.867  22.799  -7.153  0.00  0.00     0.175 C 
ENDROOT
BRANCH   1   2
HETATM    2  C   UNK N   1      27.346  22.483  -7.066  0.00  0.00     0.027 C 
BRANCH   2   3
HETATM    3  C   UNK N   1      27.650  21.243  -7.887  0.00  0.00     0.002 C 
BRANCH   3   4
HETATM    4  C   UNK N   1      29.146  21.100  -8.089  0.00  0.00     0.000 C 
BRANCH   4   5
HETATM    5  C   UNK N   1      29.705  20.137  -7.059  0.00  0.00     0.000 C 
BRANCH   5   6
HETATM    6  C   UNK N   1      30.925  20.732  -6.375  0.00  0.00     0.007 C 
BRANCH   6   7
HETATM    7  C   UNK N   1      30.833  20.523  -4.871  0.00  0.00     0.067 C 
BRANCH   7   8
HETATM    8  C   UNK N   1      30.732  21.821  -4.140  0.00  0.00     0.078 A 
HETATM    9  O   UNK N   1      30.786  21.939  -2.834  0.00  0.00    -0.242 OA
HETATM   10  N   UNK N   1      30.656  23.183  -2.478  0.00  0.00    -0.266 N 
HETATM   11  C   UNK N   1      30.509  23.902  -3.604  0.00  0.00     0.031 A 
ATOM     12  HN  UNK N   1      30.663  23.545  -1.524  1.00  0.00     0.194 HD
HETATM   13  C   UNK N   1      30.334  25.379  -3.638  0.00  0.00     0.070 C 
HETATM   14  C   UNK N   1      30.547  23.070  -4.702  0.00  0.00     0.061 A 
ENDBRANCH   7   8
ENDBRANCH   6   7
ENDBRANCH   5   6
ENDBRANCH   4   5
ENDBRANCH   3   4
ENDBRANCH   2   3
ENDBRANCH   1   2
BRANCH   1  15
HETATM   15  O   UNK N   1      25.403  23.292  -5.952  0.00  0.00    -0.351 OA
BRANCH  15  16
HETATM   16  C   UNK N   1      25.782  24.494  -5.453  0.00  0.00     0.068 A 
HETATM   17  C   UNK N   1      25.636  25.636  -6.247  0.00  0.00     0.038 A 
HETATM   18  C   UNK N   1      25.965  26.895  -5.737  0.00  0.00     0.018 A 
HETATM   19  C   UNK N   1      26.465  27.023  -4.434  0.00  0.00     0.015 A 
HETATM   20  C   UNK N   1      26.644  25.876  -3.649  0.00  0.00     0.018 A 
HETATM   21  C   UNK N   1      26.297  24.620  -4.152  0.00  0.00     0.038 A 
BRANCH  19  22
HETATM   22  C   UNK N   1      26.772  28.352  -3.873  0.00  0.00     0.148 A 
HETATM   23  N   UNK N   1      25.935  29.306  -3.851  0.00  0.00    -0.368 N 
HETATM   24  C   UNK N   1      26.514  30.459  -3.222  0.00  0.00     0.148 A 
ATOM     25  HN  UNK N   1      24.988  29.260  -4.226  1.00  0.00     0.161 HD
HETATM   26  C   UNK N   1      27.933  29.964  -2.866  0.00  0.00     0.197 A 
HETATM   27  O   UNK N   1      27.946  28.662  -3.320  0.00  0.00    -0.334 OA
ENDBRANCH  19  22
ENDBRANCH  15  16
ENDBRANCH   1  15
TORSDOF 10
ENDMDL
MODEL 7
REMARK VINA RESULT:      -5.2     12.239     14.350
REMARK  10 active torsions:
REMARK  status: ('A' for Active; 'I' for Inactive)
REMARK    1  A    between atoms: C_7  and  C_8 
REMARK    2  A    between atoms: C_8  and  C_9 
REMARK    3  A    between atoms: C_9  and  C_10 
REMARK    4  A    between atoms: C_10  and  C_11 
REMARK    5  A    between atoms: C_11  and  C_12 
REMARK    6  A    between atoms: C_12  and  C_13 
REMARK    7  A    between atoms: C_13  and  C_14 
REMARK    8  A    between atoms: C_14  and  O_15 
REMARK    9  A    between atoms: O_15  and  C_16 
REMARK   10  A    between atoms: C_19  and  C_22 
ROOT
HETATM    1  C   UNK N   1      21.743  20.346   2.202  0.00  0.00     0.175 C 
ENDROOT
BRANCH   1   2
HETATM    2  C   UNK N   1      20.491  20.190   3.042  0.00  0.00     0.027 C 
BRANCH   2   3
HETATM    3  C   UNK N   1      19.970  18.770   2.917  0.00  0.00     0.002 C 
BRANCH   3   4
HETATM    4  C   UNK N   1      20.481  17.920   4.065  0.00  0.00     0.000 C 
BRANCH   4   5
HETATM    5  C   UNK N   1      21.120  16.660   3.513  0.00  0.00     0.000 C 
BRANCH   5   6
HETATM    6  C   UNK N   1      21.778  15.860   4.626  0.00  0.00     0.007 C 
BRANCH   6   7
HETATM    7  C   UNK N   1      22.118  16.773   5.794  0.00  0.00     0.067 C 
BRANCH   7   8
HETATM    8  C   UNK N   1      21.544  16.264   7.075  0.00  0.00     0.078 A 
HETATM    9  O   UNK N   1      20.786  16.975   7.877  0.00  0.00    -0.242 OA
HETATM   10  N   UNK N   1      20.446  16.281   8.924  0.00  0.00    -0.266 N 
HETATM   11  C   UNK N   1      21.012  15.068   8.793  0.00  0.00     0.031 A 
ATOM     12  HN  UNK N   1      19.860  16.597   9.697  1.00  0.00     0.194 HD
HETATM   13  C   UNK N   1      20.865  13.966   9.781  0.00  0.00     0.070 C 
HETATM   14  C   UNK N   1      21.733  15.009   7.621  0.00  0.00     0.061 A 
ENDBRANCH   7   8
ENDBRANCH   6   7
ENDBRANCH   5   6
ENDBRANCH   4   5
ENDBRANCH   3   4
ENDBRANCH   2   3
ENDBRANCH   1   2
BRANCH   1  15
HETATM   15  O   UNK N   1      22.739  20.967   2.925  0.00  0.00    -0.351 OA
BRANCH  15  16
HETATM   16  C   UNK N   1      23.913  20.363   3.231  0.00  0.00     0.068 A 
HETATM   17  C   UNK N   1      23.896  19.175   3.969  0.00  0.00     0.038 A 
HETATM   18  C   UNK N   1      25.088  18.502   4.249  0.00  0.00     0.018 A 
HETATM   19  C   UNK N   1      26.314  19.022   3.811  0.00  0.00     0.015 A 
HETATM   20  C   UNK N   1      26.337  20.228   3.101  0.00  0.00     0.018 A 
HETATM   21  C   UNK N   1      25.144  20.892   2.805  0.00  0.00     0.038 A 
BRANCH  19  22
HETATM   22  C   UNK N   1      27.572  18.293   4.063  0.00  0.00     0.148 A 
HETATM   23  N   UNK N   1      28.413  18.645   4.946  0.00  0.00    -0.368 N 
HETATM   24  C   UNK N   1      29.517  17.729   4.972  0.00  0.00     0.148 A 
ATOM     25  HN  UNK N   1      28.318  19.461   5.550  1.00  0.00     0.161 HD
HETATM   26  C   UNK N   1      29.137  16.721   3.865  0.00  0.00     0.197 A 
HETATM   27  O   UNK N   1      27.926  17.189   3.402  0.00  0.00    -0.334 OA
ENDBRANCH  19  22
ENDBRANCH  15  16
ENDBRANCH   1  15
TORSDOF 10
ENDMDL
MODEL 8
REMARK VINA RESULT:      -5.2     12.088     14.350
REMARK  10 active torsions:
REMARK  status: ('A' for Active; 'I' for Inactive)
REMARK    1  A    between atoms: C_7  and  C_8 
REMARK    2  A    between atoms: C_8  and  C_9 
REMARK    3  A    between atoms: C_9  and  C_10 
REMARK    4  A    between atoms: C_10  and  C_11 
REMARK    5  A    between atoms: C_11  and  C_12 
REMARK    6  A    between atoms: C_12  and  C_13 
REMARK    7  A    between atoms: C_13  and  C_14 
REMARK    8  A    between atoms: C_14  and  O_15 
REMARK    9  A    between atoms: O_15  and  C_16 
REMARK   10  A    between atoms: C_19  and  C_22 
ROOT
HETATM    1  C   UNK N   1      29.005  17.319   4.986  0.00  0.00     0.175 C 
ENDROOT
BRANCH   1   2
HETATM    2  C   UNK N   1      29.992  17.350   6.135  0.00  0.00     0.027 C 
BRANCH   2   3
HETATM    3  C   UNK N   1      31.241  16.579   5.751  0.00  0.00     0.002 C 
BRANCH   3   4
HETATM    4  C   UNK N   1      32.324  17.532   5.280  0.00  0.00     0.000 C 
BRANCH   4   5
HETATM    5  C   UNK N   1      33.556  17.367   6.149  0.00  0.00     0.000 C 
BRANCH   5   6
HETATM    6  C   UNK N   1      33.323  17.960   7.529  0.00  0.00     0.007 C 
BRANCH   6   7
HETATM    7  C   UNK N   1      34.619  17.951   8.326  0.00  0.00     0.067 C 
BRANCH   7   8
HETATM    8  C   UNK N   1      34.662  16.813   9.292  0.00  0.00     0.078 A 
HETATM    9  O   UNK N   1      34.014  15.684   9.131  0.00  0.00    -0.242 OA
HETATM   10  N   UNK N   1      34.224  14.884  10.135  0.00  0.00    -0.266 N 
HETATM   11  C   UNK N   1      35.043  15.527  10.986  0.00  0.00     0.031 A 
ATOM     12  HN  UNK N   1      33.840  13.947  10.256  1.00  0.00     0.194 HD
HETATM   13  C   UNK N   1      35.534  14.955  12.268  0.00  0.00     0.070 C 
HETATM   14  C   UNK N   1      35.350  16.776  10.490  0.00  0.00     0.061 A 
ENDBRANCH   7   8
ENDBRANCH   6   7
ENDBRANCH   5   6
ENDBRANCH   4   5
ENDBRANCH   3   4
ENDBRANCH   2   3
ENDBRANCH   1   2
BRANCH   1  15
HETATM   15  O   UNK N   1      28.590  18.595   4.667  0.00  0.00    -0.351 OA
BRANCH  15  16
HETATM   16  C   UNK N   1      27.296  18.905   4.408  0.00  0.00     0.068 A 
HETATM   17  C   UNK N   1      27.009  20.016   3.608  0.00  0.00     0.038 A 
HETATM   18  C   UNK N   1      25.686  20.324   3.278  0.00  0.00     0.018 A 
HETATM   19  C   UNK N   1      24.633  19.536   3.764  0.00  0.00     0.015 A 
HETATM   20  C   UNK N   1      24.916  18.442   4.592  0.00  0.00     0.018 A 
HETATM   21  C   UNK N   1      26.240  18.123   4.906  0.00  0.00     0.038 A 
BRANCH  19  22
HETATM   22  C   UNK N   1      23.239  19.827   3.383  0.00  0.00     0.148 A 
HETATM   23  N   UNK N   1      22.269  19.054   3.653  0.00  0.00    -0.368 N 
HETATM   24  C   UNK N   1      21.037  19.620   3.180  0.00  0.00     0.148 A 
ATOM     25  HN  UNK N   1      22.353  18.161   4.137  1.00  0.00     0.161 HD
HETATM   26  C   UNK N   1      21.506  20.945   2.540  0.00  0.00     0.197 A 
HETATM   27  O   UNK N   1      22.870  20.939   2.742  0.00  0.00    -0.334 OA
ENDBRANCH  19  22
ENDBRANCH  15  16
ENDBRANCH   1  15
TORSDOF 10
ENDMDL
MODEL 9
REMARK VINA RESULT:      -5.2     13.583     17.520
REMARK  10 active torsions:
REMARK  status: ('A' for Active; 'I' for Inactive)
REMARK    1  A    between atoms: C_7  and  C_8 
REMARK    2  A    between atoms: C_8  and  C_9 
REMARK    3  A    between atoms: C_9  and  C_10 
REMARK    4  A    between atoms: C_10  and  C_11 
REMARK    5  A    between atoms: C_11  and  C_12 
REMARK    6  A    between atoms: C_12  and  C_13 
REMARK    7  A    between atoms: C_13  and  C_14 
REMARK    8  A    between atoms: C_14  and  O_15 
REMARK    9  A    between atoms: O_15  and  C_16 
REMARK   10  A    between atoms: C_19  and  C_22 
ROOT
HETATM    1  C   UNK N   1      33.433  17.051   5.198  0.00  0.00     0.175 C 
ENDROOT
BRANCH   1   2
HETATM    2  C   UNK N   1      32.021  17.578   5.042  0.00  0.00     0.027 C 
BRANCH   2   3
HETATM    3  C   UNK N   1      31.168  17.093   6.199  0.00  0.00     0.002 C 
BRANCH   3   4
HETATM    4  C   UNK N   1      29.861  16.519   5.685  0.00  0.00     0.000 C 
BRANCH   4   5
HETATM    5  C   UNK N   1      29.506  17.176   4.364  0.00  0.00     0.000 C 
BRANCH   5   6
HETATM    6  C   UNK N   1      28.164  17.882   4.458  0.00  0.00     0.007 C 
BRANCH   6   7
HETATM    7  C   UNK N   1      28.374  19.374   4.669  0.00  0.00     0.067 C 
BRANCH   7   8
HETATM    8  C   UNK N   1      27.701  19.855   5.912  0.00  0.00     0.078 A 
HETATM    9  O   UNK N   1      27.775  19.246   7.073  0.00  0.00    -0.242 OA
HETATM   10  N   UNK N   1      27.079  19.879   7.970  0.00  0.00    -0.266 N 
HETATM   11  C   UNK N   1      26.527  20.944   7.362  0.00  0.00     0.031 A 
ATOM     12  HN  UNK N   1      26.971  19.618   8.951  1.00  0.00     0.194 HD
HETATM   13  C   UNK N   1      25.654  21.937   8.043  0.00  0.00     0.070 C 
HETATM   14  C   UNK N   1      26.895  20.970   6.034  0.00  0.00     0.061 A 
ENDBRANCH   7   8
ENDBRANCH   6   7
ENDBRANCH   5   6
ENDBRANCH   4   5
ENDBRANCH   3   4
ENDBRANCH   2   3
ENDBRANCH   1   2
BRANCH   1  15
HETATM   15  O   UNK N   1      34.057  17.645   6.275  0.00  0.00    -0.351 OA
BRANCH  15  16
HETATM   16  C   UNK N   1      34.333  16.980   7.424  0.00  0.00     0.068 A 
HETATM   17  C   UNK N   1      34.331  15.581   7.418  0.00  0.00     0.038 A 
HETATM   18  C   UNK N   1      34.668  14.871   8.573  0.00  0.00     0.018 A 
HETATM   19  C   UNK N   1      34.992  15.554   9.755  0.00  0.00     0.015 A 
HETATM   20  C   UNK N   1      34.963  16.954   9.772  0.00  0.00     0.018 A 
HETATM   21  C   UNK N   1      34.643  17.664   8.611  0.00  0.00     0.038 A 
BRANCH  19  22
HETATM   22  C   UNK N   1      35.393  14.813  10.965  0.00  0.00     0.148 A 
HETATM   23  N   UNK N   1      36.602  14.547  11.247  0.00  0.00    -0.368 N 
HETATM   24  C   UNK N   1      36.676  13.843  12.496  0.00  0.00     0.148 A 
ATOM     25  HN  UNK N   1      37.405  14.798  10.670  1.00  0.00     0.161 HD
HETATM   26  C   UNK N   1      35.191  13.738  12.906  0.00  0.00     0.197 A 
HETATM   27  O   UNK N   1      34.525  14.376  11.880  0.00  0.00    -0.334 OA
ENDBRANCH  19  22
ENDBRANCH  15  16
ENDBRANCH   1  15
TORSDOF 10
ENDMDL
