MODEL 1
REMARK VINA RESULT:      -6.0      0.000      0.000
REMARK  10 active torsions:
REMARK  status: ('A' for Active; 'I' for Inactive)
REMARK    1  A    between atoms: C_7  and  C_8 
REMARK    2  A    between atoms: C_8  and  C_9 
REMARK    3  A    between atoms: C_9  and  C_10 
REMARK    4  A    between atoms: C_10  and  C_11 
REMARK    5  A    between atoms: C_11  and  C_12 
REMARK    6  A    between atoms: C_12  and  C_13 
REMARK    7  A    between atoms: C_13  and  C_14 
REMARK    8  A    between atoms: C_14  and  O_15 
REMARK    9  A    between atoms: O_15  and  C_16 
REMARK   10  A    between atoms: C_19  and  C_22 
ROOT
HETATM    1  C   UNK N   1      27.036  29.495  -3.016  0.00  0.00     0.175 C 
ENDROOT
BRANCH   1   2
HETATM    2  C   UNK N   1      27.122  30.526  -4.125  0.00  0.00     0.027 C 
BRANCH   2   3
HETATM    3  C   UNK N   1      28.069  30.046  -5.211  0.00  0.00     0.002 C 
BRANCH   3   4
HETATM    4  C   UNK N   1      28.953  28.930  -4.678  0.00  0.00     0.000 C 
BRANCH   4   5
HETATM    5  C   UNK N   1      29.516  28.106  -5.822  0.00  0.00     0.000 C 
BRANCH   5   6
HETATM    6  C   UNK N   1      29.467  26.620  -5.505  0.00  0.00     0.007 C 
BRANCH   6   7
HETATM    7  C   UNK N   1      29.922  26.374  -4.076  0.00  0.00     0.067 C 
BRANCH   7   8
HETATM    8  C   UNK N   1      30.173  24.921  -3.842  0.00  0.00     0.078 A 
HETATM    9  O   UNK N   1      30.706  24.432  -2.749  0.00  0.00    -0.242 OA
HETATM   10  N   UNK N   1      30.814  23.136  -2.831  0.00  0.00    -0.266 N 
HETATM   11  C   UNK N   1      30.330  22.776  -4.032  0.00  0.00     0.031 A 
ATOM     12  HN  UNK N   1      31.194  22.513  -2.119  1.00  0.00     0.194 HD
HETATM   13  C   UNK N   1      30.271  21.374  -4.521  0.00  0.00     0.070 C 
HETATM   14  C   UNK N   1      29.907  23.891  -4.723  0.00  0.00     0.061 A 
ENDBRANCH   7   8
ENDBRANCH   6   7
ENDBRANCH   5   6
ENDBRANCH   4   5
ENDBRANCH   3   4
ENDBRANCH   2   3
ENDBRANCH   1   2
BRANCH   1  15
HETATM   15  O   UNK N   1      25.892  28.739  -3.142  0.00  0.00    -0.351 OA
BRANCH  15  16
HETATM   16  C   UNK N   1      25.832  27.603  -3.876  0.00  0.00     0.068 A 
HETATM   17  C   UNK N   1      26.353  26.427  -3.334  0.00  0.00     0.038 A 
HETATM   18  C   UNK N   1      26.378  25.255  -4.088  0.00  0.00     0.018 A 
HETATM   19  C   UNK N   1      25.854  25.235  -5.387  0.00  0.00     0.015 A 
HETATM   20  C   UNK N   1      25.290  26.401  -5.922  0.00  0.00     0.018 A 
HETATM   21  C   UNK N   1      25.287  27.585  -5.174  0.00  0.00     0.038 A 
BRANCH  19  22
HETATM   22  C   UNK N   1      25.978  24.018  -6.208  0.00  0.00     0.148 A 
HETATM   23  N   UNK N   1      26.917  23.849  -7.046  0.00  0.00    -0.364 N 
HETATM   24  C   UNK N   1      26.729  22.621  -7.761  0.00  0.00     0.104 A 
ATOM     25  HN  UNK N   1      27.694  24.495  -7.188  1.00  0.00     0.162 HD
HETATM   26  C   UNK N   1      27.921  21.705  -7.573  0.00  0.00     0.034 C 
HETATM   27  C   UNK N   1      25.458  22.042  -7.100  0.00  0.00     0.202 A 
HETATM   28  O   UNK N   1      25.091  23.018  -6.194  0.00  0.00    -0.333 OA
ENDBRANCH  19  22
ENDBRANCH  15  16
ENDBRANCH   1  15
TORSDOF 10
ENDMDL
MODEL 2
REMARK VINA RESULT:      -6.0      2.148      2.644
REMARK  10 active torsions:
REMARK  status: ('A' for Active; 'I' for Inactive)
REMARK    1  A    between atoms: C_7  and  C_8 
REMARK    2  A    between atoms: C_8  and  C_9 
REMARK    3  A    between atoms: C_9  and  C_10 
REMARK    4  A    between atoms: C_10  and  C_11 
REMARK    5  A    between atoms: C_11  and  C_12 
REMARK    6  A    between atoms: C_12  and  C_13 
REMARK    7  A    between atoms: C_13  and  C_14 
REMARK    8  A    between atoms: C_14  and  O_15 
REMARK    9  A    between atoms: O_15  and  C_16 
REMARK   10  A    between atoms: C_19  and  C_22 
ROOT
HETATM    1  C   UNK N   1      27.183  29.469  -2.965  0.00  0.00     0.175 C 
ENDROOT
BRANCH   1   2
HETATM    2  C   UNK N   1      26.755  30.723  -3.704  0.00  0.00     0.027 C 
BRANCH   2   3
HETATM    3  C   UNK N   1      27.722  31.017  -4.838  0.00  0.00     0.002 C 
BRANCH   3   4
HETATM    4  C   UNK N   1      28.066  29.733  -5.577  0.00  0.00     0.000 C 
BRANCH   4   5
HETATM    5  C   UNK N   1      29.130  29.996  -6.628  0.00  0.00     0.000 C 
BRANCH   5   6
HETATM    6  C   UNK N   1      28.991  29.038  -7.801  0.00  0.00     0.007 C 
BRANCH   6   7
HETATM    7  C   UNK N   1      27.872  28.044  -7.536  0.00  0.00     0.067 C 
BRANCH   7   8
HETATM    8  C   UNK N   1      28.412  26.659  -7.407  0.00  0.00     0.078 A 
HETATM    9  O   UNK N   1      28.245  25.717  -8.302  0.00  0.00    -0.242 OA
HETATM   10  N   UNK N   1      28.817  24.611  -7.918  0.00  0.00    -0.266 N 
HETATM   11  C   UNK N   1      29.375  24.853  -6.719  0.00  0.00     0.031 A 
ATOM     12  HN  UNK N   1      28.837  23.729  -8.429  1.00  0.00     0.194 HD
HETATM   13  C   UNK N   1      30.131  23.844  -5.932  0.00  0.00     0.070 C 
HETATM   14  C   UNK N   1      29.141  26.159  -6.345  0.00  0.00     0.061 A 
ENDBRANCH   7   8
ENDBRANCH   6   7
ENDBRANCH   5   6
ENDBRANCH   4   5
ENDBRANCH   3   4
ENDBRANCH   2   3
ENDBRANCH   1   2
BRANCH   1  15
HETATM   15  O   UNK N   1      26.126  28.598  -2.830  0.00  0.00    -0.351 OA
BRANCH  15  16
HETATM   16  C   UNK N   1      25.899  27.569  -3.679  0.00  0.00     0.068 A 
HETATM   17  C   UNK N   1      26.458  26.323  -3.386  0.00  0.00     0.038 A 
HETATM   18  C   UNK N   1      26.311  25.259  -4.273  0.00  0.00     0.018 A 
HETATM   19  C   UNK N   1      25.576  25.416  -5.456  0.00  0.00     0.015 A 
HETATM   20  C   UNK N   1      24.976  26.652  -5.736  0.00  0.00     0.018 A 
HETATM   21  C   UNK N   1      25.144  27.728  -4.856  0.00  0.00     0.038 A 
BRANCH  19  22
HETATM   22  C   UNK N   1      25.513  24.314  -6.431  0.00  0.00     0.148 A 
HETATM   23  N   UNK N   1      25.698  23.100  -6.106  0.00  0.00    -0.364 N 
HETATM   24  C   UNK N   1      25.669  22.265  -7.270  0.00  0.00     0.104 A 
ATOM     25  HN  UNK N   1      25.845  22.768  -5.153  1.00  0.00     0.162 HD
HETATM   26  C   UNK N   1      24.586  21.213  -7.146  0.00  0.00     0.034 C 
HETATM   27  C   UNK N   1      25.353  23.275  -8.397  0.00  0.00     0.202 A 
HETATM   28  O   UNK N   1      25.320  24.491  -7.741  0.00  0.00    -0.333 OA
ENDBRANCH  19  22
ENDBRANCH  15  16
ENDBRANCH   1  15
TORSDOF 10
ENDMDL
MODEL 3
REMARK VINA RESULT:      -5.8      2.100      6.367
REMARK  10 active torsions:
REMARK  status: ('A' for Active; 'I' for Inactive)
REMARK    1  A    between atoms: C_7  and  C_8 
REMARK    2  A    between atoms: C_8  and  C_9 
REMARK    3  A    between atoms: C_9  and  C_10 
REMARK    4  A    between atoms: C_10  and  C_11 
REMARK    5  A    between atoms: C_11  and  C_12 
REMARK    6  A    between atoms: C_12  and  C_13 
REMARK    7  A    between atoms: C_13  and  C_14 
REMARK    8  A    between atoms: C_14  and  O_15 
REMARK    9  A    between atoms: O_15  and  C_16 
REMARK   10  A    between atoms: C_19  and  C_22 
ROOT
HETATM    1  C   UNK N   1      31.799  21.788  -3.016  0.00  0.00     0.175 C 
ENDROOT
BRANCH   1   2
HETATM    2  C   UNK N   1      31.054  20.645  -3.678  0.00  0.00     0.027 C 
BRANCH   2   3
HETATM    3  C   UNK N   1      31.481  20.515  -5.130  0.00  0.00     0.002 C 
BRANCH   3   4
HETATM    4  C   UNK N   1      31.318  21.847  -5.844  0.00  0.00     0.000 C 
BRANCH   4   5
HETATM    5  C   UNK N   1      30.713  21.639  -7.221  0.00  0.00     0.000 C 
BRANCH   5   6
HETATM    6  C   UNK N   1      29.211  21.415  -7.133  0.00  0.00     0.007 C 
BRANCH   6   7
HETATM    7  C   UNK N   1      28.588  22.412  -6.169  0.00  0.00     0.067 C 
BRANCH   7   8
HETATM    8  C   UNK N   1      27.431  23.110  -6.804  0.00  0.00     0.078 A 
HETATM    9  O   UNK N   1      26.194  23.017  -6.382  0.00  0.00    -0.242 OA
HETATM   10  N   UNK N   1      25.398  23.723  -7.134  0.00  0.00    -0.266 N 
HETATM   11  C   UNK N   1      26.159  24.294  -8.084  0.00  0.00     0.031 A 
ATOM     12  HN  UNK N   1      24.390  23.824  -7.023  1.00  0.00     0.194 HD
HETATM   13  C   UNK N   1      25.632  25.188  -9.149  0.00  0.00     0.070 C 
HETATM   14  C   UNK N   1      27.477  23.928  -7.916  0.00  0.00     0.061 A 
ENDBRANCH   7   8
ENDBRANCH   6   7
ENDBRANCH   5   6
ENDBRANCH   4   5
ENDBRANCH   3   4
ENDBRANCH   2   3
ENDBRANCH   1   2
BRANCH   1  15
HETATM   15  O   UNK N   1      30.955  22.514  -2.205  0.00  0.00    -0.351 OA
BRANCH  15  16
HETATM   16  C   UNK N   1      29.972  23.311  -2.683  0.00  0.00     0.068 A 
HETATM   17  C   UNK N   1      30.325  24.421  -3.454  0.00  0.00     0.038 A 
HETATM   18  C   UNK N   1      29.346  25.307  -3.902  0.00  0.00     0.018 A 
HETATM   19  C   UNK N   1      27.995  25.080  -3.610  0.00  0.00     0.015 A 
HETATM   20  C   UNK N   1      27.630  23.945  -2.874  0.00  0.00     0.018 A 
HETATM   21  C   UNK N   1      28.614  23.068  -2.404  0.00  0.00     0.038 A 
BRANCH  19  22
HETATM   22  C   UNK N   1      26.984  26.077  -4.003  0.00  0.00     0.148 A 
HETATM   23  N   UNK N   1      26.697  27.082  -3.282  0.00  0.00    -0.364 N 
HETATM   24  C   UNK N   1      25.618  27.822  -3.869  0.00  0.00     0.104 A 
ATOM     25  HN  UNK N   1      27.167  27.328  -2.411  1.00  0.00     0.162 HD
HETATM   26  C   UNK N   1      26.039  29.250  -4.146  0.00  0.00     0.034 C 
HETATM   27  C   UNK N   1      25.355  27.044  -5.179  0.00  0.00     0.202 A 
HETATM   28  O   UNK N   1      26.239  25.984  -5.108  0.00  0.00    -0.333 OA
ENDBRANCH  19  22
ENDBRANCH  15  16
ENDBRANCH   1  15
TORSDOF 10
ENDMDL
MODEL 4
REMARK VINA RESULT:      -5.5      2.312      5.640
REMARK  10 active torsions:
REMARK  status: ('A' for Active; 'I' for Inactive)
REMARK    1  A    between atoms: C_7  and  C_8 
REMARK    2  A    between atoms: C_8  and  C_9 
REMARK    3  A    between atoms: C_9  and  C_10 
REMARK    4  A    between atoms: C_10  and  C_11 
REMARK    5  A    between atoms: C_11  and  C_12 
REMARK    6  A    between atoms: C_12  and  C_13 
REMARK    7  A    between atoms: C_13  and  C_14 
REMARK    8  A    between atoms: C_14  and  O_15 
REMARK    9  A    between atoms: O_15  and  C_16 
REMARK   10  A    between atoms: C_19  and  C_22 
ROOT
HETATM    1  C   UNK N   1      25.949  23.030  -6.395  0.00  0.00     0.175 C 
ENDROOT
BRANCH   1   2
HETATM    2  C   UNK N   1      27.035  23.156  -7.446  0.00  0.00     0.027 C 
BRANCH   2   3
HETATM    3  C   UNK N   1      28.299  22.455  -6.977  0.00  0.00     0.002 C 
BRANCH   3   4
HETATM    4  C   UNK N   1      28.657  22.910  -5.571  0.00  0.00     0.000 C 
BRANCH   4   5
HETATM    5  C   UNK N   1      29.502  24.170  -5.621  0.00  0.00     0.000 C 
BRANCH   5   6
HETATM    6  C   UNK N   1      30.827  23.972  -4.901  0.00  0.00     0.007 C 
BRANCH   6   7
HETATM    7  C   UNK N   1      30.614  23.186  -3.618  0.00  0.00     0.067 C 
BRANCH   7   8
HETATM    8  C   UNK N   1      31.735  22.226  -3.393  0.00  0.00     0.078 A 
HETATM    9  O   UNK N   1      32.081  21.760  -2.218  0.00  0.00    -0.242 OA
HETATM   10  N   UNK N   1      33.097  20.953  -2.325  0.00  0.00    -0.266 N 
HETATM   11  C   UNK N   1      33.422  20.899  -3.628  0.00  0.00     0.031 A 
ATOM     12  HN  UNK N   1      33.560  20.456  -1.564  1.00  0.00     0.194 HD
HETATM   13  C   UNK N   1      34.535  20.082  -4.177  0.00  0.00     0.070 C 
HETATM   14  C   UNK N   1      32.575  21.704  -4.358  0.00  0.00     0.061 A 
ENDBRANCH   7   8
ENDBRANCH   6   7
ENDBRANCH   5   6
ENDBRANCH   4   5
ENDBRANCH   3   4
ENDBRANCH   2   3
ENDBRANCH   1   2
BRANCH   1  15
HETATM   15  O   UNK N   1      25.299  24.231  -6.219  0.00  0.00    -0.351 OA
BRANCH  15  16
HETATM   16  C   UNK N   1      25.879  25.308  -5.639  0.00  0.00     0.068 A 
HETATM   17  C   UNK N   1      26.266  25.220  -4.301  0.00  0.00     0.038 A 
HETATM   18  C   UNK N   1      26.797  26.332  -3.647  0.00  0.00     0.018 A 
HETATM   19  C   UNK N   1      26.976  27.540  -4.332  0.00  0.00     0.015 A 
HETATM   20  C   UNK N   1      26.629  27.623  -5.688  0.00  0.00     0.018 A 
HETATM   21  C   UNK N   1      26.074  26.515  -6.338  0.00  0.00     0.038 A 
BRANCH  19  22
HETATM   22  C   UNK N   1      27.443  28.733  -3.604  0.00  0.00     0.148 A 
HETATM   23  N   UNK N   1      27.282  28.878  -2.353  0.00  0.00    -0.364 N 
HETATM   24  C   UNK N   1      27.750  30.168  -1.939  0.00  0.00     0.104 A 
ATOM     25  HN  UNK N   1      26.877  28.177  -1.732  1.00  0.00     0.162 HD
HETATM   26  C   UNK N   1      28.835  30.031  -0.891  0.00  0.00     0.034 C 
HETATM   27  C   UNK N   1      28.304  30.759  -3.255  0.00  0.00     0.202 A 
HETATM   28  O   UNK N   1      28.016  29.786  -4.193  0.00  0.00    -0.333 OA
ENDBRANCH  19  22
ENDBRANCH  15  16
ENDBRANCH   1  15
TORSDOF 10
ENDMDL
MODEL 5
REMARK VINA RESULT:      -5.5      2.097      4.616
REMARK  10 active torsions:
REMARK  status: ('A' for Active; 'I' for Inactive)
REMARK    1  A    between atoms: C_7  and  C_8 
REMARK    2  A    between atoms: C_8  and  C_9 
REMARK    3  A    between atoms: C_9  and  C_10 
REMARK    4  A    between atoms: C_10  and  C_11 
REMARK    5  A    between atoms: C_11  and  C_12 
REMARK    6  A    between atoms: C_12  and  C_13 
REMARK    7  A    between atoms: C_13  and  C_14 
REMARK    8  A    between atoms: C_14  and  O_15 
REMARK    9  A    between atoms: O_15  and  C_16 
REMARK   10  A    between atoms: C_19  and  C_22 
ROOT
HETATM    1  C   UNK N   1      25.570  27.780  -4.653  0.00  0.00     0.175 C 
ENDROOT
BRANCH   1   2
HETATM    2  C   UNK N   1      25.044  26.876  -5.751  0.00  0.00     0.027 C 
BRANCH   2   3
HETATM    3  C   UNK N   1      25.945  26.955  -6.971  0.00  0.00     0.002 C 
BRANCH   3   4
HETATM    4  C   UNK N   1      26.074  25.584  -7.616  0.00  0.00     0.000 C 
BRANCH   4   5
HETATM    5  C   UNK N   1      25.564  24.507  -6.676  0.00  0.00     0.000 C 
BRANCH   5   6
HETATM    6  C   UNK N   1      26.422  23.254  -6.760  0.00  0.00     0.007 C 
BRANCH   6   7
HETATM    7  C   UNK N   1      27.856  23.622  -7.104  0.00  0.00     0.067 C 
BRANCH   7   8
HETATM    8  C   UNK N   1      28.681  22.397  -7.314  0.00  0.00     0.078 A 
HETATM    9  O   UNK N   1      29.987  22.398  -7.423  0.00  0.00    -0.242 OA
HETATM   10  N   UNK N   1      30.434  21.189  -7.610  0.00  0.00    -0.266 N 
HETATM   11  C   UNK N   1      29.367  20.373  -7.625  0.00  0.00     0.031 A 
ATOM     12  HN  UNK N   1      31.409  20.914  -7.725  1.00  0.00     0.194 HD
HETATM   13  C   UNK N   1      29.445  18.901  -7.812  0.00  0.00     0.070 C 
HETATM   14  C   UNK N   1      28.212  21.103  -7.439  0.00  0.00     0.061 A 
ENDBRANCH   7   8
ENDBRANCH   6   7
ENDBRANCH   5   6
ENDBRANCH   4   5
ENDBRANCH   3   4
ENDBRANCH   2   3
ENDBRANCH   1   2
BRANCH   1  15
HETATM   15  O   UNK N   1      26.038  27.037  -3.593  0.00  0.00    -0.351 OA
BRANCH  15  16
HETATM   16  C   UNK N   1      27.037  26.130  -3.706  0.00  0.00     0.068 A 
HETATM   17  C   UNK N   1      26.795  24.814  -3.310  0.00  0.00     0.038 A 
HETATM   18  C   UNK N   1      27.819  23.869  -3.341  0.00  0.00     0.018 A 
HETATM   19  C   UNK N   1      29.095  24.220  -3.798  0.00  0.00     0.015 A 
HETATM   20  C   UNK N   1      29.334  25.529  -4.239  0.00  0.00     0.018 A 
HETATM   21  C   UNK N   1      28.313  26.484  -4.185  0.00  0.00     0.038 A 
BRANCH  19  22
HETATM   22  C   UNK N   1      30.193  23.240  -3.731  0.00  0.00     0.148 A 
HETATM   23  N   UNK N   1      29.996  22.005  -3.510  0.00  0.00    -0.364 N 
HETATM   24  C   UNK N   1      31.247  21.313  -3.408  0.00  0.00     0.104 A 
ATOM     25  HN  UNK N   1      29.078  21.569  -3.418  1.00  0.00     0.162 HD
HETATM   26  C   UNK N   1      31.333  20.210  -4.443  0.00  0.00     0.034 C 
HETATM   27  C   UNK N   1      32.272  22.436  -3.689  0.00  0.00     0.202 A 
HETATM   28  O   UNK N   1      31.486  23.562  -3.833  0.00  0.00    -0.333 OA
ENDBRANCH  19  22
ENDBRANCH  15  16
ENDBRANCH   1  15
TORSDOF 10
ENDMDL
MODEL 6
REMARK VINA RESULT:      -5.4     16.223     19.815
REMARK  10 active torsions:
REMARK  status: ('A' for Active; 'I' for Inactive)
REMARK    1  A    between atoms: C_7  and  C_8 
REMARK    2  A    between atoms: C_8  and  C_9 
REMARK    3  A    between atoms: C_9  and  C_10 
REMARK    4  A    between atoms: C_10  and  C_11 
REMARK    5  A    between atoms: C_11  and  C_12 
REMARK    6  A    between atoms: C_12  and  C_13 
REMARK    7  A    between atoms: C_13  and  C_14 
REMARK    8  A    between atoms: C_14  and  O_15 
REMARK    9  A    between atoms: O_15  and  C_16 
REMARK   10  A    between atoms: C_19  and  C_22 
ROOT
HETATM    1  C   UNK N   1      34.193  15.496   7.470  0.00  0.00     0.175 C 
ENDROOT
BRANCH   1   2
HETATM    2  C   UNK N   1      34.168  16.779   6.661  0.00  0.00     0.027 C 
BRANCH   2   3
HETATM    3  C   UNK N   1      33.512  17.889   7.463  0.00  0.00     0.002 C 
BRANCH   3   4
HETATM    4  C   UNK N   1      32.560  17.299   8.491  0.00  0.00     0.000 C 
BRANCH   4   5
HETATM    5  C   UNK N   1      31.141  17.772   8.233  0.00  0.00     0.000 C 
BRANCH   5   6
HETATM    6  C   UNK N   1      30.619  17.244   6.906  0.00  0.00     0.007 C 
BRANCH   6   7
HETATM    7  C   UNK N   1      29.127  16.968   7.002  0.00  0.00     0.067 C 
BRANCH   7   8
HETATM    8  C   UNK N   1      28.359  18.243   7.117  0.00  0.00     0.078 A 
HETATM    9  O   UNK N   1      27.879  18.715   8.242  0.00  0.00    -0.242 OA
HETATM   10  N   UNK N   1      27.247  19.836   8.037  0.00  0.00    -0.266 N 
HETATM   11  C   UNK N   1      27.322  20.095   6.721  0.00  0.00     0.031 A 
ATOM     12  HN  UNK N   1      26.783  20.407   8.743  1.00  0.00     0.194 HD
HETATM   13  C   UNK N   1      26.724  21.290   6.071  0.00  0.00     0.070 C 
HETATM   14  C   UNK N   1      28.027  19.097   6.083  0.00  0.00     0.061 A 
ENDBRANCH   7   8
ENDBRANCH   6   7
ENDBRANCH   5   6
ENDBRANCH   4   5
ENDBRANCH   3   4
ENDBRANCH   2   3
ENDBRANCH   1   2
BRANCH   1  15
HETATM   15  O   UNK N   1      35.444  15.279   8.001  0.00  0.00    -0.351 OA
BRANCH  15  16
HETATM   16  C   UNK N   1      35.662  15.054   9.318  0.00  0.00     0.068 A 
HETATM   17  C   UNK N   1      35.986  13.760   9.731  0.00  0.00     0.038 A 
HETATM   18  C   UNK N   1      36.143  13.472  11.086  0.00  0.00     0.018 A 
HETATM   19  C   UNK N   1      36.008  14.482  12.047  0.00  0.00     0.015 A 
HETATM   20  C   UNK N   1      35.725  15.792  11.636  0.00  0.00     0.018 A 
HETATM   21  C   UNK N   1      35.544  16.077  10.278  0.00  0.00     0.038 A 
BRANCH  19  22
HETATM   22  C   UNK N   1      36.077  14.145  13.480  0.00  0.00     0.148 A 
HETATM   23  N   UNK N   1      35.370  13.229  14.003  0.00  0.00    -0.364 N 
HETATM   24  C   UNK N   1      35.580  13.189  15.420  0.00  0.00     0.104 A 
ATOM     25  HN  UNK N   1      34.743  12.611  13.487  1.00  0.00     0.162 HD
HETATM   26  C   UNK N   1      36.082  11.826  15.847  0.00  0.00     0.034 C 
HETATM   27  C   UNK N   1      36.653  14.281  15.629  0.00  0.00     0.202 A 
HETATM   28  O   UNK N   1      36.834  14.803  14.363  0.00  0.00    -0.333 OA
ENDBRANCH  19  22
ENDBRANCH  15  16
ENDBRANCH   1  15
TORSDOF 10
ENDMDL
MODEL 7
REMARK VINA RESULT:      -5.4     12.597     15.478
REMARK  10 active torsions:
REMARK  status: ('A' for Active; 'I' for Inactive)
REMARK    1  A    between atoms: C_7  and  C_8 
REMARK    2  A    between atoms: C_8  and  C_9 
REMARK    3  A    between atoms: C_9  and  C_10 
REMARK    4  A    between atoms: C_10  and  C_11 
REMARK    5  A    between atoms: C_11  and  C_12 
REMARK    6  A    between atoms: C_12  and  C_13 
REMARK    7  A    between atoms: C_13  and  C_14 
REMARK    8  A    between atoms: C_14  and  O_15 
REMARK    9  A    between atoms: O_15  and  C_16 
REMARK   10  A    between atoms: C_19  and  C_22 
ROOT
HETATM    1  C   UNK N   1      27.471  20.418   6.619  0.00  0.00     0.175 C 
ENDROOT
BRANCH   1   2
HETATM    2  C   UNK N   1      26.282  20.695   5.717  0.00  0.00     0.027 C 
BRANCH   2   3
HETATM    3  C   UNK N   1      25.957  19.464   4.889  0.00  0.00     0.002 C 
BRANCH   3   4
HETATM    4  C   UNK N   1      25.963  19.813   3.410  0.00  0.00     0.000 C 
BRANCH   4   5
HETATM    5  C   UNK N   1      24.643  20.450   3.011  0.00  0.00     0.000 C 
BRANCH   5   6
HETATM    6  C   UNK N   1      23.465  19.672   3.576  0.00  0.00     0.007 C 
BRANCH   6   7
HETATM    7  C   UNK N   1      22.183  20.072   2.863  0.00  0.00     0.067 C 
BRANCH   7   8
HETATM    8  C   UNK N   1      21.151  19.001   2.991  0.00  0.00     0.078 A 
HETATM    9  O   UNK N   1      19.878  19.170   2.727  0.00  0.00    -0.242 OA
HETATM   10  N   UNK N   1      19.215  18.069   2.938  0.00  0.00    -0.266 N 
HETATM   11  C   UNK N   1      20.101  17.150   3.358  0.00  0.00     0.031 A 
ATOM     12  HN  UNK N   1      18.213  17.930   2.809  1.00  0.00     0.194 HD
HETATM   13  C   UNK N   1      19.749  15.750   3.708  0.00  0.00     0.070 C 
HETATM   14  C   UNK N   1      21.363  17.702   3.411  0.00  0.00     0.061 A 
ENDBRANCH   7   8
ENDBRANCH   6   7
ENDBRANCH   5   6
ENDBRANCH   4   5
ENDBRANCH   3   4
ENDBRANCH   2   3
ENDBRANCH   1   2
BRANCH   1  15
HETATM   15  O   UNK N   1      27.648  19.064   6.789  0.00  0.00    -0.351 OA
BRANCH  15  16
HETATM   16  C   UNK N   1      28.786  18.521   7.283  0.00  0.00     0.068 A 
HETATM   17  C   UNK N   1      29.491  17.612   6.493  0.00  0.00     0.038 A 
HETATM   18  C   UNK N   1      30.626  16.976   6.995  0.00  0.00     0.018 A 
HETATM   19  C   UNK N   1      31.088  17.262   8.286  0.00  0.00     0.015 A 
HETATM   20  C   UNK N   1      30.409  18.207   9.068  0.00  0.00     0.018 A 
HETATM   21  C   UNK N   1      29.257  18.828   8.574  0.00  0.00     0.038 A 
BRANCH  19  22
HETATM   22  C   UNK N   1      32.227  16.510   8.840  0.00  0.00     0.148 A 
HETATM   23  N   UNK N   1      33.402  16.989   8.897  0.00  0.00    -0.364 N 
HETATM   24  C   UNK N   1      34.316  16.004   9.394  0.00  0.00     0.104 A 
ATOM     25  HN  UNK N   1      33.657  17.940   8.629  1.00  0.00     0.162 HD
HETATM   26  C   UNK N   1      35.004  16.498  10.650  0.00  0.00     0.034 C 
HETATM   27  C   UNK N   1      33.386  14.806   9.691  0.00  0.00     0.202 A 
HETATM   28  O   UNK N   1      32.146  15.248   9.270  0.00  0.00    -0.333 OA
ENDBRANCH  19  22
ENDBRANCH  15  16
ENDBRANCH   1  15
TORSDOF 10
ENDMDL
MODEL 8
REMARK VINA RESULT:      -5.4      1.294      4.753
REMARK  10 active torsions:
REMARK  status: ('A' for Active; 'I' for Inactive)
REMARK    1  A    between atoms: C_7  and  C_8 
REMARK    2  A    between atoms: C_8  and  C_9 
REMARK    3  A    between atoms: C_9  and  C_10 
REMARK    4  A    between atoms: C_10  and  C_11 
REMARK    5  A    between atoms: C_11  and  C_12 
REMARK    6  A    between atoms: C_12  and  C_13 
REMARK    7  A    between atoms: C_13  and  C_14 
REMARK    8  A    between atoms: C_14  and  O_15 
REMARK    9  A    between atoms: O_15  and  C_16 
REMARK   10  A    between atoms: C_19  and  C_22 
ROOT
HETATM    1  C   UNK N   1      27.711  29.307  -5.433  0.00  0.00     0.175 C 
ENDROOT
BRANCH   1   2
HETATM    2  C   UNK N   1      26.932  29.403  -4.135  0.00  0.00     0.027 C 
BRANCH   2   3
HETATM    3  C   UNK N   1      25.765  28.432  -4.153  0.00  0.00     0.002 C 
BRANCH   3   4
HETATM    4  C   UNK N   1      26.148  27.141  -3.446  0.00  0.00     0.000 C 
BRANCH   4   5
HETATM    5  C   UNK N   1      26.060  25.967  -4.404  0.00  0.00     0.000 C 
BRANCH   5   6
HETATM    6  C   UNK N   1      25.108  26.264  -5.552  0.00  0.00     0.007 C 
BRANCH   6   7
HETATM    7  C   UNK N   1      25.773  25.946  -6.881  0.00  0.00     0.067 C 
BRANCH   7   8
HETATM    8  C   UNK N   1      26.014  24.480  -7.015  0.00  0.00     0.078 A 
HETATM    9  O   UNK N   1      25.170  23.556  -6.626  0.00  0.00    -0.242 OA
HETATM   10  N   UNK N   1      25.650  22.367  -6.858  0.00  0.00    -0.266 N 
HETATM   11  C   UNK N   1      26.860  22.534  -7.419  0.00  0.00     0.031 A 
ATOM     12  HN  UNK N   1      25.195  21.478  -6.652  1.00  0.00     0.194 HD
HETATM   13  C   UNK N   1      27.745  21.418  -7.841  0.00  0.00     0.070 C 
HETATM   14  C   UNK N   1      27.142  23.878  -7.541  0.00  0.00     0.061 A 
ENDBRANCH   7   8
ENDBRANCH   6   7
ENDBRANCH   5   6
ENDBRANCH   4   5
ENDBRANCH   3   4
ENDBRANCH   2   3
ENDBRANCH   1   2
BRANCH   1  15
HETATM   15  O   UNK N   1      29.031  29.002  -5.188  0.00  0.00    -0.351 OA
BRANCH  15  16
HETATM   16  C   UNK N   1      29.465  27.748  -4.920  0.00  0.00     0.068 A 
HETATM   17  C   UNK N   1      29.229  26.743  -5.860  0.00  0.00     0.038 A 
HETATM   18  C   UNK N   1      29.593  25.425  -5.589  0.00  0.00     0.018 A 
HETATM   19  C   UNK N   1      30.226  25.097  -4.383  0.00  0.00     0.015 A 
HETATM   20  C   UNK N   1      30.505  26.108  -3.453  0.00  0.00     0.018 A 
HETATM   21  C   UNK N   1      30.118  27.427  -3.715  0.00  0.00     0.038 A 
BRANCH  19  22
HETATM   22  C   UNK N   1      30.514  23.687  -4.067  0.00  0.00     0.148 A 
HETATM   23  N   UNK N   1      29.985  22.721  -4.700  0.00  0.00    -0.364 N 
HETATM   24  C   UNK N   1      30.376  21.472  -4.116  0.00  0.00     0.104 A 
ATOM     25  HN  UNK N   1      29.370  22.821  -5.508  1.00  0.00     0.162 HD
HETATM   26  C   UNK N   1      31.078  20.601  -5.137  0.00  0.00     0.034 C 
HETATM   27  C   UNK N   1      31.340  21.917  -2.992  0.00  0.00     0.202 A 
HETATM   28  O   UNK N   1      31.299  23.297  -3.059  0.00  0.00    -0.333 OA
ENDBRANCH  19  22
ENDBRANCH  15  16
ENDBRANCH   1  15
TORSDOF 10
ENDMDL
MODEL 9
REMARK VINA RESULT:      -5.4      1.668      2.063
REMARK  10 active torsions:
REMARK  status: ('A' for Active; 'I' for Inactive)
REMARK    1  A    between atoms: C_7  and  C_8 
REMARK    2  A    between atoms: C_8  and  C_9 
REMARK    3  A    between atoms: C_9  and  C_10 
REMARK    4  A    between atoms: C_10  and  C_11 
REMARK    5  A    between atoms: C_11  and  C_12 
REMARK    6  A    between atoms: C_12  and  C_13 
REMARK    7  A    between atoms: C_13  and  C_14 
REMARK    8  A    between atoms: C_14  and  O_15 
REMARK    9  A    between atoms: O_15  and  C_16 
REMARK   10  A    between atoms: C_19  and  C_22 
ROOT
HETATM    1  C   UNK N   1      27.625  29.839  -3.011  0.00  0.00     0.175 C 
ENDROOT
BRANCH   1   2
HETATM    2  C   UNK N   1      28.391  30.019  -1.714  0.00  0.00     0.027 C 
BRANCH   2   3
HETATM    3  C   UNK N   1      29.791  29.446  -1.850  0.00  0.00     0.002 C 
BRANCH   3   4
HETATM    4  C   UNK N   1      30.051  29.040  -3.292  0.00  0.00     0.000 C 
BRANCH   4   5
HETATM    5  C   UNK N   1      30.597  27.624  -3.353  0.00  0.00     0.000 C 
BRANCH   5   6
HETATM    6  C   UNK N   1      29.815  26.776  -4.344  0.00  0.00     0.007 C 
BRANCH   6   7
HETATM    7  C   UNK N   1      29.698  25.349  -3.834  0.00  0.00     0.067 C 
BRANCH   7   8
HETATM    8  C   UNK N   1      29.595  24.388  -4.971  0.00  0.00     0.078 A 
HETATM    9  O   UNK N   1      29.454  24.742  -6.225  0.00  0.00    -0.242 OA
HETATM   10  N   UNK N   1      29.382  23.693  -6.994  0.00  0.00    -0.266 N 
HETATM   11  C   UNK N   1      29.477  22.614  -6.198  0.00  0.00     0.031 A 
ATOM     12  HN  UNK N   1      29.272  23.691  -8.008  1.00  0.00     0.194 HD
HETATM   13  C   UNK N   1      29.440  21.211  -6.686  0.00  0.00     0.070 C 
HETATM   14  C   UNK N   1      29.614  23.009  -4.884  0.00  0.00     0.061 A 
ENDBRANCH   7   8
ENDBRANCH   6   7
ENDBRANCH   5   6
ENDBRANCH   4   5
ENDBRANCH   3   4
ENDBRANCH   2   3
ENDBRANCH   1   2
BRANCH   1  15
HETATM   15  O   UNK N   1      26.600  28.934  -2.850  0.00  0.00    -0.351 OA
BRANCH  15  16
HETATM   16  C   UNK N   1      26.355  27.929  -3.723  0.00  0.00     0.068 A 
HETATM   17  C   UNK N   1      26.282  26.623  -3.235  0.00  0.00     0.038 A 
HETATM   18  C   UNK N   1      26.106  25.553  -4.111  0.00  0.00     0.018 A 
HETATM   19  C   UNK N   1      25.971  25.776  -5.487  0.00  0.00     0.015 A 
HETATM   20  C   UNK N   1      26.000  27.089  -5.979  0.00  0.00     0.018 A 
HETATM   21  C   UNK N   1      26.200  28.162  -5.103  0.00  0.00     0.038 A 
BRANCH  19  22
HETATM   22  C   UNK N   1      25.887  24.632  -6.411  0.00  0.00     0.148 A 
HETATM   23  N   UNK N   1      25.932  23.426  -6.013  0.00  0.00    -0.364 N 
HETATM   24  C   UNK N   1      25.922  22.534  -7.135  0.00  0.00     0.104 A 
ATOM     25  HN  UNK N   1      25.969  23.136  -5.036  1.00  0.00     0.162 HD
HETATM   26  C   UNK N   1      24.740  21.590  -7.055  0.00  0.00     0.034 C 
HETATM   27  C   UNK N   1      25.794  23.503  -8.331  0.00  0.00     0.202 A 
HETATM   28  O   UNK N   1      25.819  24.752  -7.740  0.00  0.00    -0.333 OA
ENDBRANCH  19  22
ENDBRANCH  15  16
ENDBRANCH   1  15
TORSDOF 10
ENDMDL
