MODEL 1
REMARK VINA RESULT:      -6.3      0.000      0.000
REMARK  6 active torsions:
REMARK  status: ('A' for Active; 'I' for Inactive)
REMARK    1  A    between atoms: C_4  and  C_8 
REMARK    2  A    between atoms: C_8  and  C_9 
REMARK    3  A    between atoms: C_9  and  C_10 
REMARK    4  A    between atoms: C_10  and  O_11 
REMARK    5  A    between atoms: O_11  and  C_12 
REMARK    6  A    between atoms: C_16  and  C_20 
ROOT
HETATM    1  C   UNK N   1      30.120  17.048   7.833  0.00  0.00     0.112 A 
HETATM    2  C   UNK N   1      29.495  18.251   8.223  0.00  0.00     0.070 A 
HETATM    3 Cl   UNK N   1      29.783  18.932   9.817  0.00  0.00    -0.081 Cl
HETATM    4  C   UNK N   1      28.623  18.915   7.356  0.00  0.00     0.042 A 
HETATM    5  C   UNK N   1      28.365  18.401   6.083  0.00  0.00     0.018 A 
HETATM    6  C   UNK N   1      28.983  17.222   5.682  0.00  0.00     0.042 A 
HETATM    7  C   UNK N   1      29.851  16.534   6.526  0.00  0.00     0.070 A 
HETATM    8 Cl   UNK N   1      30.545  15.061   5.862  0.00  0.00    -0.081 Cl
ENDROOT
BRANCH   1   9
HETATM    9  O   UNK N   1      30.949  16.446   8.731  0.00  0.00    -0.348 OA
BRANCH   9  10
HETATM   10  C   UNK N   1      32.318  16.363   8.646  0.00  0.00     0.176 C 
BRANCH  10  11
HETATM   11  C   UNK N   1      32.897  17.722   8.301  0.00  0.00     0.033 C 
BRANCH  11  12
HETATM   12  C   UNK N   1      34.136  17.552   7.434  0.00  0.00     0.069 C 
BRANCH  12  13
HETATM   13  C   UNK N   1      33.811  17.069   6.057  0.00  0.00     0.078 A 
HETATM   14  C   UNK N   1      32.977  17.675   5.134  0.00  0.00     0.061 A 
HETATM   15  C   UNK N   1      33.005  16.805   4.067  0.00  0.00     0.031 A 
HETATM   16  C   UNK N   1      32.264  16.971   2.791  0.00  0.00     0.070 C 
HETATM   17  N   UNK N   1      33.803  15.759   4.352  0.00  0.00    -0.266 N 
HETATM   18  O   UNK N   1      34.269  15.948   5.549  0.00  0.00    -0.242 OA
ATOM     19  HN  UNK N   1      34.004  14.967   3.741  1.00  0.00     0.194 HD
ENDBRANCH  12  13
ENDBRANCH  11  12
ENDBRANCH  10  11
ENDBRANCH   9  10
ENDBRANCH   1   9
BRANCH   5  20
HETATM   20  C   UNK N   1      27.437  19.073   5.160  0.00  0.00     0.148 A 
HETATM   21  N   UNK N   1      27.811  19.698   4.121  0.00  0.00    -0.368 N 
HETATM   22  C   UNK N   1      26.674  20.251   3.440  0.00  0.00     0.148 A 
ATOM     23  HN  UNK N   1      28.779  19.794   3.815  1.00  0.00     0.161 HD
HETATM   24  C   UNK N   1      25.498  19.797   4.333  0.00  0.00     0.197 A 
HETATM   25  O   UNK N   1      26.114  19.090   5.343  0.00  0.00    -0.334 OA
ENDBRANCH   5  20
TORSDOF 6
ENDMDL
MODEL 2
REMARK VINA RESULT:      -6.1      3.773      7.739
REMARK  6 active torsions:
REMARK  status: ('A' for Active; 'I' for Inactive)
REMARK    1  A    between atoms: C_4  and  C_8 
REMARK    2  A    between atoms: C_8  and  C_9 
REMARK    3  A    between atoms: C_9  and  C_10 
REMARK    4  A    between atoms: C_10  and  O_11 
REMARK    5  A    between atoms: O_11  and  C_12 
REMARK    6  A    between atoms: C_16  and  C_20 
ROOT
HETATM    1  C   UNK N   1      34.793  16.106   7.214  0.00  0.00     0.112 A 
HETATM    2  C   UNK N   1      34.555  16.923   8.339  0.00  0.00     0.070 A 
HETATM    3 Cl   UNK N   1      34.091  18.606   8.141  0.00  0.00    -0.081 Cl
HETATM    4  C   UNK N   1      34.700  16.413   9.632  0.00  0.00     0.042 A 
HETATM    5  C   UNK N   1      35.074  15.082   9.830  0.00  0.00     0.018 A 
HETATM    6  C   UNK N   1      35.300  14.263   8.728  0.00  0.00     0.042 A 
HETATM    7  C   UNK N   1      35.171  14.745   7.428  0.00  0.00     0.070 A 
HETATM    8 Cl   UNK N   1      35.495  13.578   6.153  0.00  0.00    -0.081 Cl
ENDROOT
BRANCH   1   9
HETATM    9  O   UNK N   1      34.646  16.670   5.982  0.00  0.00    -0.348 OA
BRANCH   9  10
HETATM   10  C   UNK N   1      33.720  16.315   5.030  0.00  0.00     0.176 C 
BRANCH  10  11
HETATM   11  C   UNK N   1      32.487  17.189   5.159  0.00  0.00     0.033 C 
BRANCH  11  12
HETATM   12  C   UNK N   1      31.322  16.367   5.692  0.00  0.00     0.069 C 
BRANCH  12  13
HETATM   13  C   UNK N   1      30.989  16.697   7.111  0.00  0.00     0.078 A 
HETATM   14  C   UNK N   1      30.206  17.744   7.564  0.00  0.00     0.061 A 
HETATM   15  C   UNK N   1      30.259  17.606   8.934  0.00  0.00     0.031 A 
HETATM   16  C   UNK N   1      29.590  18.488   9.923  0.00  0.00     0.070 C 
HETATM   17  N   UNK N   1      31.026  16.547   9.256  0.00  0.00    -0.266 N 
HETATM   18  O   UNK N   1      31.446  16.026   8.144  0.00  0.00    -0.242 OA
ATOM     19  HN  UNK N   1      31.236  16.217  10.199  1.00  0.00     0.194 HD
ENDBRANCH  12  13
ENDBRANCH  11  12
ENDBRANCH  10  11
ENDBRANCH   9  10
ENDBRANCH   1   9
BRANCH   5  20
HETATM   20  C   UNK N   1      35.249  14.528  11.182  0.00  0.00     0.148 A 
HETATM   21  N   UNK N   1      34.685  13.465  11.582  0.00  0.00    -0.368 N 
HETATM   22  C   UNK N   1      35.046  13.198  12.946  0.00  0.00     0.148 A 
ATOM     23  HN  UNK N   1      34.065  12.884  11.018  1.00  0.00     0.161 HD
HETATM   24  C   UNK N   1      35.985  14.377  13.279  0.00  0.00     0.197 A 
HETATM   25  O   UNK N   1      36.015  15.106  12.110  0.00  0.00    -0.334 OA
ENDBRANCH   5  20
TORSDOF 6
ENDMDL
MODEL 3
REMARK VINA RESULT:      -6.0      9.559     12.824
REMARK  6 active torsions:
REMARK  status: ('A' for Active; 'I' for Inactive)
REMARK    1  A    between atoms: C_4  and  C_8 
REMARK    2  A    between atoms: C_8  and  C_9 
REMARK    3  A    between atoms: C_9  and  C_10 
REMARK    4  A    between atoms: C_10  and  O_11 
REMARK    5  A    between atoms: O_11  and  C_12 
REMARK    6  A    between atoms: C_16  and  C_20 
ROOT
HETATM    1  C   UNK N   1      34.810  12.347  15.721  0.00  0.00     0.112 A 
HETATM    2  C   UNK N   1      34.503  11.004  15.420  0.00  0.00     0.070 A 
HETATM    3 Cl   UNK N   1      34.008  10.540  13.800  0.00  0.00    -0.081 Cl
HETATM    4  C   UNK N   1      34.573  10.018  16.409  0.00  0.00     0.042 A 
HETATM    5  C   UNK N   1      34.957  10.350  17.711  0.00  0.00     0.018 A 
HETATM    6  C   UNK N   1      35.272  11.669  18.017  0.00  0.00     0.042 A 
HETATM    7  C   UNK N   1      35.205  12.673  17.055  0.00  0.00     0.070 A 
HETATM    8 Cl   UNK N   1      35.636  14.285  17.611  0.00  0.00    -0.081 Cl
ENDROOT
BRANCH   1   9
HETATM    9  O   UNK N   1      34.709  13.259  14.713  0.00  0.00    -0.348 OA
BRANCH   9  10
HETATM   10  C   UNK N   1      35.751  13.791  13.992  0.00  0.00     0.176 C 
BRANCH  10  11
HETATM   11  C   UNK N   1      35.290  14.117  12.584  0.00  0.00     0.033 C 
BRANCH  11  12
HETATM   12  C   UNK N   1      36.030  15.343  12.067  0.00  0.00     0.069 C 
BRANCH  12  13
HETATM   13  C   UNK N   1      35.316  16.009  10.936  0.00  0.00     0.078 A 
HETATM   14  C   UNK N   1      34.330  15.462  10.132  0.00  0.00     0.061 A 
HETATM   15  C   UNK N   1      34.051  16.477   9.243  0.00  0.00     0.031 A 
HETATM   16  C   UNK N   1      33.059  16.417   8.140  0.00  0.00     0.070 C 
HETATM   17  N   UNK N   1      34.827  17.544   9.511  0.00  0.00    -0.266 N 
HETATM   18  O   UNK N   1      35.570  17.231  10.528  0.00  0.00    -0.242 OA
ATOM     19  HN  UNK N   1      34.829  18.432   9.008  1.00  0.00     0.194 HD
ENDBRANCH  12  13
ENDBRANCH  11  12
ENDBRANCH  10  11
ENDBRANCH   9  10
ENDBRANCH   1   9
BRANCH   5  20
HETATM   20  C   UNK N   1      35.020   9.333  18.773  0.00  0.00     0.148 A 
HETATM   21  N   UNK N   1      35.781   9.423  19.785  0.00  0.00    -0.368 N 
HETATM   22  C   UNK N   1      35.621   8.271  20.627  0.00  0.00     0.148 A 
ATOM     23  HN  UNK N   1      36.415  10.200  19.972  1.00  0.00     0.161 HD
HETATM   24  C   UNK N   1      34.556   7.449  19.868  0.00  0.00     0.197 A 
HETATM   25  O   UNK N   1      34.285   8.219  18.757  0.00  0.00    -0.334 OA
ENDBRANCH   5  20
TORSDOF 6
ENDMDL
MODEL 4
REMARK VINA RESULT:      -6.0      9.716     11.452
REMARK  6 active torsions:
REMARK  status: ('A' for Active; 'I' for Inactive)
REMARK    1  A    between atoms: C_4  and  C_8 
REMARK    2  A    between atoms: C_8  and  C_9 
REMARK    3  A    between atoms: C_9  and  C_10 
REMARK    4  A    between atoms: C_10  and  O_11 
REMARK    5  A    between atoms: O_11  and  C_12 
REMARK    6  A    between atoms: C_16  and  C_20 
ROOT
HETATM    1  C   UNK N   1      20.383  14.269   7.148  0.00  0.00     0.112 A 
HETATM    2  C   UNK N   1      20.478  15.015   8.341  0.00  0.00     0.070 A 
HETATM    3 Cl   UNK N   1      19.717  16.593   8.472  0.00  0.00    -0.081 Cl
HETATM    4  C   UNK N   1      21.193  14.521   9.435  0.00  0.00     0.042 A 
HETATM    5  C   UNK N   1      21.818  13.274   9.367  0.00  0.00     0.018 A 
HETATM    6  C   UNK N   1      21.722  12.523   8.200  0.00  0.00     0.042 A 
HETATM    7  C   UNK N   1      21.022  12.992   7.091  0.00  0.00     0.070 A 
HETATM    8 Cl   UNK N   1      21.001  11.917   5.699  0.00  0.00    -0.081 Cl
ENDROOT
BRANCH   1   9
HETATM    9  O   UNK N   1      19.681  14.814   6.115  0.00  0.00    -0.348 OA
BRANCH   9  10
HETATM   10  C   UNK N   1      20.211  15.344   4.963  0.00  0.00     0.176 C 
BRANCH  10  11
HETATM   11  C   UNK N   1      19.852  16.814   4.857  0.00  0.00     0.033 C 
BRANCH  11  12
HETATM   12  C   UNK N   1      21.117  17.647   4.711  0.00  0.00     0.069 C 
BRANCH  12  13
HETATM   13  C   UNK N   1      20.926  18.825   3.810  0.00  0.00     0.078 A 
HETATM   14  C   UNK N   1      21.006  18.842   2.429  0.00  0.00     0.061 A 
HETATM   15  C   UNK N   1      20.788  20.166   2.118  0.00  0.00     0.031 A 
HETATM   16  C   UNK N   1      20.776  20.747   0.752  0.00  0.00     0.070 C 
HETATM   17  N   UNK N   1      20.595  20.873   3.247  0.00  0.00    -0.266 N 
HETATM   18  O   UNK N   1      20.684  20.042   4.239  0.00  0.00    -0.242 OA
ATOM     19  HN  UNK N   1      20.414  21.876   3.309  1.00  0.00     0.194 HD
ENDBRANCH  12  13
ENDBRANCH  11  12
ENDBRANCH  10  11
ENDBRANCH   9  10
ENDBRANCH   1   9
BRANCH   5  20
HETATM   20  C   UNK N   1      22.591  12.740  10.500  0.00  0.00     0.148 A 
HETATM   21  N   UNK N   1      23.859  12.706  10.529  0.00  0.00    -0.368 N 
HETATM   22  C   UNK N   1      24.309  12.118  11.760  0.00  0.00     0.148 A 
ATOM     23  HN  UNK N   1      24.470  13.047   9.787  1.00  0.00     0.161 HD
HETATM   24  C   UNK N   1      22.981  11.802  12.483  0.00  0.00     0.197 A 
HETATM   25  O   UNK N   1      22.019  12.234  11.595  0.00  0.00    -0.334 OA
ENDBRANCH   5  20
TORSDOF 6
ENDMDL
MODEL 5
REMARK VINA RESULT:      -6.0      8.323     11.613
REMARK  6 active torsions:
REMARK  status: ('A' for Active; 'I' for Inactive)
REMARK    1  A    between atoms: C_4  and  C_8 
REMARK    2  A    between atoms: C_8  and  C_9 
REMARK    3  A    between atoms: C_9  and  C_10 
REMARK    4  A    between atoms: C_10  and  O_11 
REMARK    5  A    between atoms: O_11  and  C_12 
REMARK    6  A    between atoms: C_16  and  C_20 
ROOT
HETATM    1  C   UNK N   1      35.159  12.649  13.760  0.00  0.00     0.112 A 
HETATM    2  C   UNK N   1      34.534  11.433  14.106  0.00  0.00     0.070 A 
HETATM    3 Cl   UNK N   1      33.700  10.478  12.890  0.00  0.00    -0.081 Cl
HETATM    4  C   UNK N   1      34.553  10.972  15.426  0.00  0.00     0.042 A 
HETATM    5  C   UNK N   1      35.201  11.707  16.422  0.00  0.00     0.018 A 
HETATM    6  C   UNK N   1      35.830  12.902  16.091  0.00  0.00     0.042 A 
HETATM    7  C   UNK N   1      35.822  13.390  14.787  0.00  0.00     0.070 A 
HETATM    8 Cl   UNK N   1      36.664  14.915  14.543  0.00  0.00    -0.081 Cl
ENDROOT
BRANCH   1   9
HETATM    9  O   UNK N   1      35.092  13.046  12.458  0.00  0.00    -0.348 OA
BRANCH   9  10
HETATM   10  C   UNK N   1      36.117  13.008  11.543  0.00  0.00     0.176 C 
BRANCH  10  11
HETATM   11  C   UNK N   1      36.363  14.397  10.986  0.00  0.00     0.033 C 
BRANCH  11  12
HETATM   12  C   UNK N   1      35.151  15.281  11.242  0.00  0.00     0.069 C 
BRANCH  12  13
HETATM   13  C   UNK N   1      34.918  16.267  10.143  0.00  0.00     0.078 A 
HETATM   14  C   UNK N   1      34.288  16.035   8.933  0.00  0.00     0.061 A 
HETATM   15  C   UNK N   1      34.378  17.252   8.295  0.00  0.00     0.031 A 
HETATM   16  C   UNK N   1      33.862  17.562   6.937  0.00  0.00     0.070 C 
HETATM   17  N   UNK N   1      35.020  18.135   9.083  0.00  0.00    -0.266 N 
HETATM   18  O   UNK N   1      35.329  17.514  10.180  0.00  0.00    -0.242 OA
ATOM     19  HN  UNK N   1      35.225  19.109   8.859  1.00  0.00     0.194 HD
ENDBRANCH  12  13
ENDBRANCH  11  12
ENDBRANCH  10  11
ENDBRANCH   9  10
ENDBRANCH   1   9
BRANCH   5  20
HETATM   20  C   UNK N   1      35.219  11.251  17.821  0.00  0.00     0.148 A 
HETATM   21  N   UNK N   1      35.331  12.035  18.812  0.00  0.00    -0.368 N 
HETATM   22  C   UNK N   1      35.329  11.286  20.037  0.00  0.00     0.148 A 
ATOM     23  HN  UNK N   1      35.411  13.050  18.748  1.00  0.00     0.161 HD
HETATM   24  C   UNK N   1      35.183   9.832  19.538  0.00  0.00     0.197 A 
HETATM   25  O   UNK N   1      35.130   9.965  18.167  0.00  0.00    -0.334 OA
ENDBRANCH   5  20
TORSDOF 6
ENDMDL
MODEL 6
REMARK VINA RESULT:      -6.0      2.471      7.652
REMARK  6 active torsions:
REMARK  status: ('A' for Active; 'I' for Inactive)
REMARK    1  A    between atoms: C_4  and  C_8 
REMARK    2  A    between atoms: C_8  and  C_9 
REMARK    3  A    between atoms: C_9  and  C_10 
REMARK    4  A    between atoms: C_10  and  O_11 
REMARK    5  A    between atoms: O_11  and  C_12 
REMARK    6  A    between atoms: C_16  and  C_20 
ROOT
HETATM    1  C   UNK N   1      29.462  17.713   6.569  0.00  0.00     0.112 A 
HETATM    2  C   UNK N   1      29.545  17.806   7.973  0.00  0.00     0.070 A 
HETATM    3 Cl   UNK N   1      28.184  18.397   8.913  0.00  0.00    -0.081 Cl
HETATM    4  C   UNK N   1      30.718  17.446   8.643  0.00  0.00     0.042 A 
HETATM    5  C   UNK N   1      31.824  16.978   7.930  0.00  0.00     0.018 A 
HETATM    6  C   UNK N   1      31.750  16.871   6.545  0.00  0.00     0.042 A 
HETATM    7  C   UNK N   1      30.598  17.229   5.850  0.00  0.00     0.070 A 
HETATM    8 Cl   UNK N   1      30.675  17.032   4.104  0.00  0.00    -0.081 Cl
ENDROOT
BRANCH   1   9
HETATM    9  O   UNK N   1      28.294  18.093   5.978  0.00  0.00    -0.348 OA
BRANCH   9  10
HETATM   10  C   UNK N   1      28.026  19.320   5.421  0.00  0.00     0.176 C 
BRANCH  10  11
HETATM   11  C   UNK N   1      27.261  19.142   4.123  0.00  0.00     0.033 C 
BRANCH  11  12
HETATM   12  C   UNK N   1      26.391  20.364   3.862  0.00  0.00     0.069 C 
BRANCH  12  13
HETATM   13  C   UNK N   1      24.948  20.013   3.691  0.00  0.00     0.078 A 
HETATM   14  C   UNK N   1      24.017  20.670   2.905  0.00  0.00     0.061 A 
HETATM   15  C   UNK N   1      22.857  19.965   3.138  0.00  0.00     0.031 A 
HETATM   16  C   UNK N   1      21.528  20.257   2.544  0.00  0.00     0.070 C 
HETATM   17  N   UNK N   1      23.098  18.964   4.006  0.00  0.00    -0.266 N 
HETATM   18  O   UNK N   1      24.357  19.021   4.316  0.00  0.00    -0.242 OA
ATOM     19  HN  UNK N   1      22.418  18.288   4.355  1.00  0.00     0.194 HD
ENDBRANCH  12  13
ENDBRANCH  11  12
ENDBRANCH  10  11
ENDBRANCH   9  10
ENDBRANCH   1   9
BRANCH   5  20
HETATM   20  C   UNK N   1      33.075  16.609   8.611  0.00  0.00     0.148 A 
HETATM   21  N   UNK N   1      33.685  17.373   9.419  0.00  0.00    -0.368 N 
HETATM   22  C   UNK N   1      34.875  16.731   9.902  0.00  0.00     0.148 A 
ATOM     23  HN  UNK N   1      33.375  18.307   9.686  1.00  0.00     0.161 HD
HETATM   24  C   UNK N   1      34.835  15.367   9.180  0.00  0.00     0.197 A 
HETATM   25  O   UNK N   1      33.683  15.435   8.426  0.00  0.00    -0.334 OA
ENDBRANCH   5  20
TORSDOF 6
ENDMDL
MODEL 7
REMARK VINA RESULT:      -5.9      8.356     11.551
REMARK  6 active torsions:
REMARK  status: ('A' for Active; 'I' for Inactive)
REMARK    1  A    between atoms: C_4  and  C_8 
REMARK    2  A    between atoms: C_8  and  C_9 
REMARK    3  A    between atoms: C_9  and  C_10 
REMARK    4  A    between atoms: C_10  and  O_11 
REMARK    5  A    between atoms: O_11  and  C_12 
REMARK    6  A    between atoms: C_16  and  C_20 
ROOT
HETATM    1  C   UNK N   1      35.217  12.712  13.836  0.00  0.00     0.112 A 
HETATM    2  C   UNK N   1      35.854  13.408  14.884  0.00  0.00     0.070 A 
HETATM    3 Cl   UNK N   1      36.682  14.927  14.577  0.00  0.00    -0.081 Cl
HETATM    4  C   UNK N   1      35.852  12.896  16.185  0.00  0.00     0.042 A 
HETATM    5  C   UNK N   1      35.209  11.688  16.467  0.00  0.00     0.018 A 
HETATM    6  C   UNK N   1      34.568  10.997  15.444  0.00  0.00     0.042 A 
HETATM    7  C   UNK N   1      34.560  11.480  14.138  0.00  0.00     0.070 A 
HETATM    8 Cl   UNK N   1      33.705  10.483  12.968  0.00  0.00    -0.081 Cl
ENDROOT
BRANCH   1   9
HETATM    9  O   UNK N   1      35.268  13.262  12.590  0.00  0.00    -0.348 OA
BRANCH   9  10
HETATM   10  C   UNK N   1      36.265  13.081  11.661  0.00  0.00     0.176 C 
BRANCH  10  11
HETATM   11  C   UNK N   1      36.474  14.359  10.872  0.00  0.00     0.033 C 
BRANCH  11  12
HETATM   12  C   UNK N   1      35.444  15.399  11.288  0.00  0.00     0.069 C 
BRANCH  12  13
HETATM   13  C   UNK N   1      35.098  16.339  10.178  0.00  0.00     0.078 A 
HETATM   14  C   UNK N   1      34.439  16.033   9.000  0.00  0.00     0.061 A 
HETATM   15  C   UNK N   1      34.416  17.238   8.332  0.00  0.00     0.031 A 
HETATM   16  C   UNK N   1      33.827  17.476   6.991  0.00  0.00     0.070 C 
HETATM   17  N   UNK N   1      35.025  18.182   9.074  0.00  0.00    -0.266 N 
HETATM   18  O   UNK N   1      35.420  17.612  10.170  0.00  0.00    -0.242 OA
ATOM     19  HN  UNK N   1      35.151  19.163   8.820  1.00  0.00     0.194 HD
ENDBRANCH  12  13
ENDBRANCH  11  12
ENDBRANCH  10  11
ENDBRANCH   9  10
ENDBRANCH   1   9
BRANCH   5  20
HETATM   20  C   UNK N   1      35.208  11.119  17.824  0.00  0.00     0.148 A 
HETATM   21  N   UNK N   1      35.077   9.881  18.066  0.00  0.00    -0.368 N 
HETATM   22  C   UNK N   1      35.105   9.648  19.482  0.00  0.00     0.148 A 
ATOM     23  HN  UNK N   1      34.969   9.156  17.356  1.00  0.00     0.161 HD
HETATM   24  C   UNK N   1      35.290  11.072  20.050  0.00  0.00     0.197 A 
HETATM   25  O   UNK N   1      35.335  11.865  18.924  0.00  0.00    -0.334 OA
ENDBRANCH   5  20
TORSDOF 6
ENDMDL
MODEL 8
REMARK VINA RESULT:      -5.7      2.516      7.155
REMARK  6 active torsions:
REMARK  status: ('A' for Active; 'I' for Inactive)
REMARK    1  A    between atoms: C_4  and  C_8 
REMARK    2  A    between atoms: C_8  and  C_9 
REMARK    3  A    between atoms: C_9  and  C_10 
REMARK    4  A    between atoms: C_10  and  O_11 
REMARK    5  A    between atoms: O_11  and  C_12 
REMARK    6  A    between atoms: C_16  and  C_20 
ROOT
HETATM    1  C   UNK N   1      31.004  17.123   6.243  0.00  0.00     0.112 A 
HETATM    2  C   UNK N   1      32.370  16.917   5.962  0.00  0.00     0.070 A 
HETATM    3 Cl   UNK N   1      32.962  16.969   4.309  0.00  0.00    -0.081 Cl
HETATM    4  C   UNK N   1      33.277  16.652   6.992  0.00  0.00     0.042 A 
HETATM    5  C   UNK N   1      32.843  16.597   8.319  0.00  0.00     0.018 A 
HETATM    6  C   UNK N   1      31.499  16.809   8.610  0.00  0.00     0.042 A 
HETATM    7  C   UNK N   1      30.572  17.068   7.604  0.00  0.00     0.070 A 
HETATM    8 Cl   UNK N   1      28.916  17.311   8.145  0.00  0.00    -0.081 Cl
ENDROOT
BRANCH   1   9
HETATM    9  O   UNK N   1      30.172  17.364   5.190  0.00  0.00    -0.348 OA
BRANCH   9  10
HETATM   10  C   UNK N   1      29.120  16.576   4.788  0.00  0.00     0.176 C 
BRANCH  10  11
HETATM   11  C   UNK N   1      28.724  16.929   3.367  0.00  0.00     0.033 C 
BRANCH  11  12
HETATM   12  C   UNK N   1      27.286  17.426   3.338  0.00  0.00     0.069 C 
BRANCH  12  13
HETATM   13  C   UNK N   1      27.025  18.488   4.356  0.00  0.00     0.078 A 
HETATM   14  C   UNK N   1      27.571  19.759   4.396  0.00  0.00     0.061 A 
HETATM   15  C   UNK N   1      27.029  20.297   5.542  0.00  0.00     0.031 A 
HETATM   16  C   UNK N   1      27.294  21.659   6.072  0.00  0.00     0.070 C 
HETATM   17  N   UNK N   1      26.222  19.396   6.132  0.00  0.00    -0.266 N 
HETATM   18  O   UNK N   1      26.241  18.326   5.397  0.00  0.00    -0.242 OA
ATOM     19  HN  UNK N   1      25.694  19.530   6.995  1.00  0.00     0.194 HD
ENDBRANCH  12  13
ENDBRANCH  11  12
ENDBRANCH  10  11
ENDBRANCH   9  10
ENDBRANCH   1   9
BRANCH   5  20
HETATM   20  C   UNK N   1      33.775  16.302   9.419  0.00  0.00     0.148 A 
HETATM   21  N   UNK N   1      34.584  17.153   9.900  0.00  0.00    -0.368 N 
HETATM   22  C   UNK N   1      35.362  16.557  10.948  0.00  0.00     0.148 A 
ATOM     23  HN  UNK N   1      34.668  18.120   9.587  1.00  0.00     0.161 HD
HETATM   24  C   UNK N   1      34.817  15.113  10.988  0.00  0.00     0.197 A 
HETATM   25  O   UNK N   1      33.856  15.103  10.000  0.00  0.00    -0.334 OA
ENDBRANCH   5  20
TORSDOF 6
ENDMDL
MODEL 9
REMARK VINA RESULT:      -5.7      3.209      4.374
REMARK  6 active torsions:
REMARK  status: ('A' for Active; 'I' for Inactive)
REMARK    1  A    between atoms: C_4  and  C_8 
REMARK    2  A    between atoms: C_8  and  C_9 
REMARK    3  A    between atoms: C_9  and  C_10 
REMARK    4  A    between atoms: C_10  and  O_11 
REMARK    5  A    between atoms: O_11  and  C_12 
REMARK    6  A    between atoms: C_16  and  C_20 
ROOT
HETATM    1  C   UNK N   1      31.352  17.183   6.639  0.00  0.00     0.112 A 
HETATM    2  C   UNK N   1      30.223  17.152   7.482  0.00  0.00     0.070 A 
HETATM    3 Cl   UNK N   1      30.405  16.931   9.216  0.00  0.00    -0.081 Cl
HETATM    4  C   UNK N   1      28.935  17.282   6.954  0.00  0.00     0.042 A 
HETATM    5  C   UNK N   1      28.750  17.453   5.580  0.00  0.00     0.018 A 
HETATM    6  C   UNK N   1      29.857  17.496   4.739  0.00  0.00     0.042 A 
HETATM    7  C   UNK N   1      31.150  17.362   5.236  0.00  0.00     0.070 A 
HETATM    8 Cl   UNK N   1      32.434  17.438   4.036  0.00  0.00    -0.081 Cl
ENDROOT
BRANCH   1   9
HETATM    9  O   UNK N   1      32.578  17.038   7.219  0.00  0.00    -0.348 OA
BRANCH   9  10
HETATM   10  C   UNK N   1      33.500  18.035   7.431  0.00  0.00     0.176 C 
BRANCH  10  11
HETATM   11  C   UNK N   1      34.433  17.642   8.560  0.00  0.00     0.033 C 
BRANCH  11  12
HETATM   12  C   UNK N   1      33.950  16.353   9.209  0.00  0.00     0.069 C 
BRANCH  12  13
HETATM   13  C   UNK N   1      34.883  15.858  10.266  0.00  0.00     0.078 A 
HETATM   14  C   UNK N   1      34.590  14.979  11.294  0.00  0.00     0.061 A 
HETATM   15  C   UNK N   1      35.779  14.896  11.985  0.00  0.00     0.031 A 
HETATM   16  C   UNK N   1      36.021  14.083  13.203  0.00  0.00     0.070 C 
HETATM   17  N   UNK N   1      36.703  15.679  11.397  0.00  0.00    -0.266 N 
HETATM   18  O   UNK N   1      36.135  16.239  10.373  0.00  0.00    -0.242 OA
ATOM     19  HN  UNK N   1      37.669  15.807  11.701  1.00  0.00     0.194 HD
ENDBRANCH  12  13
ENDBRANCH  11  12
ENDBRANCH  10  11
ENDBRANCH   9  10
ENDBRANCH   1   9
BRANCH   5  20
HETATM   20  C   UNK N   1      27.403  17.574   4.998  0.00  0.00     0.148 A 
HETATM   21  N   UNK N   1      26.420  18.095   5.607  0.00  0.00    -0.368 N 
HETATM   22  C   UNK N   1      25.248  18.052   4.779  0.00  0.00     0.148 A 
ATOM     23  HN  UNK N   1      26.458  18.488   6.547  1.00  0.00     0.161 HD
HETATM   24  C   UNK N   1      25.770  17.368   3.497  0.00  0.00     0.197 A 
HETATM   25  O   UNK N   1      27.099  17.133   3.775  0.00  0.00    -0.334 OA
ENDBRANCH   5  20
TORSDOF 6
ENDMDL
