MODEL 1
REMARK VINA RESULT:      -6.6      0.000      0.000
REMARK  7 active torsions:
REMARK  status: ('A' for Active; 'I' for Inactive)
REMARK    1  A    between atoms: C_2  and  C_3 
REMARK    2  A    between atoms: C_3  and  C_4 
REMARK    3  A    between atoms: C_16  and  C_17 
REMARK    4  A    between atoms: C_19  and  S_20 
REMARK    5  A    between atoms: S_20  and  N_23 
REMARK    6  A    between atoms: C_25  and  O_26 
REMARK    7  A    between atoms: O_26  and  C_27 
ROOT
HETATM    1  C   UNK N   1      34.471  11.268  13.570  0.00  0.00     0.055 A 
HETATM    2  C   UNK N   1      34.948  12.433  13.037  0.00  0.00     0.092 A 
HETATM    3  N   UNK N   1      34.840  12.926  11.789  0.00  0.00    -0.338 N 
ATOM      4  HN  UNK N   1      34.338  12.410  11.066  1.00  0.00     0.167 HD
HETATM    5  N   UNK N   1      34.831  11.222  14.880  0.00  0.00    -0.300 N 
ATOM      6  HN  UNK N   1      34.615  10.473  15.537  1.00  0.00     0.187 HD
HETATM    7  N   UNK N   1      35.518  12.332  15.149  0.00  0.00    -0.289 N 
HETATM    8  C   UNK N   1      36.068  12.647  16.456  0.00  0.00     0.178 C 
HETATM    9  C   UNK N   1      35.597  13.077  14.029  0.00  0.00     0.147 A 
HETATM   10  C   UNK N   1      36.196  14.307  13.773  0.00  0.00     0.277 A 
HETATM   11  O   UNK N   1      36.792  14.920  14.639  0.00  0.00    -0.265 OA
HETATM   12  N   UNK N   1      36.092  14.820  12.494  0.00  0.00    -0.307 N 
HETATM   13  C   UNK N   1      35.415  14.135  11.510  0.00  0.00     0.122 A 
HETATM   14  H   UNK N   1      36.508  15.687  12.283  0.00  0.00     0.170 HD
ENDROOT
BRANCH  13  15
HETATM   15  C   UNK N   1      35.284  14.679  10.150  0.00  0.00     0.051 A 
HETATM   16  C   UNK N   1      34.854  16.019   9.924  0.00  0.00     0.051 A 
HETATM   17  C   UNK N   1      34.785  16.346   8.571  0.00  0.00     0.123 A 
HETATM   18  S   UNK N   1      35.237  15.009   7.700  0.00  0.00    -0.051 SA
HETATM   19  C   UNK N   1      35.539  13.973   8.967  0.00  0.00     0.125 A 
BRANCH  17  20
HETATM   20  S   UNK N   1      34.223  17.908   7.914  0.00  0.00     0.263 S 
HETATM   21  O   UNK N   1      35.041  19.120   8.382  0.00  0.00    -0.200 OA
HETATM   22  O   UNK N   1      34.342  17.985   6.385  0.00  0.00    -0.200 OA
BRANCH  20  23
HETATM   23  N   UNK N   1      32.541  18.328   8.244  0.00  0.00    -0.324 N 
HETATM   24  H   UNK N   1      32.217  19.111   8.812  0.00  0.00     0.169 HD
HETATM   25  H   UNK N   1      31.826  17.731   7.828  0.00  0.00     0.169 HD
ENDBRANCH  20  23
ENDBRANCH  17  20
BRANCH  19  26
HETATM   26  O   UNK N   1      35.931  12.683   8.890  0.00  0.00    -0.343 OA
BRANCH  26  27
HETATM   27  C   UNK N   1      37.253  12.320   8.817  0.00  0.00     0.172 C 
HETATM   28  C   UNK N   1      37.597  11.440  10.000  0.00  0.00     0.034 C 
ENDBRANCH  26  27
ENDBRANCH  19  26
ENDBRANCH  13  15
BRANCH   1  29
HETATM   29  C   UNK N   1      33.683  10.244  12.816  0.00  0.00     0.061 C 
BRANCH  29  30
HETATM   30  C   UNK N   1      34.543   9.219  12.111  0.00  0.00     0.002 C 
HETATM   31  C   UNK N   1      34.478   9.483  10.621  0.00  0.00     0.005 C 
ENDBRANCH  29  30
ENDBRANCH   1  29
TORSDOF 7
ENDMDL
MODEL 2
REMARK VINA RESULT:      -6.4     10.623     13.553
REMARK  7 active torsions:
REMARK  status: ('A' for Active; 'I' for Inactive)
REMARK    1  A    between atoms: C_2  and  C_3 
REMARK    2  A    between atoms: C_3  and  C_4 
REMARK    3  A    between atoms: C_16  and  C_17 
REMARK    4  A    between atoms: C_19  and  S_20 
REMARK    5  A    between atoms: S_20  and  N_23 
REMARK    6  A    between atoms: C_25  and  O_26 
REMARK    7  A    between atoms: O_26  and  C_27 
ROOT
HETATM    1  C   UNK N   1      28.079  18.460   6.586  0.00  0.00     0.055 A 
HETATM    2  C   UNK N   1      27.159  17.750   5.867  0.00  0.00     0.092 A 
HETATM    3  N   UNK N   1      25.878  18.038   5.568  0.00  0.00    -0.338 N 
ATOM      4  HN  UNK N   1      25.450  18.905   5.894  1.00  0.00     0.167 HD
HETATM    5  N   UNK N   1      29.241  17.756   6.601  0.00  0.00    -0.300 N 
ATOM      6  HN  UNK N   1      30.108  18.035   7.061  1.00  0.00     0.187 HD
HETATM    7  N   UNK N   1      29.043  16.634   5.909  0.00  0.00    -0.289 N 
HETATM    8  C   UNK N   1      30.064  15.623   5.696  0.00  0.00     0.178 C 
HETATM    9  C   UNK N   1      27.774  16.620   5.458  0.00  0.00     0.147 A 
HETATM   10  C   UNK N   1      27.069  15.693   4.696  0.00  0.00     0.277 A 
HETATM   11  O   UNK N   1      27.586  14.660   4.309  0.00  0.00    -0.265 OA
HETATM   12  N   UNK N   1      25.753  15.980   4.387  0.00  0.00    -0.307 N 
HETATM   13  C   UNK N   1      25.164  17.147   4.817  0.00  0.00     0.122 A 
HETATM   14  H   UNK N   1      25.230  15.340   3.852  0.00  0.00     0.170 HD
ENDROOT
BRANCH  13  15
HETATM   15  C   UNK N   1      23.770  17.470   4.480  0.00  0.00     0.051 A 
HETATM   16  C   UNK N   1      23.423  18.702   3.851  0.00  0.00     0.051 A 
HETATM   17  C   UNK N   1      22.054  18.827   3.621  0.00  0.00     0.123 A 
HETATM   18  S   UNK N   1      21.314  17.456   4.189  0.00  0.00    -0.051 SA
HETATM   19  C   UNK N   1      22.662  16.651   4.740  0.00  0.00     0.125 A 
BRANCH  17  20
HETATM   20  S   UNK N   1      21.253  20.258   2.916  0.00  0.00     0.263 S 
HETATM   21  O   UNK N   1      20.172  20.881   3.811  0.00  0.00    -0.200 OA
HETATM   22  O   UNK N   1      22.222  21.427   2.687  0.00  0.00    -0.200 OA
BRANCH  20  23
HETATM   23  N   UNK N   1      20.477  20.020   1.350  0.00  0.00    -0.324 N 
HETATM   24  H   UNK N   1      20.707  19.297   0.668  0.00  0.00     0.169 HD
HETATM   25  H   UNK N   1      19.726  20.665   1.103  0.00  0.00     0.169 HD
ENDBRANCH  20  23
ENDBRANCH  17  20
BRANCH  19  26
HETATM   26  O   UNK N   1      22.702  15.447   5.350  0.00  0.00    -0.343 OA
BRANCH  26  27
HETATM   27  C   UNK N   1      22.801  15.317   6.714  0.00  0.00     0.172 C 
HETATM   28  C   UNK N   1      21.414  15.330   7.320  0.00  0.00     0.034 C 
ENDBRANCH  26  27
ENDBRANCH  19  26
ENDBRANCH  13  15
BRANCH   1  29
HETATM   29  C   UNK N   1      27.821  19.787   7.229  0.00  0.00     0.061 C 
BRANCH  29  30
HETATM   30  C   UNK N   1      27.773  20.935   6.245  0.00  0.00     0.002 C 
HETATM   31  C   UNK N   1      26.404  21.577   6.327  0.00  0.00     0.005 C 
ENDBRANCH  29  30
ENDBRANCH   1  29
TORSDOF 7
ENDMDL
MODEL 3
REMARK VINA RESULT:      -6.3     12.832     16.076
REMARK  7 active torsions:
REMARK  status: ('A' for Active; 'I' for Inactive)
REMARK    1  A    between atoms: C_2  and  C_3 
REMARK    2  A    between atoms: C_3  and  C_4 
REMARK    3  A    between atoms: C_16  and  C_17 
REMARK    4  A    between atoms: C_19  and  S_20 
REMARK    5  A    between atoms: S_20  and  N_23 
REMARK    6  A    between atoms: C_25  and  O_26 
REMARK    7  A    between atoms: O_26  and  C_27 
ROOT
HETATM    1  C   UNK N   1      24.029  19.174   4.341  0.00  0.00     0.055 A 
HETATM    2  C   UNK N   1      22.973  18.397   4.727  0.00  0.00     0.092 A 
HETATM    3  N   UNK N   1      22.889  17.464   5.694  0.00  0.00    -0.338 N 
ATOM      4  HN  UNK N   1      23.697  17.243   6.276  1.00  0.00     0.167 HD
HETATM    5  N   UNK N   1      23.616  19.973   3.320  0.00  0.00    -0.300 N 
ATOM      6  HN  UNK N   1      24.185  20.662   2.828  1.00  0.00     0.187 HD
HETATM    7  N   UNK N   1      22.336  19.693   3.080  0.00  0.00    -0.289 N 
HETATM    8  C   UNK N   1      21.540  20.351   2.058  0.00  0.00     0.178 C 
HETATM    9  C   UNK N   1      21.934  18.729   3.933  0.00  0.00     0.147 A 
HETATM   10  C   UNK N   1      20.710  18.087   4.099  0.00  0.00     0.277 A 
HETATM   11  O   UNK N   1      19.749  18.357   3.403  0.00  0.00    -0.265 OA
HETATM   12  N   UNK N   1      20.616  17.128   5.088  0.00  0.00    -0.307 N 
HETATM   13  C   UNK N   1      21.698  16.821   5.883  0.00  0.00     0.122 A 
HETATM   14  H   UNK N   1      19.763  16.656   5.226  0.00  0.00     0.170 HD
ENDROOT
BRANCH  13  15
HETATM   15  C   UNK N   1      21.603  15.813   6.949  0.00  0.00     0.051 A 
HETATM   16  C   UNK N   1      22.710  14.979   7.283  0.00  0.00     0.051 A 
HETATM   17  C   UNK N   1      22.423  14.083   8.311  0.00  0.00     0.123 A 
HETATM   18  S   UNK N   1      20.849  14.324   8.773  0.00  0.00    -0.051 SA
HETATM   19  C   UNK N   1      20.462  15.551   7.718  0.00  0.00     0.125 A 
BRANCH  17  20
HETATM   20  S   UNK N   1      23.543  12.844   8.943  0.00  0.00     0.263 S 
HETATM   21  O   UNK N   1      23.229  11.415   8.479  0.00  0.00    -0.200 OA
HETATM   22  O   UNK N   1      24.987  13.051   8.463  0.00  0.00    -0.200 OA
BRANCH  20  23
HETATM   23  N   UNK N   1      23.676  12.743  10.700  0.00  0.00    -0.324 N 
HETATM   24  H   UNK N   1      24.320  12.148  11.221  0.00  0.00     0.169 HD
HETATM   25  H   UNK N   1      23.051  13.337  11.245  0.00  0.00     0.169 HD
ENDBRANCH  20  23
ENDBRANCH  17  20
BRANCH  19  26
HETATM   26  O   UNK N   1      19.269  16.173   7.592  0.00  0.00    -0.343 OA
BRANCH  26  27
HETATM   27  C   UNK N   1      18.672  16.835   8.636  0.00  0.00     0.172 C 
HETATM   28  C   UNK N   1      19.513  18.036   9.014  0.00  0.00     0.034 C 
ENDBRANCH  26  27
ENDBRANCH  19  26
ENDBRANCH  13  15
BRANCH   1  29
HETATM   29  C   UNK N   1      25.391  19.135   4.959  0.00  0.00     0.061 C 
BRANCH  29  30
HETATM   30  C   UNK N   1      26.111  20.465   4.919  0.00  0.00     0.002 C 
HETATM   31  C   UNK N   1      27.531  20.254   5.400  0.00  0.00     0.005 C 
ENDBRANCH  29  30
ENDBRANCH   1  29
TORSDOF 7
ENDMDL
MODEL 4
REMARK VINA RESULT:      -6.3      6.385     10.390
REMARK  7 active torsions:
REMARK  status: ('A' for Active; 'I' for Inactive)
REMARK    1  A    between atoms: C_2  and  C_3 
REMARK    2  A    between atoms: C_3  and  C_4 
REMARK    3  A    between atoms: C_16  and  C_17 
REMARK    4  A    between atoms: C_19  and  S_20 
REMARK    5  A    between atoms: S_20  and  N_23 
REMARK    6  A    between atoms: C_25  and  O_26 
REMARK    7  A    between atoms: O_26  and  C_27 
ROOT
HETATM    1  C   UNK N   1      26.983  19.029   5.169  0.00  0.00     0.055 A 
HETATM    2  C   UNK N   1      27.816  18.002   5.511  0.00  0.00     0.092 A 
HETATM    3  N   UNK N   1      29.137  18.003   5.773  0.00  0.00    -0.338 N 
ATOM      4  HN  UNK N   1      29.675  18.869   5.729  1.00  0.00     0.167 HD
HETATM    5  N   UNK N   1      25.729  18.527   5.018  0.00  0.00    -0.300 N 
ATOM      6  HN  UNK N   1      24.895  19.056   4.765  1.00  0.00     0.187 HD
HETATM    7  N   UNK N   1      25.787  17.217   5.259  0.00  0.00    -0.289 N 
HETATM    8  C   UNK N   1      24.637  16.331   5.202  0.00  0.00     0.178 C 
HETATM    9  C   UNK N   1      27.058  16.886   5.559  0.00  0.00     0.147 A 
HETATM   10  C   UNK N   1      27.649  15.668   5.885  0.00  0.00     0.277 A 
HETATM   11  O   UNK N   1      27.001  14.639   5.938  0.00  0.00    -0.265 OA
HETATM   12  N   UNK N   1      29.004  15.661   6.153  0.00  0.00    -0.307 N 
HETATM   13  C   UNK N   1      29.742  16.822   6.100  0.00  0.00     0.122 A 
HETATM   14  H   UNK N   1      29.449  14.813   6.383  0.00  0.00     0.170 HD
ENDROOT
BRANCH  13  15
HETATM   15  C   UNK N   1      31.181  16.828   6.399  0.00  0.00     0.051 A 
HETATM   16  C   UNK N   1      31.682  16.378   7.656  0.00  0.00     0.051 A 
HETATM   17  C   UNK N   1      33.069  16.468   7.751  0.00  0.00     0.123 A 
HETATM   18  S   UNK N   1      33.639  17.092   6.325  0.00  0.00    -0.051 SA
HETATM   19  C   UNK N   1      32.188  17.273   5.531  0.00  0.00     0.125 A 
BRANCH  17  20
HETATM   20  S   UNK N   1      34.033  16.060   9.198  0.00  0.00     0.263 S 
HETATM   21  O   UNK N   1      35.255  15.175   8.913  0.00  0.00    -0.200 OA
HETATM   22  O   UNK N   1      34.653  17.296   9.865  0.00  0.00    -0.200 OA
BRANCH  20  23
HETATM   23  N   UNK N   1      33.166  15.246  10.502  0.00  0.00    -0.324 N 
HETATM   24  H   UNK N   1      32.756  15.693  11.322  0.00  0.00     0.169 HD
HETATM   25  H   UNK N   1      33.066  14.234  10.429  0.00  0.00     0.169 HD
ENDBRANCH  20  23
ENDBRANCH  17  20
BRANCH  19  26
HETATM   26  O   UNK N   1      31.992  17.775   4.292  0.00  0.00    -0.343 OA
BRANCH  26  27
HETATM   27  C   UNK N   1      31.854  16.972   3.187  0.00  0.00     0.172 C 
HETATM   28  C   UNK N   1      33.163  16.262   2.917  0.00  0.00     0.034 C 
ENDBRANCH  26  27
ENDBRANCH  19  26
ENDBRANCH  13  15
BRANCH   1  29
HETATM   29  C   UNK N   1      27.408  20.455   5.004  0.00  0.00     0.061 C 
BRANCH  29  30
HETATM   30  C   UNK N   1      27.672  21.162   6.314  0.00  0.00     0.002 C 
HETATM   31  C   UNK N   1      26.342  21.570   6.914  0.00  0.00     0.005 C 
ENDBRANCH  29  30
ENDBRANCH   1  29
TORSDOF 7
ENDMDL
MODEL 5
REMARK VINA RESULT:      -6.2     11.749     14.402
REMARK  7 active torsions:
REMARK  status: ('A' for Active; 'I' for Inactive)
REMARK    1  A    between atoms: C_2  and  C_3 
REMARK    2  A    between atoms: C_3  and  C_4 
REMARK    3  A    between atoms: C_16  and  C_17 
REMARK    4  A    between atoms: C_19  and  S_20 
REMARK    5  A    between atoms: S_20  and  N_23 
REMARK    6  A    between atoms: C_25  and  O_26 
REMARK    7  A    between atoms: O_26  and  C_27 
ROOT
HETATM    1  C   UNK N   1      27.035  19.016   4.366  0.00  0.00     0.055 A 
HETATM    2  C   UNK N   1      26.328  17.882   4.652  0.00  0.00     0.092 A 
HETATM    3  N   UNK N   1      25.123  17.732   5.233  0.00  0.00    -0.338 N 
ATOM      4  HN  UNK N   1      24.587  18.545   5.538  1.00  0.00     0.167 HD
HETATM    5  N   UNK N   1      28.200  18.651   3.768  0.00  0.00    -0.300 N 
ATOM      6  HN  UNK N   1      28.931  19.281   3.439  1.00  0.00     0.187 HD
HETATM    7  N   UNK N   1      28.213  17.320   3.688  0.00  0.00    -0.289 N 
HETATM    8  C   UNK N   1      29.298  16.555   3.099  0.00  0.00     0.178 C 
HETATM    9  C   UNK N   1      27.075  16.841   4.228  0.00  0.00     0.147 A 
HETATM   10  C   UNK N   1      26.600  15.543   4.392  0.00  0.00     0.277 A 
HETATM   11  O   UNK N   1      27.243  14.577   4.025  0.00  0.00    -0.265 OA
HETATM   12  N   UNK N   1      25.365  15.380   4.989  0.00  0.00    -0.307 N 
HETATM   13  C   UNK N   1      24.630  16.469   5.403  0.00  0.00     0.122 A 
HETATM   14  H   UNK N   1      25.005  14.473   5.122  0.00  0.00     0.170 HD
ENDROOT
BRANCH  13  15
HETATM   15  C   UNK N   1      23.308  16.307   6.025  0.00  0.00     0.051 A 
HETATM   16  C   UNK N   1      23.038  15.242   6.934  0.00  0.00     0.051 A 
HETATM   17  C   UNK N   1      21.728  15.253   7.410  0.00  0.00     0.123 A 
HETATM   18  S   UNK N   1      20.944  16.537   6.714  0.00  0.00    -0.051 SA
HETATM   19  C   UNK N   1      22.198  17.133   5.797  0.00  0.00     0.125 A 
BRANCH  17  20
HETATM   20  S   UNK N   1      21.019  14.035   8.506  0.00  0.00     0.263 S 
HETATM   21  O   UNK N   1      19.626  14.401   9.038  0.00  0.00    -0.200 OA
HETATM   22  O   UNK N   1      20.779  12.685   7.816  0.00  0.00    -0.200 OA
BRANCH  20  23
HETATM   23  N   UNK N   1      21.970  13.633   9.937  0.00  0.00    -0.324 N 
HETATM   24  H   UNK N   1      22.587  14.266  10.447  0.00  0.00     0.169 HD
HETATM   25  H   UNK N   1      21.896  12.678  10.288  0.00  0.00     0.169 HD
ENDBRANCH  20  23
ENDBRANCH  17  20
BRANCH  19  26
HETATM   26  O   UNK N   1      22.167  18.195   4.964  0.00  0.00    -0.343 OA
BRANCH  26  27
HETATM   27  C   UNK N   1      21.740  18.095   3.663  0.00  0.00     0.172 C 
HETATM   28  C   UNK N   1      20.550  19.008   3.455  0.00  0.00     0.034 C 
ENDBRANCH  26  27
ENDBRANCH  19  26
ENDBRANCH  13  15
BRANCH   1  29
HETATM   29  C   UNK N   1      26.576  20.408   4.667  0.00  0.00     0.061 C 
BRANCH  29  30
HETATM   30  C   UNK N   1      27.340  21.066   5.794  0.00  0.00     0.002 C 
HETATM   31  C   UNK N   1      26.406  21.227   6.976  0.00  0.00     0.005 C 
ENDBRANCH  29  30
ENDBRANCH   1  29
TORSDOF 7
ENDMDL
MODEL 6
REMARK VINA RESULT:      -6.2      3.881      6.219
REMARK  7 active torsions:
REMARK  status: ('A' for Active; 'I' for Inactive)
REMARK    1  A    between atoms: C_2  and  C_3 
REMARK    2  A    between atoms: C_3  and  C_4 
REMARK    3  A    between atoms: C_16  and  C_17 
REMARK    4  A    between atoms: C_19  and  S_20 
REMARK    5  A    between atoms: S_20  and  N_23 
REMARK    6  A    between atoms: C_25  and  O_26 
REMARK    7  A    between atoms: O_26  and  C_27 
ROOT
HETATM    1  C   UNK N   1      35.398  14.175  10.146  0.00  0.00     0.055 A 
HETATM    2  C   UNK N   1      34.827  14.671   9.008  0.00  0.00     0.092 A 
HETATM    3  N   UNK N   1      33.593  15.170   8.802  0.00  0.00    -0.338 N 
ATOM      4  HN  UNK N   1      32.917  15.219   9.564  1.00  0.00     0.167 HD
HETATM    5  N   UNK N   1      36.672  13.800   9.852  0.00  0.00    -0.300 N 
ATOM      6  HN  UNK N   1      37.345  13.395  10.502  1.00  0.00     0.187 HD
HETATM    7  N   UNK N   1      36.881  14.057   8.561  0.00  0.00    -0.289 N 
HETATM    8  C   UNK N   1      38.134  13.796   7.875  0.00  0.00     0.178 C 
HETATM    9  C   UNK N   1      35.758  14.587   8.036  0.00  0.00     0.147 A 
HETATM   10  C   UNK N   1      35.451  15.024   6.751  0.00  0.00     0.277 A 
HETATM   11  O   UNK N   1      36.262  14.964   5.845  0.00  0.00    -0.265 OA
HETATM   12  N   UNK N   1      34.187  15.535   6.529  0.00  0.00    -0.307 N 
HETATM   13  C   UNK N   1      33.265  15.611   7.550  0.00  0.00     0.122 A 
HETATM   14  H   UNK N   1      33.940  15.849   5.629  0.00  0.00     0.170 HD
ENDROOT
BRANCH  13  15
HETATM   15  C   UNK N   1      31.923  16.167   7.329  0.00  0.00     0.051 A 
HETATM   16  C   UNK N   1      31.186  16.774   8.389  0.00  0.00     0.051 A 
HETATM   17  C   UNK N   1      29.934  17.233   7.986  0.00  0.00     0.123 A 
HETATM   18  S   UNK N   1      29.759  16.887   6.374  0.00  0.00    -0.051 SA
HETATM   19  C   UNK N   1      31.230  16.156   6.111  0.00  0.00     0.125 A 
BRANCH  17  20
HETATM   20  S   UNK N   1      28.715  17.981   9.055  0.00  0.00     0.263 S 
HETATM   21  O   UNK N   1      27.783  16.977   9.748  0.00  0.00    -0.200 OA
HETATM   22  O   UNK N   1      29.346  18.733  10.236  0.00  0.00    -0.200 OA
BRANCH  20  23
HETATM   23  N   UNK N   1      27.645  19.165   8.302  0.00  0.00    -0.324 N 
HETATM   24  H   UNK N   1      27.926  20.058   7.897  0.00  0.00     0.169 HD
HETATM   25  H   UNK N   1      26.652  18.935   8.269  0.00  0.00     0.169 HD
ENDBRANCH  20  23
ENDBRANCH  17  20
BRANCH  19  26
HETATM   26  O   UNK N   1      31.682  15.621   4.956  0.00  0.00    -0.343 OA
BRANCH  26  27
HETATM   27  C   UNK N   1      31.708  16.329   3.780  0.00  0.00     0.172 C 
HETATM   28  C   UNK N   1      32.657  17.499   3.921  0.00  0.00     0.034 C 
ENDBRANCH  26  27
ENDBRANCH  19  26
ENDBRANCH  13  15
BRANCH   1  29
HETATM   29  C   UNK N   1      34.716  14.081  11.474  0.00  0.00     0.061 C 
BRANCH  29  30
HETATM   30  C   UNK N   1      35.673  13.930  12.636  0.00  0.00     0.002 C 
HETATM   31  C   UNK N   1      35.399  12.603  13.312  0.00  0.00     0.005 C 
ENDBRANCH  29  30
ENDBRANCH   1  29
TORSDOF 7
ENDMDL
MODEL 7
REMARK VINA RESULT:      -6.2     11.301     14.704
REMARK  7 active torsions:
REMARK  status: ('A' for Active; 'I' for Inactive)
REMARK    1  A    between atoms: C_2  and  C_3 
REMARK    2  A    between atoms: C_3  and  C_4 
REMARK    3  A    between atoms: C_16  and  C_17 
REMARK    4  A    between atoms: C_19  and  S_20 
REMARK    5  A    between atoms: S_20  and  N_23 
REMARK    6  A    between atoms: C_25  and  O_26 
REMARK    7  A    between atoms: O_26  and  C_27 
ROOT
HETATM    1  C   UNK N   1      24.780  19.763   3.855  0.00  0.00     0.055 A 
HETATM    2  C   UNK N   1      24.060  18.704   4.336  0.00  0.00     0.092 A 
HETATM    3  N   UNK N   1      24.446  17.670   5.107  0.00  0.00    -0.338 N 
ATOM      4  HN  UNK N   1      25.412  17.589   5.424  1.00  0.00     0.167 HD
HETATM    5  N   UNK N   1      23.942  20.550   3.130  0.00  0.00    -0.300 N 
ATOM      6  HN  UNK N   1      24.193  21.414   2.650  1.00  0.00     0.187 HD
HETATM    7  N   UNK N   1      22.733  19.990   3.161  0.00  0.00    -0.289 N 
HETATM    8  C   UNK N   1      21.565  20.547   2.501  0.00  0.00     0.178 C 
HETATM    9  C   UNK N   1      22.796  18.860   3.893  0.00  0.00     0.147 A 
HETATM   10  C   UNK N   1      21.829  17.917   4.230  0.00  0.00     0.277 A 
HETATM   11  O   UNK N   1      20.677  18.020   3.850  0.00  0.00    -0.265 OA
HETATM   12  N   UNK N   1      22.216  16.852   5.019  0.00  0.00    -0.307 N 
HETATM   13  C   UNK N   1      23.516  16.732   5.458  0.00  0.00     0.122 A 
HETATM   14  H   UNK N   1      21.554  16.168   5.271  0.00  0.00     0.170 HD
ENDROOT
BRANCH  13  15
HETATM   15  C   UNK N   1      23.936  15.610   6.310  0.00  0.00     0.051 A 
HETATM   16  C   UNK N   1      22.984  14.818   7.018  0.00  0.00     0.051 A 
HETATM   17  C   UNK N   1      23.575  13.810   7.777  0.00  0.00     0.123 A 
HETATM   18  S   UNK N   1      25.217  13.915   7.575  0.00  0.00    -0.051 SA
HETATM   19  C   UNK N   1      25.261  15.213   6.535  0.00  0.00     0.125 A 
BRANCH  17  20
HETATM   20  S   UNK N   1      22.702  12.673   8.842  0.00  0.00     0.263 S 
HETATM   21  O   UNK N   1      21.210  12.521   8.513  0.00  0.00    -0.200 OA
HETATM   22  O   UNK N   1      23.225  11.234   8.729  0.00  0.00    -0.200 OA
BRANCH  20  23
HETATM   23  N   UNK N   1      22.762  13.027  10.570  0.00  0.00    -0.324 N 
HETATM   24  H   UNK N   1      22.001  12.901  11.237  0.00  0.00     0.169 HD
HETATM   25  H   UNK N   1      23.642  13.391  10.936  0.00  0.00     0.169 HD
ENDBRANCH  20  23
ENDBRANCH  17  20
BRANCH  19  26
HETATM   26  O   UNK N   1      26.357  15.805   6.013  0.00  0.00    -0.343 OA
BRANCH  26  27
HETATM   27  C   UNK N   1      27.301  16.423   6.796  0.00  0.00     0.172 C 
HETATM   28  C   UNK N   1      28.661  16.281   6.147  0.00  0.00     0.034 C 
ENDBRANCH  26  27
ENDBRANCH  19  26
ENDBRANCH  13  15
BRANCH   1  29
HETATM   29  C   UNK N   1      26.237  19.990   4.107  0.00  0.00     0.061 C 
BRANCH  29  30
HETATM   30  C   UNK N   1      26.514  20.818   5.343  0.00  0.00     0.002 C 
HETATM   31  C   UNK N   1      27.544  20.093   6.183  0.00  0.00     0.005 C 
ENDBRANCH  29  30
ENDBRANCH   1  29
TORSDOF 7
ENDMDL
MODEL 8
REMARK VINA RESULT:      -6.0     14.008     16.769
REMARK  7 active torsions:
REMARK  status: ('A' for Active; 'I' for Inactive)
REMARK    1  A    between atoms: C_2  and  C_3 
REMARK    2  A    between atoms: C_3  and  C_4 
REMARK    3  A    between atoms: C_16  and  C_17 
REMARK    4  A    between atoms: C_19  and  S_20 
REMARK    5  A    between atoms: S_20  and  N_23 
REMARK    6  A    between atoms: C_25  and  O_26 
REMARK    7  A    between atoms: O_26  and  C_27 
ROOT
HETATM    1  C   UNK N   1      20.628  16.165   2.199  0.00  0.00     0.055 A 
HETATM    2  C   UNK N   1      20.786  16.541   3.504  0.00  0.00     0.092 A 
HETATM    3  N   UNK N   1      20.901  15.791   4.616  0.00  0.00    -0.338 N 
ATOM      4  HN  UNK N   1      20.874  14.772   4.563  1.00  0.00     0.167 HD
HETATM    5  N   UNK N   1      20.571  17.290   1.438  0.00  0.00    -0.300 N 
ATOM      6  HN  UNK N   1      20.458  17.326   0.425  1.00  0.00     0.187 HD
HETATM    7  N   UNK N   1      20.689  18.337   2.255  0.00  0.00    -0.289 N 
HETATM    8  C   UNK N   1      20.681  19.719   1.807  0.00  0.00     0.178 C 
HETATM    9  C   UNK N   1      20.819  17.889   3.519  0.00  0.00     0.147 A 
HETATM   10  C   UNK N   1      20.971  18.559   4.730  0.00  0.00     0.277 A 
HETATM   11  O   UNK N   1      21.004  19.774   4.788  0.00  0.00    -0.265 OA
HETATM   12  N   UNK N   1      21.088  17.797   5.877  0.00  0.00    -0.307 N 
HETATM   13  C   UNK N   1      21.056  16.421   5.819  0.00  0.00     0.122 A 
HETATM   14  H   UNK N   1      21.193  18.244   6.748  0.00  0.00     0.170 HD
ENDROOT
BRANCH  13  15
HETATM   15  C   UNK N   1      21.195  15.601   7.031  0.00  0.00     0.051 A 
HETATM   16  C   UNK N   1      22.369  14.829   7.276  0.00  0.00     0.051 A 
HETATM   17  C   UNK N   1      22.309  14.114   8.470  0.00  0.00     0.123 A 
HETATM   18  S   UNK N   1      20.845  14.431   9.181  0.00  0.00    -0.051 SA
HETATM   19  C   UNK N   1      20.229  15.470   8.037  0.00  0.00     0.125 A 
BRANCH  17  20
HETATM   20  S   UNK N   1      23.564  12.993   9.066  0.00  0.00     0.263 S 
HETATM   21  O   UNK N   1      23.501  11.589   8.447  0.00  0.00    -0.200 OA
HETATM   22  O   UNK N   1      24.986  13.456   8.718  0.00  0.00    -0.200 OA
BRANCH  20  23
HETATM   23  N   UNK N   1      23.604  12.729  10.810  0.00  0.00    -0.324 N 
HETATM   24  H   UNK N   1      22.985  13.158  11.498  0.00  0.00     0.169 HD
HETATM   25  H   UNK N   1      24.312  12.085  11.164  0.00  0.00     0.169 HD
ENDBRANCH  20  23
ENDBRANCH  17  20
BRANCH  19  26
HETATM   26  O   UNK N   1      19.017  16.067   8.044  0.00  0.00    -0.343 OA
BRANCH  26  27
HETATM   27  C   UNK N   1      18.593  16.857   9.084  0.00  0.00     0.172 C 
HETATM   28  C   UNK N   1      19.440  18.109   9.140  0.00  0.00     0.034 C 
ENDBRANCH  26  27
ENDBRANCH  19  26
ENDBRANCH  13  15
BRANCH   1  29
HETATM   29  C   UNK N   1      20.542  14.750   1.722  0.00  0.00     0.061 C 
BRANCH  29  30
HETATM   30  C   UNK N   1      21.846  14.220   1.168  0.00  0.00     0.002 C 
HETATM   31  C   UNK N   1      21.586  12.860   0.553  0.00  0.00     0.005 C 
ENDBRANCH  29  30
ENDBRANCH   1  29
TORSDOF 7
ENDMDL
MODEL 9
REMARK VINA RESULT:      -6.0      2.168      4.065
REMARK  7 active torsions:
REMARK  status: ('A' for Active; 'I' for Inactive)
REMARK    1  A    between atoms: C_2  and  C_3 
REMARK    2  A    between atoms: C_3  and  C_4 
REMARK    3  A    between atoms: C_16  and  C_17 
REMARK    4  A    between atoms: C_19  and  S_20 
REMARK    5  A    between atoms: S_20  and  N_23 
REMARK    6  A    between atoms: C_25  and  O_26 
REMARK    7  A    between atoms: O_26  and  C_27 
ROOT
HETATM    1  C   UNK N   1      34.995   9.711  11.979  0.00  0.00     0.055 A 
HETATM    2  C   UNK N   1      34.571  10.730  11.173  0.00  0.00     0.092 A 
HETATM    3  N   UNK N   1      34.927  12.029  11.153  0.00  0.00    -0.338 N 
ATOM      4  HN  UNK N   1      35.616  12.390  11.813  1.00  0.00     0.167 HD
HETATM    5  N   UNK N   1      34.348   8.576  11.604  0.00  0.00    -0.300 N 
ATOM      6  HN  UNK N   1      34.461   7.653  12.023  1.00  0.00     0.187 HD
HETATM    7  N   UNK N   1      33.540   8.888  10.591  0.00  0.00    -0.289 N 
HETATM    8  C   UNK N   1      32.684   7.930   9.913  0.00  0.00     0.178 C 
HETATM    9  C   UNK N   1      33.667  10.202  10.322  0.00  0.00     0.147 A 
HETATM   10  C   UNK N   1      33.057  11.019   9.374  0.00  0.00     0.277 A 
HETATM   11  O   UNK N   1      32.235  10.583   8.589  0.00  0.00    -0.265 OA
HETATM   12  N   UNK N   1      33.415  12.353   9.349  0.00  0.00    -0.307 N 
HETATM   13  C   UNK N   1      34.346  12.853  10.231  0.00  0.00     0.122 A 
HETATM   14  H   UNK N   1      32.997  12.956   8.691  0.00  0.00     0.170 HD
ENDROOT
BRANCH  13  15
HETATM   15  C   UNK N   1      34.746  14.268  10.201  0.00  0.00     0.051 A 
HETATM   16  C   UNK N   1      34.232  15.166   9.219  0.00  0.00     0.051 A 
HETATM   17  C   UNK N   1      34.735  16.459   9.351  0.00  0.00     0.123 A 
HETATM   18  S   UNK N   1      35.782  16.471  10.636  0.00  0.00    -0.051 SA
HETATM   19  C   UNK N   1      35.651  14.873  11.083  0.00  0.00     0.125 A 
BRANCH  17  20
HETATM   20  S   UNK N   1      34.367  17.824   8.260  0.00  0.00     0.263 S 
HETATM   21  O   UNK N   1      35.199  19.086   8.528  0.00  0.00    -0.200 OA
HETATM   22  O   UNK N   1      34.684  17.510   6.791  0.00  0.00    -0.200 OA
BRANCH  20  23
HETATM   23  N   UNK N   1      32.689  18.370   8.240  0.00  0.00    -0.324 N 
HETATM   24  H   UNK N   1      32.284  19.091   8.836  0.00  0.00     0.169 HD
HETATM   25  H   UNK N   1      32.066  17.922   7.567  0.00  0.00     0.169 HD
ENDBRANCH  20  23
ENDBRANCH  17  20
BRANCH  19  26
HETATM   26  O   UNK N   1      36.306  14.250  12.087  0.00  0.00    -0.343 OA
BRANCH  26  27
HETATM   27  C   UNK N   1      36.081  14.550  13.408  0.00  0.00     0.172 C 
HETATM   28  C   UNK N   1      36.575  13.410  14.272  0.00  0.00     0.034 C 
ENDBRANCH  26  27
ENDBRANCH  19  26
ENDBRANCH  13  15
BRANCH   1  29
HETATM   29  C   UNK N   1      36.006   9.852  13.073  0.00  0.00     0.061 C 
BRANCH  29  30
HETATM   30  C   UNK N   1      35.606   9.160  14.357  0.00  0.00     0.002 C 
HETATM   31  C   UNK N   1      34.734  10.105  15.158  0.00  0.00     0.005 C 
ENDBRANCH  29  30
ENDBRANCH   1  29
TORSDOF 7
ENDMDL
