REMARK  7 active torsions:
REMARK  status: ('A' for Active; 'I' for Inactive)
REMARK    1  A    between atoms: C_2  and  C_3 
REMARK    2  A    between atoms: C_3  and  C_4 
REMARK    3  A    between atoms: C_16  and  C_17 
REMARK    4  A    between atoms: C_19  and  S_20 
REMARK    5  A    between atoms: S_20  and  N_23 
REMARK    6  A    between atoms: C_25  and  O_26 
REMARK    7  A    between atoms: O_26  and  C_27 
ROOT
HETATM    1  C   UNK N   1      -3.782   0.314  -0.086  0.00  0.00     0.055 A 
HETATM    2  C   UNK N   1      -2.504  -0.169  -0.049  0.00  0.00     0.092 A 
HETATM    3  N   UNK N   1      -1.327   0.485  -0.056  0.00  0.00    -0.338 N 
ATOM      4  HN  UNK N   1      -1.298   1.504  -0.095  1.00  0.00     0.167 HD
HETATM    5  N   UNK N   1      -4.636  -0.743  -0.049  0.00  0.00    -0.300 N 
ATOM      6  HN  UNK N   1      -5.655  -0.694  -0.062  1.00  0.00     0.187 HD
HETATM    7  N   UNK N   1      -3.902  -1.854   0.007  0.00  0.00    -0.289 N 
HETATM    8  C   UNK N   1      -4.462  -3.193   0.066  0.00  0.00     0.178 C 
HETATM    9  C   UNK N   1      -2.598  -1.514   0.005  0.00  0.00     0.147 A 
HETATM   10  C   UNK N   1      -1.438  -2.282   0.050  0.00  0.00     0.277 A 
HETATM   11  O   UNK N   1      -1.479  -3.498   0.098  0.00  0.00    -0.265 OA
HETATM   12  N   UNK N   1      -0.226  -1.619   0.041  0.00  0.00    -0.307 N 
HETATM   13  C   UNK N   1      -0.172  -0.244  -0.008  0.00  0.00     0.122 A 
HETATM   14  H   UNK N   1       0.611  -2.137   0.069  0.00  0.00     0.170 HD
ENDROOT
BRANCH  13  15
HETATM   15  C   UNK N   1       1.112   0.472  -0.002  0.00  0.00     0.051 A 
HETATM   16  C   UNK N   1       1.169   1.897  -0.015  0.00  0.00     0.051 A 
HETATM   17  C   UNK N   1       2.473   2.388  -0.015  0.00  0.00     0.123 A 
HETATM   18  S   UNK N   1       3.506   1.091  -0.007  0.00  0.00    -0.051 SA
HETATM   19  C   UNK N   1       2.377  -0.131  -0.000  0.00  0.00     0.125 A 
BRANCH  17  20
HETATM   20  S   UNK N   1       2.926   4.113  -0.098  0.00  0.00     0.263 S 
HETATM   21  O   UNK N   1       3.247   4.747   1.263  0.00  0.00    -0.200 OA
HETATM   22  O   UNK N   1       4.215   4.349  -0.898  0.00  0.00    -0.200 OA
BRANCH  20  23
HETATM   23  N   UNK N   1       1.744   5.190  -0.844  0.00  0.00    -0.324 N 
HETATM   24  H   UNK N   1       1.941   6.093  -1.276  0.00  0.00     0.169 HD
HETATM   25  H   UNK N   1       0.772   4.880  -0.844  0.00  0.00     0.169 HD
ENDBRANCH  20  23
ENDBRANCH  17  20
BRANCH  19  26
HETATM   26  O   UNK N   1       2.613  -1.461  -0.016  0.00  0.00    -0.343 OA
BRANCH  26  27
HETATM   27  C   UNK N   1       3.883  -1.981  -0.066  0.00  0.00     0.172 C 
HETATM   28  C   UNK N   1       3.803  -3.486  -0.204  0.00  0.00     0.034 C 
ENDBRANCH  26  27
ENDBRANCH  19  26
ENDBRANCH  13  15
BRANCH   1  29
HETATM   29  C   UNK N   1      -4.146   1.764  -0.149  0.00  0.00     0.061 C 
BRANCH  29  30
HETATM   30  C   UNK N   1      -5.638   2.012  -0.164  0.00  0.00     0.002 C 
HETATM   31  C   UNK N   1      -5.874   3.508  -0.152  0.00  0.00     0.005 C 
ENDBRANCH  29  30
ENDBRANCH   1  29
TORSDOF 7
