REMARK  6 active torsions:
REMARK  status: ('A' for Active; 'I' for Inactive)
REMARK    1  A    between atoms: C_4  and  N_29 
REMARK    2  A    between atoms: C_6  and  C_8 
REMARK       I    between atoms: C_8  and  N_10 
REMARK    3  A    between atoms: N_10  and  C_11 
REMARK    4  A    between atoms: N_17  and  C_18 
REMARK    5  A    between atoms: C_18  and  C_19 
REMARK    6  A    between atoms: C_19  and  C_20 
ROOT
HETATM    1  C   UNK N   1      -1.261  -1.468   0.004  0.00  0.00     0.037 A 
HETATM    2  C   UNK N   1      -1.214  -2.895   0.003  0.00  0.00     0.030 A 
HETATM    3  C   UNK N   1      -2.414  -3.654   0.000  0.00  0.00     0.016 A 
HETATM    4  C   UNK N   1      -3.627  -2.954  -0.001  0.00  0.00    -0.008 A 
HETATM    5  C   UNK N   1      -4.951  -3.370  -0.002  0.00  0.00     0.031 A 
HETATM    6  C   UNK N   1      -5.714  -2.180  -0.003  0.00  0.00     0.092 A 
HETATM    7  N   UNK N   1      -4.872  -1.125  -0.002  0.00  0.00    -0.356 N 
HETATM    8  C   UNK N   1      -3.633  -1.600  -0.001  0.00  0.00     0.046 A 
HETATM    9  C   UNK N   1      -2.486  -0.836   0.001  0.00  0.00     0.060 A 
ENDROOT
BRANCH   1  10
HETATM   10  N   UNK N   1      -0.114  -0.632   0.010  0.00  0.00    -0.323 N 
HETATM   11  C   UNK N   1       1.167  -1.049   0.014  0.00  0.00     0.256 C 
HETATM   12  O   UNK N   1       1.431  -2.243   0.013  0.00  0.00    -0.267 OA
HETATM   13  H   UNK N   1      -0.269   0.341   0.011  0.00  0.00     0.169 HD
BRANCH  11  14
HETATM   14  C   UNK N   1       2.264  -0.066   0.016  0.00  0.00     0.037 A 
HETATM   15  C   UNK N   1       3.556  -0.557   0.002  0.00  0.00     0.046 A 
HETATM   16  C   UNK N   1       4.665   0.279  -0.007  0.00  0.00     0.034 A 
HETATM   17  C   UNK N   1       4.467   1.672   0.001  0.00  0.00     0.071 A 
HETATM   18  C   UNK N   1       3.162   2.194   0.016  0.00  0.00     0.119 A 
HETATM   19  F   UNK N   1       2.970   3.537   0.019  0.00  0.00    -0.206 F 
HETATM   20  C   UNK N   1       2.057   1.325   0.022  0.00  0.00     0.059 A 
BRANCH  16  21
HETATM   21  N   UNK N   1       5.962  -0.312  -0.046  0.00  0.00    -0.377 N 
HETATM   22  C   UNK N   1       7.151   0.530  -0.043  0.00  0.00     0.149 C 
HETATM   23  C   UNK N   1       8.433  -0.287  -0.223  0.00  0.00     0.187 C 
HETATM   24  O   UNK N   1       8.347  -1.480   0.504  0.00  0.00    -0.388 OA
HETATM   25  C   UNK N   1       7.478  -2.275  -0.243  0.00  0.00     0.187 C 
HETATM   26  C   UNK N   1       6.055  -1.773  -0.055  0.00  0.00     0.149 C 
ENDBRANCH  16  21
ENDBRANCH  11  14
ENDBRANCH   1  10
BRANCH   7  27
HETATM   27  C   UNK N   1      -5.044   0.317  -0.002  0.00  0.00     0.133 C 
BRANCH  27  28
HETATM   28  C   UNK N   1      -6.381   1.011  -0.000  0.00  0.00     0.058 C 
BRANCH  28  29
HETATM   29  C   UNK N   1      -6.066   2.502   0.000  0.00  0.00    -0.054 A 
HETATM   30  C   UNK N   1      -7.102   3.436   0.001  0.00  0.00     0.024 A 
HETATM   31  C   UNK N   1      -6.797   4.804   0.001  0.00  0.00     0.088 A 
HETATM   32  N   UNK N   1      -5.502   5.226   0.000  0.00  0.00    -0.375 N 
HETATM   33  C   UNK N   1      -4.472   4.344   0.000  0.00  0.00     0.088 A 
ATOM     34  HN  UNK N   1      -5.303   6.226   0.000  1.00  0.00     0.164 HD
HETATM   35  C   UNK N   1      -4.733   2.979   0.000  0.00  0.00     0.024 A 
ENDBRANCH  28  29
ENDBRANCH  27  28
ENDBRANCH   7  27
TORSDOF 6
