MODEL 1
REMARK VINA RESULT:      -8.7      0.000      0.000
REMARK  6 active torsions:
REMARK  status: ('A' for Active; 'I' for Inactive)
REMARK    1  A    between atoms: C_4  and  N_29 
REMARK    2  A    between atoms: C_6  and  C_8 
REMARK       I    between atoms: C_8  and  N_10 
REMARK    3  A    between atoms: N_10  and  C_11 
REMARK    4  A    between atoms: N_17  and  C_18 
REMARK    5  A    between atoms: C_18  and  C_19 
REMARK    6  A    between atoms: C_19  and  C_20 
ROOT
HETATM    1  C   UNK N   1      26.085  19.078   4.891  0.00  0.00     0.037 A 
HETATM    2  C   UNK N   1      26.429  20.069   3.923  0.00  0.00     0.030 A 
HETATM    3  C   UNK N   1      25.436  20.613   3.066  0.00  0.00     0.016 A 
HETATM    4  C   UNK N   1      24.125  20.143   3.209  0.00  0.00    -0.008 A 
HETATM    5  C   UNK N   1      22.941  20.450   2.552  0.00  0.00     0.031 A 
HETATM    6  C   UNK N   1      21.959  19.634   3.159  0.00  0.00     0.092 A 
HETATM    7  N   UNK N   1      22.545  18.890   4.120  0.00  0.00    -0.356 N 
HETATM    8  C   UNK N   1      23.835  19.203   4.139  0.00  0.00     0.046 A 
HETATM    9  C   UNK N   1      24.776  18.657   4.985  0.00  0.00     0.060 A 
ENDROOT
BRANCH   1  10
HETATM   10  N   UNK N   1      27.011  18.479   5.784  0.00  0.00    -0.323 N 
HETATM   11  C   UNK N   1      27.520  19.049   6.893  0.00  0.00     0.256 C 
HETATM   12  O   UNK N   1      27.194  20.183   7.214  0.00  0.00    -0.267 OA
HETATM   13  H   UNK N   1      27.308  17.563   5.573  0.00  0.00     0.169 HD
BRANCH  11  14
HETATM   14  C   UNK N   1      28.475  18.306   7.734  0.00  0.00     0.037 A 
HETATM   15  C   UNK N   1      29.747  18.111   7.230  0.00  0.00     0.046 A 
HETATM   16  C   UNK N   1      30.729  17.434   7.941  0.00  0.00     0.034 A 
HETATM   17  C   UNK N   1      30.418  16.926   9.216  0.00  0.00     0.071 A 
HETATM   18  C   UNK N   1      29.130  17.111   9.748  0.00  0.00     0.119 A 
HETATM   19  F   UNK N   1      28.830  16.625  10.979  0.00  0.00    -0.206 F 
HETATM   20  C   UNK N   1      28.156  17.803   9.008  0.00  0.00     0.059 A 
BRANCH  16  21
HETATM   21  N   UNK N   1      32.022  17.300   7.356  0.00  0.00    -0.377 N 
HETATM   22  C   UNK N   1      32.167  17.226   5.908  0.00  0.00     0.149 C 
HETATM   23  C   UNK N   1      33.613  16.951   5.489  0.00  0.00     0.187 C 
HETATM   24  O   UNK N   1      34.494  17.673   6.303  0.00  0.00    -0.388 OA
HETATM   25  C   UNK N   1      34.485  16.982   7.515  0.00  0.00     0.187 C 
HETATM   26  C   UNK N   1      33.184  17.273   8.247  0.00  0.00     0.149 C 
ENDBRANCH  16  21
ENDBRANCH  11  14
ENDBRANCH   1  10
BRANCH   7  27
HETATM   27  C   UNK N   1      22.077  17.891   5.065  0.00  0.00     0.133 C 
BRANCH  27  28
HETATM   28  C   UNK N   1      21.251  18.201   6.286  0.00  0.00     0.058 C 
BRANCH  28  29
HETATM   29  C   UNK N   1      21.196  16.902   7.080  0.00  0.00    -0.054 A 
HETATM   30  C   UNK N   1      20.264  16.749   8.107  0.00  0.00     0.024 A 
HETATM   31  C   UNK N   1      20.225  15.548   8.829  0.00  0.00     0.088 A 
HETATM   32  N   UNK N   1      21.087  14.535   8.537  0.00  0.00    -0.375 N 
HETATM   33  C   UNK N   1      22.004  14.651   7.545  0.00  0.00     0.088 A 
ATOM     34  HN  UNK N   1      21.041  13.670   9.075  1.00  0.00     0.164 HD
HETATM   35  C   UNK N   1      22.074  15.826   6.806  0.00  0.00     0.024 A 
ENDBRANCH  28  29
ENDBRANCH  27  28
ENDBRANCH   7  27
TORSDOF 6
ENDMDL
MODEL 2
REMARK VINA RESULT:      -8.5      3.616      8.313
REMARK  6 active torsions:
REMARK  status: ('A' for Active; 'I' for Inactive)
REMARK    1  A    between atoms: C_4  and  N_29 
REMARK    2  A    between atoms: C_6  and  C_8 
REMARK       I    between atoms: C_8  and  N_10 
REMARK    3  A    between atoms: N_10  and  C_11 
REMARK    4  A    between atoms: N_17  and  C_18 
REMARK    5  A    between atoms: C_18  and  C_19 
REMARK    6  A    between atoms: C_19  and  C_20 
ROOT
HETATM    1  C   UNK N   1      22.981  18.208   5.090  0.00  0.00     0.037 A 
HETATM    2  C   UNK N   1      22.358  18.855   3.980  0.00  0.00     0.030 A 
HETATM    3  C   UNK N   1      23.118  19.682   3.111  0.00  0.00     0.016 A 
HETATM    4  C   UNK N   1      24.483  19.833   3.384  0.00  0.00    -0.008 A 
HETATM    5  C   UNK N   1      25.493  20.549   2.757  0.00  0.00     0.031 A 
HETATM    6  C   UNK N   1      26.657  20.294   3.517  0.00  0.00     0.092 A 
HETATM    7  N   UNK N   1      26.337  19.469   4.537  0.00  0.00    -0.356 N 
HETATM    8  C   UNK N   1      25.040  19.203   4.445  0.00  0.00     0.046 A 
HETATM    9  C   UNK N   1      24.329  18.394   5.306  0.00  0.00     0.060 A 
ENDROOT
BRANCH   1  10
HETATM   10  N   UNK N   1      22.299  17.369   6.009  0.00  0.00    -0.323 N 
HETATM   11  C   UNK N   1      21.337  17.757   6.869  0.00  0.00     0.256 C 
HETATM   12  O   UNK N   1      20.975  18.925   6.909  0.00  0.00    -0.267 OA
HETATM   13  H   UNK N   1      22.552  16.417   6.020  0.00  0.00     0.169 HD
BRANCH  11  14
HETATM   14  C   UNK N   1      20.709  16.774   7.769  0.00  0.00     0.037 A 
HETATM   15  C   UNK N   1      21.459  15.668   8.122  0.00  0.00     0.046 A 
HETATM   16  C   UNK N   1      20.970  14.684   8.972  0.00  0.00     0.034 A 
HETATM   17  C   UNK N   1      19.668  14.816   9.487  0.00  0.00     0.071 A 
HETATM   18  C   UNK N   1      18.886  15.932   9.140  0.00  0.00     0.119 A 
HETATM   19  F   UNK N   1      17.632  16.062   9.640  0.00  0.00    -0.206 F 
HETATM   20  C   UNK N   1      19.407  16.915   8.281  0.00  0.00     0.059 A 
BRANCH  16  21
HETATM   21  N   UNK N   1      21.820  13.589   9.304  0.00  0.00    -0.377 N 
HETATM   22  C   UNK N   1      21.506  12.736  10.443  0.00  0.00     0.149 C 
HETATM   23  C   UNK N   1      22.606  11.707  10.710  0.00  0.00     0.187 C 
HETATM   24  O   UNK N   1      23.096  11.204   9.499  0.00  0.00    -0.388 OA
HETATM   25  C   UNK N   1      23.886  12.236   8.993  0.00  0.00     0.187 C 
HETATM   26  C   UNK N   1      22.984  13.335   8.453  0.00  0.00     0.149 C 
ENDBRANCH  16  21
ENDBRANCH  11  14
ENDBRANCH   1  10
BRANCH   7  27
HETATM   27  C   UNK N   1      27.077  18.863   5.629  0.00  0.00     0.133 C 
BRANCH  27  28
HETATM   28  C   UNK N   1      28.385  18.134   5.465  0.00  0.00     0.058 C 
BRANCH  28  29
HETATM   29  C   UNK N   1      28.959  18.007   6.871  0.00  0.00    -0.054 A 
HETATM   30  C   UNK N   1      28.283  18.563   7.956  0.00  0.00     0.024 A 
HETATM   31  C   UNK N   1      28.824  18.439   9.243  0.00  0.00     0.088 A 
HETATM   32  N   UNK N   1      30.000  17.781   9.441  0.00  0.00    -0.375 N 
HETATM   33  C   UNK N   1      30.682  17.228   8.407  0.00  0.00     0.088 A 
ATOM     34  HN  UNK N   1      30.375  17.702  10.386  1.00  0.00     0.164 HD
HETATM   35  C   UNK N   1      30.178  17.330   7.116  0.00  0.00     0.024 A 
ENDBRANCH  28  29
ENDBRANCH  27  28
ENDBRANCH   7  27
TORSDOF 6
ENDMDL
MODEL 3
REMARK VINA RESULT:      -8.4      1.833      2.556
REMARK  6 active torsions:
REMARK  status: ('A' for Active; 'I' for Inactive)
REMARK    1  A    between atoms: C_4  and  N_29 
REMARK    2  A    between atoms: C_6  and  C_8 
REMARK       I    between atoms: C_8  and  N_10 
REMARK    3  A    between atoms: N_10  and  C_11 
REMARK    4  A    between atoms: N_17  and  C_18 
REMARK    5  A    between atoms: C_18  and  C_19 
REMARK    6  A    between atoms: C_19  and  C_20 
ROOT
HETATM    1  C   UNK N   1      26.073  19.175   4.786  0.00  0.00     0.037 A 
HETATM    2  C   UNK N   1      26.456  20.146   3.811  0.00  0.00     0.030 A 
HETATM    3  C   UNK N   1      25.489  20.709   2.938  0.00  0.00     0.016 A 
HETATM    4  C   UNK N   1      24.163  20.277   3.071  0.00  0.00    -0.008 A 
HETATM    5  C   UNK N   1      22.996  20.610   2.397  0.00  0.00     0.031 A 
HETATM    6  C   UNK N   1      21.984  19.828   3.001  0.00  0.00     0.092 A 
HETATM    7  N   UNK N   1      22.539  19.078   3.976  0.00  0.00    -0.356 N 
HETATM    8  C   UNK N   1      23.836  19.355   4.007  0.00  0.00     0.046 A 
HETATM    9  C   UNK N   1      24.752  18.792   4.869  0.00  0.00     0.060 A 
ENDROOT
BRANCH   1  10
HETATM   10  N   UNK N   1      26.973  18.560   5.695  0.00  0.00    -0.323 N 
HETATM   11  C   UNK N   1      27.462  19.116   6.820  0.00  0.00     0.256 C 
HETATM   12  O   UNK N   1      27.141  20.251   7.142  0.00  0.00    -0.267 OA
HETATM   13  H   UNK N   1      27.265  17.643   5.484  0.00  0.00     0.169 HD
BRANCH  11  14
HETATM   14  C   UNK N   1      28.389  18.357   7.677  0.00  0.00     0.037 A 
HETATM   15  C   UNK N   1      29.691  18.216   7.235  0.00  0.00     0.046 A 
HETATM   16  C   UNK N   1      30.651  17.529   7.967  0.00  0.00     0.034 A 
HETATM   17  C   UNK N   1      30.285  16.954   9.198  0.00  0.00     0.071 A 
HETATM   18  C   UNK N   1      28.966  17.084   9.667  0.00  0.00     0.119 A 
HETATM   19  F   UNK N   1      28.614  16.534  10.856  0.00  0.00    -0.206 F 
HETATM   20  C   UNK N   1      28.015  17.787   8.907  0.00  0.00     0.059 A 
BRANCH  16  21
HETATM   21  N   UNK N   1      31.976  17.453   7.447  0.00  0.00    -0.377 N 
HETATM   22  C   UNK N   1      32.207  16.953   6.099  0.00  0.00     0.149 C 
HETATM   23  C   UNK N   1      33.700  16.826   5.782  0.00  0.00     0.187 C 
HETATM   24  O   UNK N   1      34.398  17.915   6.316  0.00  0.00    -0.388 OA
HETATM   25  C   UNK N   1      34.445  17.653   7.685  0.00  0.00     0.187 C 
HETATM   26  C   UNK N   1      33.077  17.920   8.293  0.00  0.00     0.149 C 
ENDBRANCH  16  21
ENDBRANCH  11  14
ENDBRANCH   1  10
BRANCH   7  27
HETATM   27  C   UNK N   1      22.033  18.103   4.925  0.00  0.00     0.133 C 
BRANCH  27  28
HETATM   28  C   UNK N   1      20.862  17.192   4.662  0.00  0.00     0.058 C 
BRANCH  28  29
HETATM   29  C   UNK N   1      21.259  16.358   3.449  0.00  0.00    -0.054 A 
HETATM   30  C   UNK N   1      22.416  15.581   3.484  0.00  0.00     0.024 A 
HETATM   31  C   UNK N   1      22.769  14.819   2.361  0.00  0.00     0.088 A 
HETATM   32  N   UNK N   1      21.993  14.833   1.242  0.00  0.00    -0.375 N 
HETATM   33  C   UNK N   1      20.861  15.577   1.177  0.00  0.00     0.088 A 
ATOM     34  HN  UNK N   1      22.268  14.271   0.437  1.00  0.00     0.164 HD
HETATM   35  C   UNK N   1      20.477  16.346   2.269  0.00  0.00     0.024 A 
ENDBRANCH  28  29
ENDBRANCH  27  28
ENDBRANCH   7  27
TORSDOF 6
ENDMDL
MODEL 4
REMARK VINA RESULT:      -8.0     13.017     14.493
REMARK  6 active torsions:
REMARK  status: ('A' for Active; 'I' for Inactive)
REMARK    1  A    between atoms: C_4  and  N_29 
REMARK    2  A    between atoms: C_6  and  C_8 
REMARK       I    between atoms: C_8  and  N_10 
REMARK    3  A    between atoms: N_10  and  C_11 
REMARK    4  A    between atoms: N_17  and  C_18 
REMARK    5  A    between atoms: C_18  and  C_19 
REMARK    6  A    between atoms: C_19  and  C_20 
ROOT
HETATM    1  C   UNK N   1      30.010  26.256  -3.872  0.00  0.00     0.037 A 
HETATM    2  C   UNK N   1      30.858  27.290  -3.373  0.00  0.00     0.030 A 
HETATM    3  C   UNK N   1      30.316  28.550  -3.006  0.00  0.00     0.016 A 
HETATM    4  C   UNK N   1      28.935  28.732  -3.153  0.00  0.00    -0.008 A 
HETATM    5  C   UNK N   1      28.098  29.809  -2.898  0.00  0.00     0.031 A 
HETATM    6  C   UNK N   1      26.804  29.366  -3.254  0.00  0.00     0.092 A 
HETATM    7  N   UNK N   1      26.888  28.093  -3.694  0.00  0.00    -0.356 N 
HETATM    8  C   UNK N   1      28.162  27.728  -3.628  0.00  0.00     0.046 A 
HETATM    9  C   UNK N   1      28.658  26.495  -3.992  0.00  0.00     0.060 A 
ENDROOT
BRANCH   1  10
HETATM   10  N   UNK N   1      30.466  24.970  -4.265  0.00  0.00    -0.323 N 
HETATM   11  C   UNK N   1      30.664  23.919  -3.447  0.00  0.00     0.256 C 
HETATM   12  O   UNK N   1      30.450  24.017  -2.247  0.00  0.00    -0.267 OA
HETATM   13  H   UNK N   1      30.654  24.835  -5.223  0.00  0.00     0.169 HD
BRANCH  11  14
HETATM   14  C   UNK N   1      31.139  22.636  -3.994  0.00  0.00     0.037 A 
HETATM   15  C   UNK N   1      30.496  22.148  -5.116  0.00  0.00     0.046 A 
HETATM   16  C   UNK N   1      30.867  20.954  -5.720  0.00  0.00     0.034 A 
HETATM   17  C   UNK N   1      31.930  20.215  -5.170  0.00  0.00     0.071 A 
HETATM   18  C   UNK N   1      32.598  20.691  -4.029  0.00  0.00     0.119 A 
HETATM   19  F   UNK N   1      33.626  19.981  -3.501  0.00  0.00    -0.206 F 
HETATM   20  C   UNK N   1      32.204  21.904  -3.439  0.00  0.00     0.059 A 
BRANCH  16  21
HETATM   21  N   UNK N   1      30.166  20.537  -6.890  0.00  0.00    -0.377 N 
HETATM   22  C   UNK N   1      28.940  21.216  -7.290  0.00  0.00     0.149 C 
HETATM   23  C   UNK N   1      28.273  20.536  -8.488  0.00  0.00     0.187 C 
HETATM   24  O   UNK N   1      29.244  20.121  -9.406  0.00  0.00    -0.388 OA
HETATM   25  C   UNK N   1      29.820  18.997  -8.813  0.00  0.00     0.187 C 
HETATM   26  C   UNK N   1      30.731  19.442  -7.680  0.00  0.00     0.149 C 
ENDBRANCH  16  21
ENDBRANCH  11  14
ENDBRANCH   1  10
BRANCH   7  27
HETATM   27  C   UNK N   1      25.929  27.119  -4.187  0.00  0.00     0.133 C 
BRANCH  27  28
HETATM   28  C   UNK N   1      25.267  27.191  -5.538  0.00  0.00     0.058 C 
BRANCH  28  29
HETATM   29  C   UNK N   1      25.546  25.848  -6.201  0.00  0.00    -0.054 A 
HETATM   30  C   UNK N   1      25.644  24.692  -5.425  0.00  0.00     0.024 A 
HETATM   31  C   UNK N   1      25.901  23.463  -6.049  0.00  0.00     0.088 A 
HETATM   32  N   UNK N   1      26.054  23.390  -7.400  0.00  0.00    -0.375 N 
HETATM   33  C   UNK N   1      25.963  24.494  -8.182  0.00  0.00     0.088 A 
ATOM     34  HN  UNK N   1      26.240  22.485  -7.833  1.00  0.00     0.164 HD
HETATM   35  C   UNK N   1      25.710  25.731  -7.602  0.00  0.00     0.024 A 
ENDBRANCH  28  29
ENDBRANCH  27  28
ENDBRANCH   7  27
TORSDOF 6
ENDMDL
MODEL 5
REMARK VINA RESULT:      -7.8      5.281      9.182
REMARK  6 active torsions:
REMARK  status: ('A' for Active; 'I' for Inactive)
REMARK    1  A    between atoms: C_4  and  N_29 
REMARK    2  A    between atoms: C_6  and  C_8 
REMARK       I    between atoms: C_8  and  N_10 
REMARK    3  A    between atoms: N_10  and  C_11 
REMARK    4  A    between atoms: N_17  and  C_18 
REMARK    5  A    between atoms: C_18  and  C_19 
REMARK    6  A    between atoms: C_19  and  C_20 
ROOT
HETATM    1  C   UNK N   1      31.271  16.500   8.690  0.00  0.00     0.037 A 
HETATM    2  C   UNK N   1      30.348  17.086   9.608  0.00  0.00     0.030 A 
HETATM    3  C   UNK N   1      29.238  17.833   9.133  0.00  0.00     0.016 A 
HETATM    4  C   UNK N   1      29.091  17.971   7.747  0.00  0.00    -0.008 A 
HETATM    5  C   UNK N   1      28.148  18.619   6.962  0.00  0.00     0.031 A 
HETATM    6  C   UNK N   1      28.553  18.388   5.627  0.00  0.00     0.092 A 
HETATM    7  N   UNK N   1      29.677  17.642   5.639  0.00  0.00    -0.356 N 
HETATM    8  C   UNK N   1      29.987  17.400   6.906  0.00  0.00     0.046 A 
HETATM    9  C   UNK N   1      31.072  16.668   7.337  0.00  0.00     0.060 A 
ENDROOT
BRANCH   1  10
HETATM   10  N   UNK N   1      32.407  15.741   9.076  0.00  0.00    -0.323 N 
HETATM   11  C   UNK N   1      33.637  16.231   9.326  0.00  0.00     0.256 C 
HETATM   12  O   UNK N   1      33.859  17.430   9.227  0.00  0.00    -0.267 OA
HETATM   13  H   UNK N   1      32.284  14.768   9.171  0.00  0.00     0.169 HD
BRANCH  11  14
HETATM   14  C   UNK N   1      34.727  15.324   9.724  0.00  0.00     0.037 A 
HETATM   15  C   UNK N   1      34.718  14.853  11.023  0.00  0.00     0.046 A 
HETATM   16  C   UNK N   1      35.691  13.985  11.502  0.00  0.00     0.034 A 
HETATM   17  C   UNK N   1      36.722  13.575  10.637  0.00  0.00     0.071 A 
HETATM   18  C   UNK N   1      36.752  14.042   9.312  0.00  0.00     0.119 A 
HETATM   19  F   UNK N   1      37.743  13.643   8.476  0.00  0.00    -0.206 F 
HETATM   20  C   UNK N   1      35.753  14.917   8.852  0.00  0.00     0.059 A 
BRANCH  16  21
HETATM   21  N   UNK N   1      35.591  13.529  12.849  0.00  0.00    -0.377 N 
HETATM   22  C   UNK N   1      34.778  12.363  13.169  0.00  0.00     0.149 C 
HETATM   23  C   UNK N   1      34.695  12.118  14.678  0.00  0.00     0.187 C 
HETATM   24  O   UNK N   1      35.939  12.361  15.272  0.00  0.00    -0.388 OA
HETATM   25  C   UNK N   1      36.048  13.751  15.285  0.00  0.00     0.187 C 
HETATM   26  C   UNK N   1      36.351  14.242  13.878  0.00  0.00     0.149 C 
ENDBRANCH  16  21
ENDBRANCH  11  14
ENDBRANCH   1  10
BRANCH   7  27
HETATM   27  C   UNK N   1      30.547  17.093   4.613  0.00  0.00     0.133 C 
BRANCH  27  28
HETATM   28  C   UNK N   1      31.845  17.723   4.177  0.00  0.00     0.058 C 
BRANCH  28  29
HETATM   29  C   UNK N   1      32.865  16.591   4.170  0.00  0.00    -0.054 A 
HETATM   30  C   UNK N   1      33.706  16.401   5.267  0.00  0.00     0.024 A 
HETATM   31  C   UNK N   1      34.639  15.356   5.246  0.00  0.00     0.088 A 
HETATM   32  N   UNK N   1      34.731  14.528   4.168  0.00  0.00    -0.375 N 
HETATM   33  C   UNK N   1      33.927  14.685   3.087  0.00  0.00     0.088 A 
ATOM     34  HN  UNK N   1      35.417  13.774   4.175  1.00  0.00     0.164 HD
HETATM   35  C   UNK N   1      32.989  15.710   3.069  0.00  0.00     0.024 A 
ENDBRANCH  28  29
ENDBRANCH  27  28
ENDBRANCH   7  27
TORSDOF 6
ENDMDL
MODEL 6
REMARK VINA RESULT:      -7.7      9.644     15.043
REMARK  6 active torsions:
REMARK  status: ('A' for Active; 'I' for Inactive)
REMARK    1  A    between atoms: C_4  and  N_29 
REMARK    2  A    between atoms: C_6  and  C_8 
REMARK       I    between atoms: C_8  and  N_10 
REMARK    3  A    between atoms: N_10  and  C_11 
REMARK    4  A    between atoms: N_17  and  C_18 
REMARK    5  A    between atoms: C_18  and  C_19 
REMARK    6  A    between atoms: C_19  and  C_20 
ROOT
HETATM    1  C   UNK N   1      36.184  12.791  15.648  0.00  0.00     0.037 A 
HETATM    2  C   UNK N   1      35.622  13.770  16.523  0.00  0.00     0.030 A 
HETATM    3  C   UNK N   1      35.204  13.410  17.831  0.00  0.00     0.016 A 
HETATM    4  C   UNK N   1      35.362  12.074  18.221  0.00  0.00    -0.008 A 
HETATM    5  C   UNK N   1      35.066  11.397  19.395  0.00  0.00     0.031 A 
HETATM    6  C   UNK N   1      35.464  10.060  19.164  0.00  0.00     0.092 A 
HETATM    7  N   UNK N   1      35.967   9.968  17.915  0.00  0.00    -0.356 N 
HETATM    8  C   UNK N   1      35.900  11.173  17.365  0.00  0.00     0.046 A 
HETATM    9  C   UNK N   1      36.316  11.492  16.090  0.00  0.00     0.060 A 
ENDROOT
BRANCH   1  10
HETATM   10  N   UNK N   1      36.625  13.062  14.327  0.00  0.00    -0.323 N 
HETATM   11  C   UNK N   1      35.847  13.102  13.227  0.00  0.00     0.256 C 
HETATM   12  O   UNK N   1      34.645  12.895  13.310  0.00  0.00    -0.267 OA
HETATM   13  H   UNK N   1      37.587  13.236  14.202  0.00  0.00     0.169 HD
BRANCH  11  14
HETATM   14  C   UNK N   1      36.441  13.400  11.913  0.00  0.00     0.037 A 
HETATM   15  C   UNK N   1      35.748  14.263  11.085  0.00  0.00     0.046 A 
HETATM   16  C   UNK N   1      36.220  14.621   9.829  0.00  0.00     0.034 A 
HETATM   17  C   UNK N   1      37.442  14.086   9.383  0.00  0.00     0.071 A 
HETATM   18  C   UNK N   1      38.164  13.205  10.207  0.00  0.00     0.119 A 
HETATM   19  F   UNK N   1      39.345  12.692   9.780  0.00  0.00    -0.206 F 
HETATM   20  C   UNK N   1      37.665  12.862  11.476  0.00  0.00     0.059 A 
BRANCH  16  21
HETATM   21  N   UNK N   1      35.453  15.537   9.050  0.00  0.00    -0.377 N 
HETATM   22  C   UNK N   1      34.963  16.774   9.645  0.00  0.00     0.149 C 
HETATM   23  C   UNK N   1      34.055  17.550   8.688  0.00  0.00     0.187 C 
HETATM   24  O   UNK N   1      34.563  17.485   7.386  0.00  0.00    -0.388 OA
HETATM   25  C   UNK N   1      34.263  16.189   6.965  0.00  0.00     0.187 C 
HETATM   26  C   UNK N   1      35.209  15.211   7.644  0.00  0.00     0.149 C 
ENDBRANCH  16  21
ENDBRANCH  11  14
ENDBRANCH   1  10
BRANCH   7  27
HETATM   27  C   UNK N   1      36.523   8.889  17.117  0.00  0.00     0.133 C 
BRANCH  27  28
HETATM   28  C   UNK N   1      35.728   8.056  16.146  0.00  0.00     0.058 C 
BRANCH  28  29
HETATM   29  C   UNK N   1      36.202   8.481  14.761  0.00  0.00    -0.054 A 
HETATM   30  C   UNK N   1      37.551   8.379  14.422  0.00  0.00     0.024 A 
HETATM   31  C   UNK N   1      37.972   8.773  13.145  0.00  0.00     0.088 A 
HETATM   32  N   UNK N   1      37.077   9.253  12.237  0.00  0.00    -0.375 N 
HETATM   33  C   UNK N   1      35.759   9.363  12.535  0.00  0.00     0.088 A 
ATOM     34  HN  UNK N   1      37.406   9.534  11.313  1.00  0.00     0.164 HD
HETATM   35  C   UNK N   1      35.302   8.983  13.791  0.00  0.00     0.024 A 
ENDBRANCH  28  29
ENDBRANCH  27  28
ENDBRANCH   7  27
TORSDOF 6
ENDMDL
MODEL 7
REMARK VINA RESULT:      -7.7      5.056      8.561
REMARK  6 active torsions:
REMARK  status: ('A' for Active; 'I' for Inactive)
REMARK    1  A    between atoms: C_4  and  N_29 
REMARK    2  A    between atoms: C_6  and  C_8 
REMARK       I    between atoms: C_8  and  N_10 
REMARK    3  A    between atoms: N_10  and  C_11 
REMARK    4  A    between atoms: N_17  and  C_18 
REMARK    5  A    between atoms: C_18  and  C_19 
REMARK    6  A    between atoms: C_19  and  C_20 
ROOT
HETATM    1  C   UNK N   1      31.083  17.019   8.575  0.00  0.00     0.037 A 
HETATM    2  C   UNK N   1      30.099  17.697   9.355  0.00  0.00     0.030 A 
HETATM    3  C   UNK N   1      28.992  18.327   8.726  0.00  0.00     0.016 A 
HETATM    4  C   UNK N   1      28.910  18.257   7.330  0.00  0.00    -0.008 A 
HETATM    5  C   UNK N   1      27.988  18.750   6.418  0.00  0.00     0.031 A 
HETATM    6  C   UNK N   1      28.465  18.343   5.151  0.00  0.00     0.092 A 
HETATM    7  N   UNK N   1      29.609  17.648   5.321  0.00  0.00    -0.356 N 
HETATM    8  C   UNK N   1      29.862  17.604   6.623  0.00  0.00     0.046 A 
HETATM    9  C   UNK N   1      30.946  16.982   7.204  0.00  0.00     0.060 A 
ENDROOT
BRANCH   1  10
HETATM   10  N   UNK N   1      32.221  16.366   9.118  0.00  0.00    -0.323 N 
HETATM   11  C   UNK N   1      33.490  16.814   9.064  0.00  0.00     0.256 C 
HETATM   12  O   UNK N   1      33.751  17.873   8.509  0.00  0.00    -0.267 OA
HETATM   13  H   UNK N   1      32.067  15.508   9.577  0.00  0.00     0.169 HD
BRANCH  11  14
HETATM   14  C   UNK N   1      34.577  16.032   9.677  0.00  0.00     0.037 A 
HETATM   15  C   UNK N   1      35.323  15.221   8.842  0.00  0.00     0.046 A 
HETATM   16  C   UNK N   1      36.377  14.448   9.312  0.00  0.00     0.034 A 
HETATM   17  C   UNK N   1      36.694  14.489  10.682  0.00  0.00     0.071 A 
HETATM   18  C   UNK N   1      35.948  15.306  11.549  0.00  0.00     0.119 A 
HETATM   19  F   UNK N   1      36.256  15.350  12.870  0.00  0.00    -0.206 F 
HETATM   20  C   UNK N   1      34.888  16.081  11.047  0.00  0.00     0.059 A 
BRANCH  16  21
HETATM   21  N   UNK N   1      37.110  13.658   8.378  0.00  0.00    -0.377 N 
HETATM   22  C   UNK N   1      38.564  13.605   8.445  0.00  0.00     0.149 C 
HETATM   23  C   UNK N   1      39.164  12.815   7.280  0.00  0.00     0.187 C 
HETATM   24  O   UNK N   1      38.377  11.690   7.007  0.00  0.00    -0.388 OA
HETATM   25  C   UNK N   1      37.253  12.207   6.362  0.00  0.00     0.187 C 
HETATM   26  C   UNK N   1      36.358  12.888   7.385  0.00  0.00     0.149 C 
ENDBRANCH  16  21
ENDBRANCH  11  14
ENDBRANCH   1  10
BRANCH   7  27
HETATM   27  C   UNK N   1      30.545  16.989   4.427  0.00  0.00     0.133 C 
BRANCH  27  28
HETATM   28  C   UNK N   1      31.827  17.608   3.937  0.00  0.00     0.058 C 
BRANCH  28  29
HETATM   29  C   UNK N   1      32.874  16.504   4.028  0.00  0.00    -0.054 A 
HETATM   30  C   UNK N   1      33.663  16.381   5.172  0.00  0.00     0.024 A 
HETATM   31  C   UNK N   1      34.621  15.361   5.242  0.00  0.00     0.088 A 
HETATM   32  N   UNK N   1      34.786  14.492   4.206  0.00  0.00    -0.375 N 
HETATM   33  C   UNK N   1      34.035  14.583   3.081  0.00  0.00     0.088 A 
ATOM     34  HN  UNK N   1      35.489  13.757   4.279  1.00  0.00     0.164 HD
HETATM   35  C   UNK N   1      33.074  15.582   2.973  0.00  0.00     0.024 A 
ENDBRANCH  28  29
ENDBRANCH  27  28
ENDBRANCH   7  27
TORSDOF 6
ENDMDL
MODEL 8
REMARK VINA RESULT:      -7.7     10.676     15.409
REMARK  6 active torsions:
REMARK  status: ('A' for Active; 'I' for Inactive)
REMARK    1  A    between atoms: C_4  and  N_29 
REMARK    2  A    between atoms: C_6  and  C_8 
REMARK       I    between atoms: C_8  and  N_10 
REMARK    3  A    between atoms: N_10  and  C_11 
REMARK    4  A    between atoms: N_17  and  C_18 
REMARK    5  A    between atoms: C_18  and  C_19 
REMARK    6  A    between atoms: C_19  and  C_20 
ROOT
HETATM    1  C   UNK N   1      35.069  12.841  16.594  0.00  0.00     0.037 A 
HETATM    2  C   UNK N   1      35.170  13.704  17.727  0.00  0.00     0.030 A 
HETATM    3  C   UNK N   1      35.274  13.163  19.036  0.00  0.00     0.016 A 
HETATM    4  C   UNK N   1      35.271  11.769  19.166  0.00  0.00    -0.008 A 
HETATM    5  C   UNK N   1      35.353  10.928  20.267  0.00  0.00     0.031 A 
HETATM    6  C   UNK N   1      35.299   9.618  19.740  0.00  0.00     0.092 A 
HETATM    7  N   UNK N   1      35.190   9.696  18.397  0.00  0.00    -0.356 N 
HETATM    8  C   UNK N   1      35.175  10.981  18.068  0.00  0.00     0.046 A 
HETATM    9  C   UNK N   1      35.074  11.476  16.786  0.00  0.00     0.060 A 
ENDROOT
BRANCH   1  10
HETATM   10  N   UNK N   1      34.959  13.294  15.253  0.00  0.00    -0.323 N 
HETATM   11  C   UNK N   1      35.959  13.345  14.352  0.00  0.00     0.256 C 
HETATM   12  O   UNK N   1      37.087  12.983  14.656  0.00  0.00    -0.267 OA
HETATM   13  H   UNK N   1      34.070  13.598  14.955  0.00  0.00     0.169 HD
BRANCH  11  14
HETATM   14  C   UNK N   1      35.700  13.837  12.988  0.00  0.00     0.037 A 
HETATM   15  C   UNK N   1      35.177  12.937  12.079  0.00  0.00     0.046 A 
HETATM   16  C   UNK N   1      34.885  13.295  10.769  0.00  0.00     0.034 A 
HETATM   17  C   UNK N   1      35.134  14.616  10.353  0.00  0.00     0.071 A 
HETATM   18  C   UNK N   1      35.667  15.547  11.260  0.00  0.00     0.119 A 
HETATM   19  F   UNK N   1      35.903  16.823  10.861  0.00  0.00    -0.206 F 
HETATM   20  C   UNK N   1      35.950  15.160  12.581  0.00  0.00     0.059 A 
BRANCH  16  21
HETATM   21  N   UNK N   1      34.324  12.310   9.903  0.00  0.00    -0.377 N 
HETATM   22  C   UNK N   1      34.167  10.936  10.362  0.00  0.00     0.149 C 
HETATM   23  C   UNK N   1      33.674  10.012   9.246  0.00  0.00     0.187 C 
HETATM   24  O   UNK N   1      32.710  10.668   8.471  0.00  0.00    -0.388 OA
HETATM   25  C   UNK N   1      33.445  11.566   7.698  0.00  0.00     0.187 C 
HETATM   26  C   UNK N   1      33.889  12.730   8.570  0.00  0.00     0.149 C 
ENDBRANCH  16  21
ENDBRANCH  11  14
ENDBRANCH   1  10
BRANCH   7  27
HETATM   27  C   UNK N   1      35.093   8.722  17.323  0.00  0.00     0.133 C 
BRANCH  27  28
HETATM   28  C   UNK N   1      36.257   7.922  16.798  0.00  0.00     0.058 C 
BRANCH  28  29
HETATM   29  C   UNK N   1      36.749   8.679  15.570  0.00  0.00    -0.054 A 
HETATM   30  C   UNK N   1      35.892   8.897  14.491  0.00  0.00     0.024 A 
HETATM   31  C   UNK N   1      36.360   9.595  13.369  0.00  0.00     0.088 A 
HETATM   32  N   UNK N   1      37.639  10.059  13.325  0.00  0.00    -0.375 N 
HETATM   33  C   UNK N   1      38.497   9.865  14.357  0.00  0.00     0.088 A 
ATOM     34  HN  UNK N   1      37.958  10.565  12.499  1.00  0.00     0.164 HD
HETATM   35  C   UNK N   1      38.072   9.178  15.487  0.00  0.00     0.024 A 
ENDBRANCH  28  29
ENDBRANCH  27  28
ENDBRANCH   7  27
TORSDOF 6
ENDMDL
MODEL 9
REMARK VINA RESULT:      -7.5      2.666      3.552
REMARK  6 active torsions:
REMARK  status: ('A' for Active; 'I' for Inactive)
REMARK    1  A    between atoms: C_4  and  N_29 
REMARK    2  A    between atoms: C_6  and  C_8 
REMARK       I    between atoms: C_8  and  N_10 
REMARK    3  A    between atoms: N_10  and  C_11 
REMARK    4  A    between atoms: N_17  and  C_18 
REMARK    5  A    between atoms: C_18  and  C_19 
REMARK    6  A    between atoms: C_19  and  C_20 
ROOT
HETATM    1  C   UNK N   1      26.862  18.786   4.204  0.00  0.00     0.037 A 
HETATM    2  C   UNK N   1      26.976  19.974   3.419  0.00  0.00     0.030 A 
HETATM    3  C   UNK N   1      25.814  20.624   2.926  0.00  0.00     0.016 A 
HETATM    4  C   UNK N   1      24.570  20.058   3.236  0.00  0.00    -0.008 A 
HETATM    5  C   UNK N   1      23.269  20.423   2.923  0.00  0.00     0.031 A 
HETATM    6  C   UNK N   1      22.452  19.443   3.532  0.00  0.00     0.092 A 
HETATM    7  N   UNK N   1      23.243  18.553   4.168  0.00  0.00    -0.356 N 
HETATM    8  C   UNK N   1      24.501  18.931   3.984  0.00  0.00     0.046 A 
HETATM    9  C   UNK N   1      25.610  18.279   4.477  0.00  0.00     0.060 A 
ENDROOT
BRANCH   1  10
HETATM   10  N   UNK N   1      27.968  18.072   4.733  0.00  0.00    -0.323 N 
HETATM   11  C   UNK N   1      28.489  18.224   5.967  0.00  0.00     0.256 C 
HETATM   12  O   UNK N   1      28.010  19.034   6.747  0.00  0.00    -0.267 OA
HETATM   13  H   UNK N   1      28.393  17.404   4.146  0.00  0.00     0.169 HD
BRANCH  11  14
HETATM   14  C   UNK N   1      29.641  17.408   6.388  0.00  0.00     0.037 A 
HETATM   15  C   UNK N   1      30.327  16.723   5.403  0.00  0.00     0.046 A 
HETATM   16  C   UNK N   1      31.433  15.932   5.686  0.00  0.00     0.034 A 
HETATM   17  C   UNK N   1      31.869  15.823   7.019  0.00  0.00     0.071 A 
HETATM   18  C   UNK N   1      31.186  16.510   8.038  0.00  0.00     0.119 A 
HETATM   19  F   UNK N   1      31.608  16.409   9.323  0.00  0.00    -0.206 F 
HETATM   20  C   UNK N   1      30.070  17.306   7.723  0.00  0.00     0.059 A 
BRANCH  16  21
HETATM   21  N   UNK N   1      32.097  15.280   4.605  0.00  0.00    -0.377 N 
HETATM   22  C   UNK N   1      31.327  14.551   3.606  0.00  0.00     0.149 C 
HETATM   23  C   UNK N   1      32.229  13.815   2.612  0.00  0.00     0.187 C 
HETATM   24  O   UNK N   1      33.333  14.610   2.286  0.00  0.00    -0.388 OA
HETATM   25  C   UNK N   1      34.152  14.539   3.414  0.00  0.00     0.187 C 
HETATM   26  C   UNK N   1      33.554  15.394   4.520  0.00  0.00     0.149 C 
ENDBRANCH  16  21
ENDBRANCH  11  14
ENDBRANCH   1  10
BRANCH   7  27
HETATM   27  C   UNK N   1      23.004  17.356   4.954  0.00  0.00     0.133 C 
BRANCH  27  28
HETATM   28  C   UNK N   1      21.869  16.395   4.710  0.00  0.00     0.058 C 
BRANCH  28  29
HETATM   29  C   UNK N   1      22.188  15.715   3.384  0.00  0.00    -0.054 A 
HETATM   30  C   UNK N   1      23.457  15.182   3.159  0.00  0.00     0.024 A 
HETATM   31  C   UNK N   1      23.736  14.559   1.934  0.00  0.00     0.088 A 
HETATM   32  N   UNK N   1      22.781  14.472   0.967  0.00  0.00    -0.375 N 
HETATM   33  C   UNK N   1      21.538  14.980   1.155  0.00  0.00     0.088 A 
ATOM     34  HN  UNK N   1      23.006  14.015   0.084  1.00  0.00     0.164 HD
HETATM   35  C   UNK N   1      21.222  15.604   2.356  0.00  0.00     0.024 A 
ENDBRANCH  28  29
ENDBRANCH  27  28
ENDBRANCH   7  27
TORSDOF 6
ENDMDL
