MODEL 1
REMARK VINA RESULT:      -9.1      0.000      0.000
REMARK  8 active torsions:
REMARK  status: ('A' for Active; 'I' for Inactive)
REMARK    1  A    between atoms: C_10  and  C_11 
REMARK    2  A    between atoms: C_11  and  C_12 
REMARK    3  A    between atoms: C_12  and  C_13 
REMARK    4  A    between atoms: C_12  and  N_17 
REMARK    5  A    between atoms: C_13  and  C_14 
REMARK    6  A    between atoms: C_14  and  O_16 
REMARK    7  A    between atoms: C_22  and  C_23 
REMARK    8  A    between atoms: C_23  and  O_24 
ROOT
HETATM    1  C   UNK N   1      20.462  16.223   7.737  0.00  0.00     0.110 C 
ENDROOT
BRANCH   1   2
HETATM    2  C   UNK N   1      20.839  14.733   7.863  0.00  0.00     0.065 C 
BRANCH   2   3
HETATM    3  C   UNK N   1      22.233  14.199   8.137  0.00  0.00    -0.045 A 
HETATM    4  C   UNK N   1      22.643  13.408   9.249  0.00  0.00    -0.020 A 
HETATM    5  C   UNK N   1      21.748  12.986  10.242  0.00  0.00     0.013 A 
HETATM    6  C   UNK N   1      24.012  13.047   9.377  0.00  0.00    -0.025 A 
HETATM    7  C   UNK N   1      22.193  12.249  11.343  0.00  0.00     0.001 A 
HETATM    8  C   UNK N   1      23.543  11.916  11.464  0.00  0.00     0.001 A 
HETATM    9  C   UNK N   1      24.449  12.308  10.479  0.00  0.00     0.012 A 
HETATM   10  C   UNK N   1      24.938  13.438   8.411  0.00  0.00     0.012 A 
HETATM   11  C   UNK N   1      24.528  14.191   7.315  0.00  0.00     0.001 A 
HETATM   12  C   UNK N   1      23.195  14.573   7.190  0.00  0.00     0.008 A 
ENDBRANCH   2   3
ENDBRANCH   1   2
BRANCH   1  13
HETATM   13  C   UNK N   1      19.094  16.402   8.410  0.00  0.00     0.136 C 
BRANCH  13  14
HETATM   14  C   UNK N   1      18.980  17.672   9.205  0.00  0.00     0.141 C 
HETATM   15  O   UNK N   1      17.988  17.871   9.884  0.00  0.00    -0.650 OA
BRANCH  14  16
HETATM   16  O   UNK N   1      19.973  18.582   9.191  0.00  0.00    -0.776 OA
HETATM   17  H   UNK N   1      20.140  19.123   8.444  0.00  0.00     0.167 HD
ENDBRANCH  14  16
ENDBRANCH  13  14
ENDBRANCH   1  13
BRANCH   1  18
HETATM   18  N   UNK N   1      20.385  16.745   6.367  0.00  0.00    -0.274 N 
HETATM   19  C   UNK N   1      20.891  17.950   5.992  0.00  0.00     0.262 A 
HETATM   20  O   UNK N   1      21.435  18.737   6.754  0.00  0.00    -0.267 OA
HETATM   21  C   UNK N   1      20.709  18.142   4.558  0.00  0.00     0.049 A 
HETATM   22  C   UNK N   1      21.076  19.182   3.709  0.00  0.00     0.036 A 
HETATM   23  C   UNK N   1      20.077  17.014   4.094  0.00  0.00     0.048 A 
HETATM   24  C   UNK N   1      20.794  19.044   2.333  0.00  0.00     0.038 A 
HETATM   25  C   UNK N   1      20.159  17.868   1.857  0.00  0.00     0.019 A 
HETATM   26  C   UNK N   1      19.790  16.840   2.745  0.00  0.00     0.019 A 
HETATM   27  C   UNK N   1      19.856  16.156   5.254  0.00  0.00     0.262 A 
HETATM   28  O   UNK N   1      19.306  15.066   5.229  0.00  0.00    -0.267 OA
BRANCH  24  29
HETATM   29  C   UNK N   1      21.164  20.121   1.393  0.00  0.00     0.176 C 
HETATM   30  O   UNK N   1      21.863  21.051   1.765  0.00  0.00    -0.646 OA
BRANCH  29  31
HETATM   31  O   UNK N   1      20.734  20.083   0.116  0.00  0.00    -0.773 OA
HETATM   32  H   UNK N   1      21.150  20.370  -0.673  0.00  0.00     0.167 HD
ENDBRANCH  29  31
ENDBRANCH  24  29
ENDBRANCH   1  18
TORSDOF 8
ENDMDL
MODEL 2
REMARK VINA RESULT:      -8.6      1.023      2.161
REMARK  8 active torsions:
REMARK  status: ('A' for Active; 'I' for Inactive)
REMARK    1  A    between atoms: C_10  and  C_11 
REMARK    2  A    between atoms: C_11  and  C_12 
REMARK    3  A    between atoms: C_12  and  C_13 
REMARK    4  A    between atoms: C_12  and  N_17 
REMARK    5  A    between atoms: C_13  and  C_14 
REMARK    6  A    between atoms: C_14  and  O_16 
REMARK    7  A    between atoms: C_22  and  C_23 
REMARK    8  A    between atoms: C_23  and  O_24 
ROOT
HETATM    1  C   UNK N   1      20.420  16.225   8.036  0.00  0.00     0.110 C 
ENDROOT
BRANCH   1   2
HETATM    2  C   UNK N   1      20.717  14.741   8.327  0.00  0.00     0.065 C 
BRANCH   2   3
HETATM    3  C   UNK N   1      22.101  14.131   8.465  0.00  0.00    -0.045 A 
HETATM    4  C   UNK N   1      22.576  13.322   9.537  0.00  0.00    -0.020 A 
HETATM    5  C   UNK N   1      21.764  12.954  10.618  0.00  0.00     0.013 A 
HETATM    6  C   UNK N   1      23.930  12.887   9.530  0.00  0.00    -0.025 A 
HETATM    7  C   UNK N   1      22.276  12.197  11.676  0.00  0.00     0.001 A 
HETATM    8  C   UNK N   1      23.611  11.791  11.664  0.00  0.00     0.001 A 
HETATM    9  C   UNK N   1      24.434  12.129  10.590  0.00  0.00     0.012 A 
HETATM   10  C   UNK N   1      24.774  13.223   8.473  0.00  0.00     0.012 A 
HETATM   11  C   UNK N   1      24.298  13.993   7.417  0.00  0.00     0.001 A 
HETATM   12  C   UNK N   1      22.981  14.448   7.423  0.00  0.00     0.008 A 
ENDBRANCH   2   3
ENDBRANCH   1   2
BRANCH   1  13
HETATM   13  C   UNK N   1      18.984  16.500   8.505  0.00  0.00     0.136 C 
BRANCH  13  14
HETATM   14  C   UNK N   1      18.839  17.785   9.269  0.00  0.00     0.141 C 
HETATM   15  O   UNK N   1      19.801  18.522   9.397  0.00  0.00    -0.650 OA
BRANCH  14  16
HETATM   16  O   UNK N   1      17.651  18.141   9.794  0.00  0.00    -0.776 OA
HETATM   17  H   UNK N   1      17.585  18.584  10.617  0.00  0.00     0.167 HD
ENDBRANCH  14  16
ENDBRANCH  13  14
ENDBRANCH   1  13
BRANCH   1  18
HETATM   18  N   UNK N   1      20.544  16.635   6.632  0.00  0.00    -0.274 N 
HETATM   19  C   UNK N   1      20.060  15.906   5.592  0.00  0.00     0.262 A 
HETATM   20  O   UNK N   1      19.501  14.824   5.708  0.00  0.00    -0.267 OA
HETATM   21  C   UNK N   1      20.287  16.616   4.338  0.00  0.00     0.049 A 
HETATM   22  C   UNK N   1      19.955  16.304   3.023  0.00  0.00     0.036 A 
HETATM   23  C   UNK N   1      20.922  17.789   4.667  0.00  0.00     0.048 A 
HETATM   24  C   UNK N   1      20.276  17.241   2.018  0.00  0.00     0.038 A 
HETATM   25  C   UNK N   1      20.914  18.459   2.368  0.00  0.00     0.019 A 
HETATM   26  C   UNK N   1      21.248  18.739   3.706  0.00  0.00     0.019 A 
HETATM   27  C   UNK N   1      21.100  17.771   6.116  0.00  0.00     0.262 A 
HETATM   28  O   UNK N   1      21.640  18.649   6.770  0.00  0.00    -0.267 OA
BRANCH  24  29
HETATM   29  C   UNK N   1      19.945  16.953   0.609  0.00  0.00     0.176 C 
HETATM   30  O   UNK N   1      19.362  15.922   0.310  0.00  0.00    -0.646 OA
BRANCH  29  31
HETATM   31  O   UNK N   1      20.281  17.830  -0.358  0.00  0.00    -0.773 OA
HETATM   32  H   UNK N   1      20.823  18.593  -0.323  0.00  0.00     0.167 HD
ENDBRANCH  29  31
ENDBRANCH  24  29
ENDBRANCH   1  18
TORSDOF 8
ENDMDL
MODEL 3
REMARK VINA RESULT:      -8.5     14.372     17.956
REMARK  8 active torsions:
REMARK  status: ('A' for Active; 'I' for Inactive)
REMARK    1  A    between atoms: C_10  and  C_11 
REMARK    2  A    between atoms: C_11  and  C_12 
REMARK    3  A    between atoms: C_12  and  C_13 
REMARK    4  A    between atoms: C_12  and  N_17 
REMARK    5  A    between atoms: C_13  and  C_14 
REMARK    6  A    between atoms: C_14  and  O_16 
REMARK    7  A    between atoms: C_22  and  C_23 
REMARK    8  A    between atoms: C_23  and  O_24 
ROOT
HETATM    1  C   UNK N   1      26.267  24.710  -6.292  0.00  0.00     0.110 C 
ENDROOT
BRANCH   1   2
HETATM    2  C   UNK N   1      25.512  25.951  -5.777  0.00  0.00     0.065 C 
BRANCH   2   3
HETATM    3  C   UNK N   1      26.142  27.297  -5.464  0.00  0.00    -0.045 A 
HETATM    4  C   UNK N   1      27.122  27.983  -6.238  0.00  0.00    -0.020 A 
HETATM    5  C   UNK N   1      27.609  27.479  -7.453  0.00  0.00     0.013 A 
HETATM    6  C   UNK N   1      27.649  29.213  -5.757  0.00  0.00    -0.025 A 
HETATM    7  C   UNK N   1      28.604  28.157  -8.163  0.00  0.00     0.001 A 
HETATM    8  C   UNK N   1      29.124  29.355  -7.671  0.00  0.00     0.001 A 
HETATM    9  C   UNK N   1      28.642  29.885  -6.475  0.00  0.00     0.012 A 
HETATM   10  C   UNK N   1      27.191  29.756  -4.558  0.00  0.00     0.012 A 
HETATM   11  C   UNK N   1      26.217  29.094  -3.819  0.00  0.00     0.001 A 
HETATM   12  C   UNK N   1      25.710  27.875  -4.264  0.00  0.00     0.008 A 
ENDBRANCH   2   3
ENDBRANCH   1   2
BRANCH   1  13
HETATM   13  C   UNK N   1      25.216  23.628  -6.579  0.00  0.00     0.136 C 
BRANCH  13  14
HETATM   14  C   UNK N   1      25.295  23.072  -7.972  0.00  0.00     0.141 C 
HETATM   15  O   UNK N   1      24.375  22.400  -8.405  0.00  0.00    -0.650 OA
BRANCH  14  16
HETATM   16  O   UNK N   1      26.362  23.326  -8.753  0.00  0.00    -0.776 OA
HETATM   17  H   UNK N   1      26.279  23.466  -9.676  0.00  0.00     0.167 HD
ENDBRANCH  14  16
ENDBRANCH  13  14
ENDBRANCH   1  13
BRANCH   1  18
HETATM   18  N   UNK N   1      27.276  24.156  -5.380  0.00  0.00    -0.274 N 
HETATM   19  C   UNK N   1      28.449  23.613  -5.799  0.00  0.00     0.262 A 
HETATM   20  O   UNK N   1      28.777  23.499  -6.972  0.00  0.00    -0.267 OA
HETATM   21  C   UNK N   1      29.253  23.215  -4.649  0.00  0.00     0.049 A 
HETATM   22  C   UNK N   1      30.521  22.648  -4.556  0.00  0.00     0.036 A 
HETATM   23  C   UNK N   1      28.518  23.538  -3.534  0.00  0.00     0.048 A 
HETATM   24  C   UNK N   1      31.053  22.423  -3.269  0.00  0.00     0.038 A 
HETATM   25  C   UNK N   1      30.297  22.777  -2.121  0.00  0.00     0.019 A 
HETATM   26  C   UNK N   1      29.012  23.337  -2.250  0.00  0.00     0.019 A 
HETATM   27  C   UNK N   1      27.263  24.106  -4.016  0.00  0.00     0.262 A 
HETATM   28  O   UNK N   1      26.350  24.500  -3.306  0.00  0.00    -0.267 OA
BRANCH  24  29
HETATM   29  C   UNK N   1      32.393  21.823  -3.119  0.00  0.00     0.176 C 
HETATM   30  O   UNK N   1      33.221  21.933  -4.010  0.00  0.00    -0.646 OA
BRANCH  29  31
HETATM   31  O   UNK N   1      32.714  21.153  -1.994  0.00  0.00    -0.773 OA
HETATM   32  H   UNK N   1      32.231  21.035  -1.200  0.00  0.00     0.167 HD
ENDBRANCH  29  31
ENDBRANCH  24  29
ENDBRANCH   1  18
TORSDOF 8
ENDMDL
MODEL 4
REMARK VINA RESULT:      -8.5     14.793     17.757
REMARK  8 active torsions:
REMARK  status: ('A' for Active; 'I' for Inactive)
REMARK    1  A    between atoms: C_10  and  C_11 
REMARK    2  A    between atoms: C_11  and  C_12 
REMARK    3  A    between atoms: C_12  and  C_13 
REMARK    4  A    between atoms: C_12  and  N_17 
REMARK    5  A    between atoms: C_13  and  C_14 
REMARK    6  A    between atoms: C_14  and  O_16 
REMARK    7  A    between atoms: C_22  and  C_23 
REMARK    8  A    between atoms: C_23  and  O_24 
ROOT
HETATM    1  C   UNK N   1      26.479  23.901  -6.652  0.00  0.00     0.110 C 
ENDROOT
BRANCH   1   2
HETATM    2  C   UNK N   1      25.925  25.334  -6.534  0.00  0.00     0.065 C 
BRANCH   2   3
HETATM    3  C   UNK N   1      26.745  26.606  -6.653  0.00  0.00    -0.045 A 
HETATM    4  C   UNK N   1      26.759  27.703  -5.744  0.00  0.00    -0.020 A 
HETATM    5  C   UNK N   1      26.005  27.710  -4.562  0.00  0.00     0.013 A 
HETATM    6  C   UNK N   1      27.546  28.847  -6.050  0.00  0.00    -0.025 A 
HETATM    7  C   UNK N   1      26.008  28.822  -3.716  0.00  0.00     0.001 A 
HETATM    8  C   UNK N   1      26.773  29.945  -4.036  0.00  0.00     0.001 A 
HETATM    9  C   UNK N   1      27.545  29.954  -5.197  0.00  0.00     0.012 A 
HETATM   10  C   UNK N   1      28.317  28.884  -7.210  0.00  0.00     0.012 A 
HETATM   11  C   UNK N   1      28.318  27.801  -8.082  0.00  0.00     0.001 A 
HETATM   12  C   UNK N   1      27.532  26.683  -7.808  0.00  0.00     0.008 A 
ENDBRANCH   2   3
ENDBRANCH   1   2
BRANCH   1  13
HETATM   13  C   UNK N   1      25.294  22.941  -6.468  0.00  0.00     0.136 C 
BRANCH  13  14
HETATM   14  C   UNK N   1      25.054  22.053  -7.655  0.00  0.00     0.141 C 
HETATM   15  O   UNK N   1      25.962  21.363  -8.086  0.00  0.00    -0.650 OA
BRANCH  14  16
HETATM   16  O   UNK N   1      23.840  21.996  -8.235  0.00  0.00    -0.776 OA
HETATM   17  H   UNK N   1      23.661  22.412  -9.056  0.00  0.00     0.167 HD
ENDBRANCH  14  16
ENDBRANCH  13  14
ENDBRANCH   1  13
BRANCH   1  18
HETATM   18  N   UNK N   1      27.528  23.543  -5.688  0.00  0.00    -0.274 N 
HETATM   19  C   UNK N   1      28.642  22.838  -6.019  0.00  0.00     0.262 A 
HETATM   20  O   UNK N   1      28.877  22.401  -7.137  0.00  0.00    -0.267 OA
HETATM   21  C   UNK N   1      29.511  22.706  -4.855  0.00  0.00     0.049 A 
HETATM   22  C   UNK N   1      30.756  22.107  -4.691  0.00  0.00     0.036 A 
HETATM   23  C   UNK N   1      28.876  23.354  -3.823  0.00  0.00     0.048 A 
HETATM   24  C   UNK N   1      31.372  22.193  -3.425  0.00  0.00     0.038 A 
HETATM   25  C   UNK N   1      30.720  22.881  -2.369  0.00  0.00     0.019 A 
HETATM   26  C   UNK N   1      29.455  23.466  -2.564  0.00  0.00     0.019 A 
HETATM   27  C   UNK N   1      27.614  23.852  -4.361  0.00  0.00     0.262 A 
HETATM   28  O   UNK N   1      26.775  24.473  -3.728  0.00  0.00    -0.267 OA
BRANCH  24  29
HETATM   29  C   UNK N   1      32.693  21.572  -3.203  0.00  0.00     0.176 C 
HETATM   30  O   UNK N   1      33.512  21.525  -4.108  0.00  0.00    -0.646 OA
BRANCH  29  31
HETATM   31  O   UNK N   1      33.005  21.056  -1.998  0.00  0.00    -0.773 OA
HETATM   32  H   UNK N   1      33.420  20.247  -1.773  0.00  0.00     0.167 HD
ENDBRANCH  29  31
ENDBRANCH  24  29
ENDBRANCH   1  18
TORSDOF 8
ENDMDL
MODEL 5
REMARK VINA RESULT:      -8.1     13.498     15.907
REMARK  8 active torsions:
REMARK  status: ('A' for Active; 'I' for Inactive)
REMARK    1  A    between atoms: C_10  and  C_11 
REMARK    2  A    between atoms: C_11  and  C_12 
REMARK    3  A    between atoms: C_12  and  C_13 
REMARK    4  A    between atoms: C_12  and  N_17 
REMARK    5  A    between atoms: C_13  and  C_14 
REMARK    6  A    between atoms: C_14  and  O_16 
REMARK    7  A    between atoms: C_22  and  C_23 
REMARK    8  A    between atoms: C_23  and  O_24 
ROOT
HETATM    1  C   UNK N   1      35.622  12.375  12.674  0.00  0.00     0.110 C 
ENDROOT
BRANCH   1   2
HETATM    2  C   UNK N   1      34.987  12.690  14.042  0.00  0.00     0.065 C 
BRANCH   2   3
HETATM    3  C   UNK N   1      35.010  11.776  15.254  0.00  0.00    -0.045 A 
HETATM    4  C   UNK N   1      35.077  12.170  16.621  0.00  0.00    -0.020 A 
HETATM    5  C   UNK N   1      35.095  13.515  17.017  0.00  0.00     0.013 A 
HETATM    6  C   UNK N   1      35.153  11.169  17.629  0.00  0.00    -0.025 A 
HETATM    7  C   UNK N   1      35.208  13.865  18.365  0.00  0.00     0.001 A 
HETATM    8  C   UNK N   1      35.298  12.872  19.342  0.00  0.00     0.001 A 
HETATM    9  C   UNK N   1      35.263  11.528  18.975  0.00  0.00     0.012 A 
HETATM   10  C   UNK N   1      35.132   9.819  17.285  0.00  0.00     0.012 A 
HETATM   11  C   UNK N   1      35.042   9.440  15.949  0.00  0.00     0.001 A 
HETATM   12  C   UNK N   1      34.993  10.409  14.950  0.00  0.00     0.008 A 
ENDBRANCH   2   3
ENDBRANCH   1   2
BRANCH   1  13
HETATM   13  C   UNK N   1      37.145  12.453  12.853  0.00  0.00     0.136 C 
BRANCH  13  14
HETATM   14  C   UNK N   1      37.910  12.224  11.581  0.00  0.00     0.141 C 
HETATM   15  O   UNK N   1      37.843  11.142  11.023  0.00  0.00    -0.650 OA
BRANCH  14  16
HETATM   16  O   UNK N   1      38.652  13.209  11.039  0.00  0.00    -0.776 OA
HETATM   17  H   UNK N   1      38.611  14.091  11.353  0.00  0.00     0.167 HD
ENDBRANCH  14  16
ENDBRANCH  13  14
ENDBRANCH   1  13
BRANCH   1  18
HETATM   18  N   UNK N   1      35.232  13.263  11.572  0.00  0.00    -0.274 N 
HETATM   19  C   UNK N   1      35.489  14.598  11.556  0.00  0.00     0.262 A 
HETATM   20  O   UNK N   1      36.041  15.205  12.464  0.00  0.00    -0.267 OA
HETATM   21  C   UNK N   1      35.033  15.178  10.299  0.00  0.00     0.049 A 
HETATM   22  C   UNK N   1      35.094  16.476   9.801  0.00  0.00     0.036 A 
HETATM   23  C   UNK N   1      34.495  14.146   9.569  0.00  0.00     0.048 A 
HETATM   24  C   UNK N   1      34.598  16.712   8.501  0.00  0.00     0.038 A 
HETATM   25  C   UNK N   1      34.063  15.637   7.745  0.00  0.00     0.019 A 
HETATM   26  C   UNK N   1      34.004  14.338   8.283  0.00  0.00     0.019 A 
HETATM   27  C   UNK N   1      34.606  12.950  10.400  0.00  0.00     0.262 A 
HETATM   28  O   UNK N   1      34.220  11.836  10.084  0.00  0.00    -0.267 OA
BRANCH  24  29
HETATM   29  C   UNK N   1      34.641  18.073   7.931  0.00  0.00     0.176 C 
HETATM   30  O   UNK N   1      34.180  18.291   6.821  0.00  0.00    -0.646 OA
BRANCH  29  31
HETATM   31  O   UNK N   1      35.185  19.085   8.634  0.00  0.00    -0.773 OA
HETATM   32  H   UNK N   1      34.779  19.757   9.144  0.00  0.00     0.167 HD
ENDBRANCH  29  31
ENDBRANCH  24  29
ENDBRANCH   1  18
TORSDOF 8
ENDMDL
MODEL 6
REMARK VINA RESULT:      -7.9     10.862     14.896
REMARK  8 active torsions:
REMARK  status: ('A' for Active; 'I' for Inactive)
REMARK    1  A    between atoms: C_10  and  C_11 
REMARK    2  A    between atoms: C_11  and  C_12 
REMARK    3  A    between atoms: C_12  and  C_13 
REMARK    4  A    between atoms: C_12  and  N_17 
REMARK    5  A    between atoms: C_13  and  C_14 
REMARK    6  A    between atoms: C_14  and  O_16 
REMARK    7  A    between atoms: C_22  and  C_23 
REMARK    8  A    between atoms: C_23  and  O_24 
ROOT
HETATM    1  C   UNK N   1      33.405  16.208   8.901  0.00  0.00     0.110 C 
ENDROOT
BRANCH   1   2
HETATM    2  C   UNK N   1      31.974  15.808   8.491  0.00  0.00     0.065 C 
BRANCH   2   3
HETATM    3  C   UNK N   1      30.830  16.773   8.238  0.00  0.00    -0.045 A 
HETATM    4  C   UNK N   1      30.206  17.051   6.988  0.00  0.00    -0.020 A 
HETATM    5  C   UNK N   1      30.577  16.403   5.802  0.00  0.00     0.013 A 
HETATM    6  C   UNK N   1      29.183  18.038   6.928  0.00  0.00    -0.025 A 
HETATM    7  C   UNK N   1      29.974  16.734   4.585  0.00  0.00     0.001 A 
HETATM    8  C   UNK N   1      28.983  17.716   4.537  0.00  0.00     0.001 A 
HETATM    9  C   UNK N   1      28.584  18.361   5.707  0.00  0.00     0.012 A 
HETATM   10  C   UNK N   1      28.776  18.703   8.082  0.00  0.00     0.012 A 
HETATM   11  C   UNK N   1      29.372  18.411   9.304  0.00  0.00     0.001 A 
HETATM   12  C   UNK N   1      30.393  17.465   9.374  0.00  0.00     0.008 A 
ENDBRANCH   2   3
ENDBRANCH   1   2
BRANCH   1  13
HETATM   13  C   UNK N   1      34.246  16.258   7.617  0.00  0.00     0.136 C 
BRANCH  13  14
HETATM   14  C   UNK N   1      34.356  17.635   7.027  0.00  0.00     0.141 C 
HETATM   15  O   UNK N   1      34.004  17.828   5.876  0.00  0.00    -0.650 OA
BRANCH  14  16
HETATM   16  O   UNK N   1      34.820  18.663   7.765  0.00  0.00    -0.776 OA
HETATM   17  H   UNK N   1      34.245  19.270   8.187  0.00  0.00     0.167 HD
ENDBRANCH  14  16
ENDBRANCH  13  14
ENDBRANCH   1  13
BRANCH   1  18
HETATM   18  N   UNK N   1      34.065  15.314   9.860  0.00  0.00    -0.274 N 
HETATM   19  C   UNK N   1      34.824  15.755  10.898  0.00  0.00     0.262 A 
HETATM   20  O   UNK N   1      35.063  16.932  11.127  0.00  0.00    -0.267 OA
HETATM   21  C   UNK N   1      35.280  14.623  11.697  0.00  0.00     0.049 A 
HETATM   22  C   UNK N   1      36.046  14.557  12.857  0.00  0.00     0.036 A 
HETATM   23  C   UNK N   1      34.770  13.497  11.099  0.00  0.00     0.048 A 
HETATM   24  C   UNK N   1      36.279  13.287  13.426  0.00  0.00     0.038 A 
HETATM   25  C   UNK N   1      35.732  12.130  12.815  0.00  0.00     0.019 A 
HETATM   26  C   UNK N   1      34.972  12.230  11.635  0.00  0.00     0.019 A 
HETATM   27  C   UNK N   1      34.028  13.950   9.927  0.00  0.00     0.262 A 
HETATM   28  O   UNK N   1      33.443  13.223   9.139  0.00  0.00    -0.267 OA
BRANCH  24  29
HETATM   29  C   UNK N   1      37.087  13.166  14.656  0.00  0.00     0.176 C 
HETATM   30  O   UNK N   1      37.383  12.065  15.093  0.00  0.00    -0.646 OA
BRANCH  29  31
HETATM   31  O   UNK N   1      37.506  14.272  15.302  0.00  0.00    -0.773 OA
HETATM   32  H   UNK N   1      38.261  14.809  15.159  0.00  0.00     0.167 HD
ENDBRANCH  29  31
ENDBRANCH  24  29
ENDBRANCH   1  18
TORSDOF 8
ENDMDL
MODEL 7
REMARK VINA RESULT:      -7.8      2.266      3.171
REMARK  8 active torsions:
REMARK  status: ('A' for Active; 'I' for Inactive)
REMARK    1  A    between atoms: C_10  and  C_11 
REMARK    2  A    between atoms: C_11  and  C_12 
REMARK    3  A    between atoms: C_12  and  C_13 
REMARK    4  A    between atoms: C_12  and  N_17 
REMARK    5  A    between atoms: C_13  and  C_14 
REMARK    6  A    between atoms: C_14  and  O_16 
REMARK    7  A    between atoms: C_22  and  C_23 
REMARK    8  A    between atoms: C_23  and  O_24 
ROOT
HETATM    1  C   UNK N   1      21.064  15.899   7.708  0.00  0.00     0.110 C 
ENDROOT
BRANCH   1   2
HETATM    2  C   UNK N   1      21.076  14.369   7.889  0.00  0.00     0.065 C 
BRANCH   2   3
HETATM    3  C   UNK N   1      21.284  13.640   9.205  0.00  0.00    -0.045 A 
HETATM    4  C   UNK N   1      22.521  13.189   9.747  0.00  0.00    -0.020 A 
HETATM    5  C   UNK N   1      23.749  13.413   9.107  0.00  0.00     0.013 A 
HETATM    6  C   UNK N   1      22.520  12.464  10.970  0.00  0.00    -0.025 A 
HETATM    7  C   UNK N   1      24.939  12.916   9.645  0.00  0.00     0.001 A 
HETATM    8  C   UNK N   1      24.921  12.192  10.838  0.00  0.00     0.001 A 
HETATM    9  C   UNK N   1      23.715  11.973  11.502  0.00  0.00     0.012 A 
HETATM   10  C   UNK N   1      21.325  12.223  11.646  0.00  0.00     0.012 A 
HETATM   11  C   UNK N   1      20.122  12.686  11.124  0.00  0.00     0.001 A 
HETATM   12  C   UNK N   1      20.105  13.376   9.914  0.00  0.00     0.008 A 
ENDBRANCH   2   3
ENDBRANCH   1   2
BRANCH   1  13
HETATM   13  C   UNK N   1      19.619  16.305   7.384  0.00  0.00     0.136 C 
BRANCH  13  14
HETATM   14  C   UNK N   1      18.883  16.886   8.557  0.00  0.00     0.141 C 
HETATM   15  O   UNK N   1      18.085  16.197   9.170  0.00  0.00    -0.650 OA
BRANCH  14  16
HETATM   16  O   UNK N   1      19.111  18.154   8.951  0.00  0.00    -0.776 OA
HETATM   17  H   UNK N   1      19.791  18.676   8.573  0.00  0.00     0.167 HD
ENDBRANCH  14  16
ENDBRANCH  13  14
ENDBRANCH   1  13
BRANCH   1  18
HETATM   18  N   UNK N   1      21.946  16.423   6.658  0.00  0.00    -0.274 N 
HETATM   19  C   UNK N   1      22.006  17.737   6.314  0.00  0.00     0.262 A 
HETATM   20  O   UNK N   1      21.316  18.614   6.814  0.00  0.00    -0.267 OA
HETATM   21  C   UNK N   1      23.023  17.936   5.287  0.00  0.00     0.049 A 
HETATM   22  C   UNK N   1      23.474  19.082   4.639  0.00  0.00     0.036 A 
HETATM   23  C   UNK N   1      23.563  16.699   5.032  0.00  0.00     0.048 A 
HETATM   24  C   UNK N   1      24.527  18.948   3.710  0.00  0.00     0.038 A 
HETATM   25  C   UNK N   1      25.093  17.671   3.467  0.00  0.00     0.019 A 
HETATM   26  C   UNK N   1      24.606  16.528   4.129  0.00  0.00     0.019 A 
HETATM   27  C   UNK N   1      22.853  15.753   5.887  0.00  0.00     0.262 A 
HETATM   28  O   UNK N   1      23.056  14.549   5.926  0.00  0.00    -0.267 OA
BRANCH  24  29
HETATM   29  C   UNK N   1      25.038  20.136   2.998  0.00  0.00     0.176 C 
HETATM   30  O   UNK N   1      24.297  20.792   2.282  0.00  0.00    -0.646 OA
BRANCH  29  31
HETATM   31  O   UNK N   1      26.326  20.506   3.136  0.00  0.00    -0.773 OA
HETATM   32  H   UNK N   1      26.895  20.456   3.878  0.00  0.00     0.167 HD
ENDBRANCH  29  31
ENDBRANCH  24  29
ENDBRANCH   1  18
TORSDOF 8
ENDMDL
MODEL 8
REMARK VINA RESULT:      -7.8     15.180     18.334
REMARK  8 active torsions:
REMARK  status: ('A' for Active; 'I' for Inactive)
REMARK    1  A    between atoms: C_10  and  C_11 
REMARK    2  A    between atoms: C_11  and  C_12 
REMARK    3  A    between atoms: C_12  and  C_13 
REMARK    4  A    between atoms: C_12  and  N_17 
REMARK    5  A    between atoms: C_13  and  C_14 
REMARK    6  A    between atoms: C_14  and  O_16 
REMARK    7  A    between atoms: C_22  and  C_23 
REMARK    8  A    between atoms: C_23  and  O_24 
ROOT
HETATM    1  C   UNK N   1      26.778  24.353  -8.270  0.00  0.00     0.110 C 
ENDROOT
BRANCH   1   2
HETATM    2  C   UNK N   1      26.241  25.796  -8.189  0.00  0.00     0.065 C 
BRANCH   2   3
HETATM    3  C   UNK N   1      26.985  26.980  -7.599  0.00  0.00    -0.045 A 
HETATM    4  C   UNK N   1      26.709  27.634  -6.364  0.00  0.00    -0.020 A 
HETATM    5  C   UNK N   1      25.689  27.211  -5.500  0.00  0.00     0.013 A 
HETATM    6  C   UNK N   1      27.475  28.774  -5.997  0.00  0.00    -0.025 A 
HETATM    7  C   UNK N   1      25.416  27.905  -4.318  0.00  0.00     0.001 A 
HETATM    8  C   UNK N   1      26.165  29.032  -3.978  0.00  0.00     0.001 A 
HETATM    9  C   UNK N   1      27.197  29.461  -4.812  0.00  0.00     0.012 A 
HETATM   10  C   UNK N   1      28.504  29.229  -6.820  0.00  0.00     0.012 A 
HETATM   11  C   UNK N   1      28.785  28.572  -8.013  0.00  0.00     0.001 A 
HETATM   12  C   UNK N   1      28.026  27.468  -8.398  0.00  0.00     0.008 A 
ENDBRANCH   2   3
ENDBRANCH   1   2
BRANCH   1  13
HETATM   13  C   UNK N   1      25.601  23.415  -7.967  0.00  0.00     0.136 C 
BRANCH  13  14
HETATM   14  C   UNK N   1      25.735  22.061  -8.605  0.00  0.00     0.141 C 
HETATM   15  O   UNK N   1      25.168  21.832  -9.659  0.00  0.00    -0.650 OA
BRANCH  14  16
HETATM   16  O   UNK N   1      26.494  21.106  -8.034  0.00  0.00    -0.776 OA
HETATM   17  H   UNK N   1      27.325  21.298  -7.645  0.00  0.00     0.167 HD
ENDBRANCH  14  16
ENDBRANCH  13  14
ENDBRANCH   1  13
BRANCH   1  18
HETATM   18  N   UNK N   1      27.881  24.034  -7.355  0.00  0.00    -0.274 N 
HETATM   19  C   UNK N   1      27.716  23.830  -6.021  0.00  0.00     0.262 A 
HETATM   20  O   UNK N   1      26.645  23.920  -5.436  0.00  0.00    -0.267 OA
HETATM   21  C   UNK N   1      28.990  23.471  -5.411  0.00  0.00     0.049 A 
HETATM   22  C   UNK N   1      29.332  23.143  -4.102  0.00  0.00     0.036 A 
HETATM   23  C   UNK N   1      29.918  23.469  -6.424  0.00  0.00     0.048 A 
HETATM   24  C   UNK N   1      30.670  22.787  -3.835  0.00  0.00     0.038 A 
HETATM   25  C   UNK N   1      31.618  22.768  -4.890  0.00  0.00     0.019 A 
HETATM   26  C   UNK N   1      31.244  23.117  -6.201  0.00  0.00     0.019 A 
HETATM   27  C   UNK N   1      29.204  23.853  -7.639  0.00  0.00     0.262 A 
HETATM   28  O   UNK N   1      29.709  23.969  -8.745  0.00  0.00    -0.267 OA
BRANCH  24  29
HETATM   29  C   UNK N   1      31.080  22.433  -2.462  0.00  0.00     0.176 C 
HETATM   30  O   UNK N   1      30.512  22.929  -1.501  0.00  0.00    -0.646 OA
BRANCH  29  31
HETATM   31  O   UNK N   1      32.083  21.555  -2.259  0.00  0.00    -0.773 OA
HETATM   32  H   UNK N   1      32.208  20.690  -2.595  0.00  0.00     0.167 HD
ENDBRANCH  29  31
ENDBRANCH  24  29
ENDBRANCH   1  18
TORSDOF 8
ENDMDL
MODEL 9
REMARK VINA RESULT:      -7.7     10.889     14.818
REMARK  8 active torsions:
REMARK  status: ('A' for Active; 'I' for Inactive)
REMARK    1  A    between atoms: C_10  and  C_11 
REMARK    2  A    between atoms: C_11  and  C_12 
REMARK    3  A    between atoms: C_12  and  C_13 
REMARK    4  A    between atoms: C_12  and  N_17 
REMARK    5  A    between atoms: C_13  and  C_14 
REMARK    6  A    between atoms: C_14  and  O_16 
REMARK    7  A    between atoms: C_22  and  C_23 
REMARK    8  A    between atoms: C_23  and  O_24 
ROOT
HETATM    1  C   UNK N   1      33.448  16.016   8.748  0.00  0.00     0.110 C 
ENDROOT
BRANCH   1   2
HETATM    2  C   UNK N   1      32.158  15.403   8.169  0.00  0.00     0.065 C 
BRANCH   2   3
HETATM    3  C   UNK N   1      31.163  16.127   7.280  0.00  0.00    -0.045 A 
HETATM    4  C   UNK N   1      30.184  17.078   7.690  0.00  0.00    -0.020 A 
HETATM    5  C   UNK N   1      30.052  17.495   9.021  0.00  0.00     0.013 A 
HETATM    6  C   UNK N   1      29.288  17.611   6.723  0.00  0.00    -0.025 A 
HETATM    7  C   UNK N   1      29.051  18.396   9.395  0.00  0.00     0.001 A 
HETATM    8  C   UNK N   1      28.168  18.899   8.439  0.00  0.00     0.001 A 
HETATM    9  C   UNK N   1      28.291  18.513   7.105  0.00  0.00     0.012 A 
HETATM   10  C   UNK N   1      29.385  17.231   5.385  0.00  0.00     0.012 A 
HETATM   11  C   UNK N   1      30.357  16.320   4.987  0.00  0.00     0.001 A 
HETATM   12  C   UNK N   1      31.226  15.770   5.928  0.00  0.00     0.008 A 
ENDBRANCH   2   3
ENDBRANCH   1   2
BRANCH   1  13
HETATM   13  C   UNK N   1      34.419  16.219   7.576  0.00  0.00     0.136 C 
BRANCH  13  14
HETATM   14  C   UNK N   1      34.430  17.624   7.045  0.00  0.00     0.141 C 
HETATM   15  O   UNK N   1      34.063  17.841   5.903  0.00  0.00    -0.650 OA
BRANCH  14  16
HETATM   16  O   UNK N   1      34.821  18.650   7.826  0.00  0.00    -0.776 OA
HETATM   17  H   UNK N   1      35.667  18.674   8.227  0.00  0.00     0.167 HD
ENDBRANCH  14  16
ENDBRANCH  13  14
ENDBRANCH   1  13
BRANCH   1  18
HETATM   18  N   UNK N   1      34.121  15.220   9.783  0.00  0.00    -0.274 N 
HETATM   19  C   UNK N   1      34.837  15.766  10.802  0.00  0.00     0.262 A 
HETATM   20  O   UNK N   1      35.024  16.965  10.950  0.00  0.00    -0.267 OA
HETATM   21  C   UNK N   1      35.320  14.714  11.689  0.00  0.00     0.049 A 
HETATM   22  C   UNK N   1      36.061  14.762  12.867  0.00  0.00     0.036 A 
HETATM   23  C   UNK N   1      34.869  13.528  11.164  0.00  0.00     0.048 A 
HETATM   24  C   UNK N   1      36.331  13.547  13.530  0.00  0.00     0.038 A 
HETATM   25  C   UNK N   1      35.845  12.327  12.993  0.00  0.00     0.019 A 
HETATM   26  C   UNK N   1      35.109  12.311  11.793  0.00  0.00     0.019 A 
HETATM   27  C   UNK N   1      34.138  13.865   9.947  0.00  0.00     0.262 A 
HETATM   28  O   UNK N   1      33.600  13.060   9.202  0.00  0.00    -0.267 OA
BRANCH  24  29
HETATM   29  C   UNK N   1      37.114  13.548  14.782  0.00  0.00     0.176 C 
HETATM   30  O   UNK N   1      36.961  14.437  15.605  0.00  0.00    -0.646 OA
BRANCH  29  31
HETATM   31  O   UNK N   1      38.002  12.564  15.026  0.00  0.00    -0.773 OA
HETATM   32  H   UNK N   1      38.103  12.010  15.775  0.00  0.00     0.167 HD
ENDBRANCH  29  31
ENDBRANCH  24  29
ENDBRANCH   1  18
TORSDOF 8
ENDMDL
