REMARK  8 active torsions:
REMARK  status: ('A' for Active; 'I' for Inactive)
REMARK    1  A    between atoms: C_10  and  C_11 
REMARK    2  A    between atoms: C_11  and  C_12 
REMARK    3  A    between atoms: C_12  and  C_13 
REMARK    4  A    between atoms: C_12  and  N_17 
REMARK    5  A    between atoms: C_13  and  C_14 
REMARK    6  A    between atoms: C_14  and  O_16 
REMARK    7  A    between atoms: C_22  and  C_23 
REMARK    8  A    between atoms: C_23  and  O_24 
ROOT
HETATM    1  C   UNK N   1      -1.569   1.183   0.130  0.00  0.00     0.110 C 
ENDROOT
BRANCH   1   2
HETATM    2  C   UNK N   1      -2.260   0.001  -0.578  0.00  0.00     0.065 C 
BRANCH   2   3
HETATM    3  C   UNK N   1      -2.026  -1.467  -0.270  0.00  0.00    -0.045 A 
HETATM    4  C   UNK N   1      -1.035  -2.012   0.596  0.00  0.00    -0.020 A 
HETATM    5  C   UNK N   1      -0.146  -1.207   1.322  0.00  0.00     0.013 A 
HETATM    6  C   UNK N   1      -0.920  -3.424   0.717  0.00  0.00    -0.025 A 
HETATM    7  C   UNK N   1       0.844  -1.777   2.127  0.00  0.00     0.001 A 
HETATM    8  C   UNK N   1       0.956  -3.165   2.224  0.00  0.00     0.001 A 
HETATM    9  C   UNK N   1       0.071  -3.986   1.526  0.00  0.00     0.012 A 
HETATM   10  C   UNK N   1      -1.786  -4.265   0.020  0.00  0.00     0.012 A 
HETATM   11  C   UNK N   1      -2.767  -3.727  -0.806  0.00  0.00     0.001 A 
HETATM   12  C   UNK N   1      -2.875  -2.346  -0.954  0.00  0.00     0.008 A 
ENDBRANCH   2   3
ENDBRANCH   1   2
BRANCH   1  13
HETATM   13  C   UNK N   1      -2.314   2.459  -0.288  0.00  0.00     0.136 C 
BRANCH  13  14
HETATM   14  C   UNK N   1      -3.706   2.549   0.269  0.00  0.00     0.141 C 
HETATM   15  O   UNK N   1      -4.001   3.472   1.009  0.00  0.00    -0.650 OA
BRANCH  14  16
HETATM   16  O   UNK N   1      -4.637   1.632  -0.058  0.00  0.00    -0.776 OA
HETATM   17  H   UNK N   1      -5.513   1.874  -0.286  0.00  0.00     0.167 HD
ENDBRANCH  14  16
ENDBRANCH  13  14
ENDBRANCH   1  13
BRANCH   1  18
HETATM   18  N   UNK N   1      -0.141   1.354  -0.165  0.00  0.00    -0.274 N 
HETATM   19  C   UNK N   1       0.624   2.341   0.373  0.00  0.00     0.262 A 
HETATM   20  O   UNK N   1       0.204   3.205   1.130  0.00  0.00    -0.267 OA
HETATM   21  C   UNK N   1       2.006   2.196  -0.069  0.00  0.00     0.049 A 
HETATM   22  C   UNK N   1       3.154   2.927   0.223  0.00  0.00     0.036 A 
HETATM   23  C   UNK N   1       2.037   1.093  -0.887  0.00  0.00     0.048 A 
HETATM   24  C   UNK N   1       4.375   2.495  -0.336  0.00  0.00     0.038 A 
HETATM   25  C   UNK N   1       4.403   1.343  -1.164  0.00  0.00     0.019 A 
HETATM   26  C   UNK N   1       3.222   0.633  -1.450  0.00  0.00     0.019 A 
HETATM   27  C   UNK N   1       0.668   0.591  -0.957  0.00  0.00     0.262 A 
HETATM   28  O   UNK N   1       0.306  -0.379  -1.605  0.00  0.00    -0.267 OA
BRANCH  24  29
HETATM   29  C   UNK N   1       5.619   3.239  -0.056  0.00  0.00     0.176 C 
HETATM   30  O   UNK N   1       6.688   2.839  -0.491  0.00  0.00    -0.646 OA
BRANCH  29  31
HETATM   31  O   UNK N   1       5.582   4.368   0.679  0.00  0.00    -0.773 OA
HETATM   32  H   UNK N   1       6.250   4.782   1.189  0.00  0.00     0.167 HD
ENDBRANCH  29  31
ENDBRANCH  24  29
ENDBRANCH   1  18
TORSDOF 8
