MODEL 1
REMARK VINA RESULT:      -6.3      0.000      0.000
REMARK  12 active torsions:
REMARK  status: ('A' for Active; 'I' for Inactive)
REMARK    1  A    between atoms: C_2  and  O_3 
REMARK       I    between atoms: C_2  and  N_11 
REMARK    2  A    between atoms: O_3  and  C_4 
REMARK    3  A    between atoms: C_4  and  C_5 
REMARK    4  A    between atoms: C_12  and  N_11 
REMARK    5  A    between atoms: C_12  and  C_20 
REMARK    6  A    between atoms: C_12  and  C_13 
REMARK    7  A    between atoms: C_13  and  C_14 
REMARK       I    between atoms: C_20  and  N_22 
REMARK    8  A    between atoms: N_22  and  C_23 
REMARK    9  A    between atoms: C_23  and  C_25 
REMARK   10  A    between atoms: C_25  and  C_27 
REMARK   11  A    between atoms: C_27  and  C_28 
REMARK   12  A    between atoms: C_28  and  O_29 
ROOT
HETATM    1  C   UNK N   1      28.047  23.837  -4.935  0.00  0.00     0.183 C 
ENDROOT
BRANCH   1   2
HETATM    2  N   UNK N   1      28.933  23.550  -3.821  0.00  0.00    -0.323 N 
HETATM    3  C   UNK N   1      29.986  24.345  -3.506  0.00  0.00     0.361 C 
HETATM    4  O   UNK N   1      30.683  24.066  -2.545  0.00  0.00    -0.238 OA
HETATM    5  H   UNK N   1      28.763  22.749  -3.274  0.00  0.00     0.165 HD
BRANCH   3   6
HETATM    6  O   UNK N   1      30.286  25.414  -4.295  0.00  0.00    -0.299 OA
BRANCH   6   7
HETATM    7  C   UNK N   1      30.113  26.730  -3.912  0.00  0.00     0.219 C 
BRANCH   7   8
HETATM    8  C   UNK N   1      29.352  27.487  -4.957  0.00  0.00    -0.034 A 
HETATM    9  C   UNK N   1      29.032  28.830  -4.743  0.00  0.00     0.009 A 
HETATM   10  C   UNK N   1      28.356  29.553  -5.731  0.00  0.00     0.001 A 
HETATM   11  C   UNK N   1      28.012  28.937  -6.938  0.00  0.00     0.000 A 
HETATM   12  C   UNK N   1      28.333  27.594  -7.155  0.00  0.00     0.001 A 
HETATM   13  C   UNK N   1      29.000  26.868  -6.164  0.00  0.00     0.009 A 
ENDBRANCH   7   8
ENDBRANCH   6   7
ENDBRANCH   3   6
ENDBRANCH   1   2
BRANCH   1  14
HETATM   14  C   UNK N   1      28.338  22.860  -6.084  0.00  0.00     0.241 C 
HETATM   15  O   UNK N   1      29.145  21.976  -5.840  0.00  0.00    -0.271 OA
HETATM   16  N   UNK N   1      27.853  22.918  -7.365  0.00  0.00    -0.348 N 
HETATM   17  H   UNK N   1      28.203  22.215  -7.959  0.00  0.00     0.163 HD
BRANCH  16  18
HETATM   18  C   UNK N   1      26.919  23.823  -8.010  0.00  0.00     0.150 C 
HETATM   19  C   UNK N   1      27.461  24.175  -9.386  0.00  0.00     0.040 C 
BRANCH  18  20
HETATM   20  C   UNK N   1      25.562  23.163  -8.089  0.00  0.00     0.151 C 
HETATM   21  O   UNK N   1      24.674  23.687  -8.743  0.00  0.00    -0.296 OA
BRANCH  20  22
HETATM   22  C   UNK N   1      25.295  21.844  -7.426  0.00  0.00     0.106 C 
BRANCH  22  23
HETATM   23  C   UNK N   1      25.513  20.695  -8.386  0.00  0.00     0.171 C 
BRANCH  23  24
HETATM   24  O   UNK N   1      25.144  21.104  -9.668  0.00  0.00    -0.400 OA
HETATM   25  H   UNK N   1      24.856  21.987  -9.946  0.00  0.00     0.209 HD
ENDBRANCH  23  24
ENDBRANCH  22  23
ENDBRANCH  20  22
ENDBRANCH  18  20
ENDBRANCH  16  18
ENDBRANCH   1  14
BRANCH   1  26
HETATM   26  C   UNK N   1      26.613  24.024  -4.417  0.00  0.00     0.073 C 
BRANCH  26  27
HETATM   27  C   UNK N   1      26.106  25.442  -4.463  0.00  0.00    -0.056 A 
HETATM   28  C   UNK N   1      25.373  25.917  -5.558  0.00  0.00     0.007 A 
HETATM   29  C   UNK N   1      24.920  27.238  -5.588  0.00  0.00     0.001 A 
HETATM   30  C   UNK N   1      25.201  28.094  -4.521  0.00  0.00     0.000 A 
HETATM   31  C   UNK N   1      25.930  27.625  -3.423  0.00  0.00     0.001 A 
HETATM   32  C   UNK N   1      26.379  26.301  -3.394  0.00  0.00     0.007 A 
ENDBRANCH  26  27
ENDBRANCH   1  26
TORSDOF 12
ENDMDL
MODEL 2
REMARK VINA RESULT:      -6.2      2.588      6.061
REMARK  12 active torsions:
REMARK  status: ('A' for Active; 'I' for Inactive)
REMARK    1  A    between atoms: C_2  and  O_3 
REMARK       I    between atoms: C_2  and  N_11 
REMARK    2  A    between atoms: O_3  and  C_4 
REMARK    3  A    between atoms: C_4  and  C_5 
REMARK    4  A    between atoms: C_12  and  N_11 
REMARK    5  A    between atoms: C_12  and  C_20 
REMARK    6  A    between atoms: C_12  and  C_13 
REMARK    7  A    between atoms: C_13  and  C_14 
REMARK       I    between atoms: C_20  and  N_22 
REMARK    8  A    between atoms: N_22  and  C_23 
REMARK    9  A    between atoms: C_23  and  C_25 
REMARK   10  A    between atoms: C_25  and  C_27 
REMARK   11  A    between atoms: C_27  and  C_28 
REMARK   12  A    between atoms: C_28  and  O_29 
ROOT
HETATM    1  C   UNK N   1      26.999  24.761  -4.907  0.00  0.00     0.183 C 
ENDROOT
BRANCH   1   2
HETATM    2  N   UNK N   1      26.755  26.188  -4.794  0.00  0.00    -0.323 N 
HETATM    3  C   UNK N   1      27.178  27.075  -5.729  0.00  0.00     0.361 C 
HETATM    4  O   UNK N   1      26.923  28.260  -5.592  0.00  0.00    -0.238 OA
HETATM    5  H   UNK N   1      26.264  26.525  -4.009  0.00  0.00     0.165 HD
BRANCH   3   6
HETATM    6  O   UNK N   1      27.925  26.642  -6.782  0.00  0.00    -0.299 OA
BRANCH   6   7
HETATM    7  C   UNK N   1      27.779  27.104  -8.076  0.00  0.00     0.219 C 
BRANCH   7   8
HETATM    8  C   UNK N   1      27.163  26.051  -8.945  0.00  0.00    -0.034 A 
HETATM    9  C   UNK N   1      27.985  25.187  -9.673  0.00  0.00     0.009 A 
HETATM   10  C   UNK N   1      27.418  24.177 -10.456  0.00  0.00     0.001 A 
HETATM   11  C   UNK N   1      26.028  24.023 -10.502  0.00  0.00     0.000 A 
HETATM   12  C   UNK N   1      25.204  24.885  -9.773  0.00  0.00     0.001 A 
HETATM   13  C   UNK N   1      25.771  25.902  -8.998  0.00  0.00     0.009 A 
ENDBRANCH   7   8
ENDBRANCH   6   7
ENDBRANCH   3   6
ENDBRANCH   1   2
BRANCH   1  14
HETATM   14  C   UNK N   1      27.409  24.203  -3.536  0.00  0.00     0.241 C 
HETATM   15  O   UNK N   1      26.501  24.028  -2.738  0.00  0.00    -0.271 OA
HETATM   16  N   UNK N   1      28.682  23.957  -3.088  0.00  0.00    -0.348 N 
HETATM   17  H   UNK N   1      28.725  23.642  -2.156  0.00  0.00     0.163 HD
BRANCH  16  18
HETATM   18  C   UNK N   1      29.977  24.074  -3.732  0.00  0.00     0.150 C 
HETATM   19  C   UNK N   1      30.384  25.539  -3.734  0.00  0.00     0.040 C 
BRANCH  18  20
HETATM   20  C   UNK N   1      30.977  23.210  -2.996  0.00  0.00     0.151 C 
HETATM   21  O   UNK N   1      30.802  22.961  -1.813  0.00  0.00    -0.296 OA
BRANCH  20  22
HETATM   22  C   UNK N   1      32.153  22.603  -3.702  0.00  0.00     0.106 C 
BRANCH  22  23
HETATM   23  C   UNK N   1      32.363  21.167  -3.277  0.00  0.00     0.171 C 
BRANCH  23  24
HETATM   24  O   UNK N   1      32.895  21.151  -1.988  0.00  0.00    -0.400 OA
HETATM   25  H   UNK N   1      32.561  21.618  -1.206  0.00  0.00     0.209 HD
ENDBRANCH  23  24
ENDBRANCH  22  23
ENDBRANCH  20  22
ENDBRANCH  18  20
ENDBRANCH  16  18
ENDBRANCH   1  14
BRANCH   1  26
HETATM   26  C   UNK N   1      25.861  24.106  -5.704  0.00  0.00     0.073 C 
BRANCH  26  27
HETATM   27  C   UNK N   1      26.296  22.999  -6.629  0.00  0.00    -0.056 A 
HETATM   28  C   UNK N   1      27.652  22.758  -6.888  0.00  0.00     0.007 A 
HETATM   29  C   UNK N   1      28.036  21.734  -7.756  0.00  0.00     0.001 A 
HETATM   30  C   UNK N   1      27.065  20.945  -8.374  0.00  0.00     0.000 A 
HETATM   31  C   UNK N   1      25.709  21.178  -8.118  0.00  0.00     0.001 A 
HETATM   32  C   UNK N   1      25.327  22.202  -7.246  0.00  0.00     0.007 A 
ENDBRANCH  26  27
ENDBRANCH   1  26
TORSDOF 12
ENDMDL
MODEL 3
REMARK VINA RESULT:      -6.1     14.025     17.626
REMARK  12 active torsions:
REMARK  status: ('A' for Active; 'I' for Inactive)
REMARK    1  A    between atoms: C_2  and  O_3 
REMARK       I    between atoms: C_2  and  N_11 
REMARK    2  A    between atoms: O_3  and  C_4 
REMARK    3  A    between atoms: C_4  and  C_5 
REMARK    4  A    between atoms: C_12  and  N_11 
REMARK    5  A    between atoms: C_12  and  C_20 
REMARK    6  A    between atoms: C_12  and  C_13 
REMARK    7  A    between atoms: C_13  and  C_14 
REMARK       I    between atoms: C_20  and  N_22 
REMARK    8  A    between atoms: N_22  and  C_23 
REMARK    9  A    between atoms: C_23  and  C_25 
REMARK   10  A    between atoms: C_25  and  C_27 
REMARK   11  A    between atoms: C_27  and  C_28 
REMARK   12  A    between atoms: C_28  and  O_29 
ROOT
HETATM    1  C   UNK N   1      32.295  17.457   7.965  0.00  0.00     0.183 C 
ENDROOT
BRANCH   1   2
HETATM    2  N   UNK N   1      31.447  17.539   9.141  0.00  0.00    -0.323 N 
HETATM    3  C   UNK N   1      30.204  18.081   9.104  0.00  0.00     0.361 C 
HETATM    4  O   UNK N   1      29.528  18.102  10.119  0.00  0.00    -0.238 OA
HETATM    5  H   UNK N   1      31.786  17.188   9.996  0.00  0.00     0.165 HD
BRANCH   3   6
HETATM    6  O   UNK N   1      29.744  18.642   7.952  0.00  0.00    -0.299 OA
BRANCH   6   7
HETATM    7  C   UNK N   1      28.477  18.436   7.443  0.00  0.00     0.219 C 
BRANCH   7   8
HETATM    8  C   UNK N   1      28.529  17.538   6.246  0.00  0.00    -0.034 A 
HETATM    9  C   UNK N   1      28.704  18.089   4.974  0.00  0.00     0.009 A 
HETATM   10  C   UNK N   1      28.793  17.253   3.857  0.00  0.00     0.001 A 
HETATM   11  C   UNK N   1      28.718  15.865   4.012  0.00  0.00     0.000 A 
HETATM   12  C   UNK N   1      28.545  15.312   5.284  0.00  0.00     0.001 A 
HETATM   13  C   UNK N   1      28.446  16.147   6.401  0.00  0.00     0.009 A 
ENDBRANCH   7   8
ENDBRANCH   6   7
ENDBRANCH   3   6
ENDBRANCH   1   2
BRANCH   1  14
HETATM   14  C   UNK N   1      33.731  17.849   8.344  0.00  0.00     0.241 C 
HETATM   15  O   UNK N   1      34.090  18.962   7.991  0.00  0.00    -0.271 OA
HETATM   16  N   UNK N   1      34.671  17.063   8.960  0.00  0.00    -0.348 N 
HETATM   17  H   UNK N   1      35.547  17.497   9.069  0.00  0.00     0.163 HD
BRANCH  16  18
HETATM   18  C   UNK N   1      34.613  15.710   9.482  0.00  0.00     0.150 C 
HETATM   19  C   UNK N   1      35.053  14.751   8.387  0.00  0.00     0.040 C 
BRANCH  18  20
HETATM   20  C   UNK N   1      35.495  15.613  10.706  0.00  0.00     0.151 C 
HETATM   21  O   UNK N   1      36.476  16.334  10.801  0.00  0.00    -0.296 OA
BRANCH  20  22
HETATM   22  C   UNK N   1      35.160  14.688  11.839  0.00  0.00     0.106 C 
BRANCH  22  23
HETATM   23  C   UNK N   1      36.026  13.448  11.806  0.00  0.00     0.171 C 
BRANCH  23  24
HETATM   24  O   UNK N   1      37.260  13.745  12.384  0.00  0.00    -0.400 OA
HETATM   25  H   UNK N   1      37.445  14.395  13.080  0.00  0.00     0.209 HD
ENDBRANCH  23  24
ENDBRANCH  22  23
ENDBRANCH  20  22
ENDBRANCH  18  20
ENDBRANCH  16  18
ENDBRANCH   1  14
BRANCH   1  26
HETATM   26  C   UNK N   1      32.018  16.141   7.222  0.00  0.00     0.073 C 
BRANCH  26  27
HETATM   27  C   UNK N   1      32.197  16.213   5.727  0.00  0.00    -0.056 A 
HETATM   28  C   UNK N   1      32.245  15.051   4.945  0.00  0.00     0.007 A 
HETATM   29  C   UNK N   1      32.422  15.136   3.562  0.00  0.00     0.001 A 
HETATM   30  C   UNK N   1      32.554  16.385   2.953  0.00  0.00     0.000 A 
HETATM   31  C   UNK N   1      32.504  17.549   3.728  0.00  0.00     0.001 A 
HETATM   32  C   UNK N   1      32.324  17.461   5.112  0.00  0.00     0.007 A 
ENDBRANCH  26  27
ENDBRANCH   1  26
TORSDOF 12
ENDMDL
MODEL 4
REMARK VINA RESULT:      -6.0     16.039     18.250
REMARK  12 active torsions:
REMARK  status: ('A' for Active; 'I' for Inactive)
REMARK    1  A    between atoms: C_2  and  O_3 
REMARK       I    between atoms: C_2  and  N_11 
REMARK    2  A    between atoms: O_3  and  C_4 
REMARK    3  A    between atoms: C_4  and  C_5 
REMARK    4  A    between atoms: C_12  and  N_11 
REMARK    5  A    between atoms: C_12  and  C_20 
REMARK    6  A    between atoms: C_12  and  C_13 
REMARK    7  A    between atoms: C_13  and  C_14 
REMARK       I    between atoms: C_20  and  N_22 
REMARK    8  A    between atoms: N_22  and  C_23 
REMARK    9  A    between atoms: C_23  and  C_25 
REMARK   10  A    between atoms: C_25  and  C_27 
REMARK   11  A    between atoms: C_27  and  C_28 
REMARK   12  A    between atoms: C_28  and  O_29 
ROOT
HETATM    1  C   UNK N   1      20.329  14.606   5.692  0.00  0.00     0.183 C 
ENDROOT
BRANCH   1   2
HETATM    2  N   UNK N   1      20.224  15.725   6.610  0.00  0.00    -0.323 N 
HETATM    3  C   UNK N   1      20.143  15.558   7.954  0.00  0.00     0.361 C 
HETATM    4  O   UNK N   1      20.081  16.538   8.679  0.00  0.00    -0.238 OA
HETATM    5  H   UNK N   1      20.213  16.640   6.245  0.00  0.00     0.165 HD
BRANCH   3   6
HETATM    6  O   UNK N   1      20.080  14.302   8.477  0.00  0.00    -0.299 OA
BRANCH   6   7
HETATM    7  C   UNK N   1      20.293  14.007   9.809  0.00  0.00     0.219 C 
BRANCH   7   8
HETATM    8  C   UNK N   1      21.606  13.310   9.991  0.00  0.00    -0.034 A 
HETATM    9  C   UNK N   1      22.756  13.832   9.393  0.00  0.00     0.009 A 
HETATM   10  C   UNK N   1      23.991  13.208   9.591  0.00  0.00     0.001 A 
HETATM   11  C   UNK N   1      24.080  12.068  10.396  0.00  0.00     0.000 A 
HETATM   12  C   UNK N   1      22.931  11.545  10.997  0.00  0.00     0.001 A 
HETATM   13  C   UNK N   1      21.694  12.163  10.791  0.00  0.00     0.009 A 
ENDBRANCH   7   8
ENDBRANCH   6   7
ENDBRANCH   3   6
ENDBRANCH   1   2
BRANCH   1  14
HETATM   14  C   UNK N   1      19.232  14.720   4.622  0.00  0.00     0.241 C 
HETATM   15  O   UNK N   1      18.220  14.067   4.825  0.00  0.00    -0.271 OA
HETATM   16  N   UNK N   1      19.297  15.407   3.437  0.00  0.00    -0.348 N 
HETATM   17  H   UNK N   1      18.495  15.310   2.874  0.00  0.00     0.163 HD
BRANCH  16  18
HETATM   18  C   UNK N   1      20.327  16.250   2.859  0.00  0.00     0.150 C 
HETATM   19  C   UNK N   1      20.158  16.249   1.348  0.00  0.00     0.040 C 
BRANCH  18  20
HETATM   20  C   UNK N   1      20.213  17.642   3.439  0.00  0.00     0.151 C 
HETATM   21  O   UNK N   1      20.762  17.899   4.500  0.00  0.00    -0.296 OA
BRANCH  20  22
HETATM   22  C   UNK N   1      19.487  18.734   2.713  0.00  0.00     0.106 C 
BRANCH  22  23
HETATM   23  C   UNK N   1      20.338  19.980   2.607  0.00  0.00     0.171 C 
BRANCH  23  24
HETATM   24  O   UNK N   1      20.335  20.633   3.840  0.00  0.00    -0.400 OA
HETATM   25  H   UNK N   1      20.067  21.546   4.024  0.00  0.00     0.209 HD
ENDBRANCH  23  24
ENDBRANCH  22  23
ENDBRANCH  20  22
ENDBRANCH  18  20
ENDBRANCH  16  18
ENDBRANCH   1  14
BRANCH   1  26
HETATM   26  C   UNK N   1      21.797  14.412   5.283  0.00  0.00     0.073 C 
BRANCH  26  27
HETATM   27  C   UNK N   1      22.440  13.160   5.822  0.00  0.00    -0.056 A 
HETATM   28  C   UNK N   1      23.831  12.989   5.798  0.00  0.00     0.007 A 
HETATM   29  C   UNK N   1      24.408  11.818   6.293  0.00  0.00     0.001 A 
HETATM   30  C   UNK N   1      23.597  10.807   6.813  0.00  0.00     0.000 A 
HETATM   31  C   UNK N   1      22.208  10.973   6.843  0.00  0.00     0.001 A 
HETATM   32  C   UNK N   1      21.632  12.148   6.350  0.00  0.00     0.007 A 
ENDBRANCH  26  27
ENDBRANCH   1  26
TORSDOF 12
ENDMDL
MODEL 5
REMARK VINA RESULT:      -5.9     13.801     17.252
REMARK  12 active torsions:
REMARK  status: ('A' for Active; 'I' for Inactive)
REMARK    1  A    between atoms: C_2  and  O_3 
REMARK       I    between atoms: C_2  and  N_11 
REMARK    2  A    between atoms: O_3  and  C_4 
REMARK    3  A    between atoms: C_4  and  C_5 
REMARK    4  A    between atoms: C_12  and  N_11 
REMARK    5  A    between atoms: C_12  and  C_20 
REMARK    6  A    between atoms: C_12  and  C_13 
REMARK    7  A    between atoms: C_13  and  C_14 
REMARK       I    between atoms: C_20  and  N_22 
REMARK    8  A    between atoms: N_22  and  C_23 
REMARK    9  A    between atoms: C_23  and  C_25 
REMARK   10  A    between atoms: C_25  and  C_27 
REMARK   11  A    between atoms: C_27  and  C_28 
REMARK   12  A    between atoms: C_28  and  O_29 
ROOT
HETATM    1  C   UNK N   1      32.125  17.611   8.061  0.00  0.00     0.183 C 
ENDROOT
BRANCH   1   2
HETATM    2  N   UNK N   1      31.361  17.863   9.269  0.00  0.00    -0.323 N 
HETATM    3  C   UNK N   1      30.113  18.395   9.243  0.00  0.00     0.361 C 
HETATM    4  O   UNK N   1      29.510  18.563  10.289  0.00  0.00    -0.238 OA
HETATM    5  H   UNK N   1      31.763  17.640  10.140  0.00  0.00     0.165 HD
BRANCH   3   6
HETATM    6  O   UNK N   1      29.569  18.783   8.057  0.00  0.00    -0.299 OA
BRANCH   6   7
HETATM    7  C   UNK N   1      28.464  18.186   7.481  0.00  0.00     0.219 C 
BRANCH   7   8
HETATM    8  C   UNK N   1      27.963  19.004   6.330  0.00  0.00    -0.034 A 
HETATM    9  C   UNK N   1      27.882  18.432   5.058  0.00  0.00     0.009 A 
HETATM   10  C   UNK N   1      27.379  19.178   3.987  0.00  0.00     0.001 A 
HETATM   11  C   UNK N   1      26.944  20.492   4.191  0.00  0.00     0.000 A 
HETATM   12  C   UNK N   1      27.023  21.065   5.464  0.00  0.00     0.001 A 
HETATM   13  C   UNK N   1      27.535  20.323   6.533  0.00  0.00     0.009 A 
ENDBRANCH   7   8
ENDBRANCH   6   7
ENDBRANCH   3   6
ENDBRANCH   1   2
BRANCH   1  14
HETATM   14  C   UNK N   1      33.624  17.758   8.365  0.00  0.00     0.241 C 
HETATM   15  O   UNK N   1      34.168  18.745   7.896  0.00  0.00    -0.271 OA
HETATM   16  N   UNK N   1      34.426  16.869   9.033  0.00  0.00    -0.348 N 
HETATM   17  H   UNK N   1      35.372  17.138   9.078  0.00  0.00     0.163 HD
BRANCH  16  18
HETATM   18  C   UNK N   1      34.140  15.605   9.687  0.00  0.00     0.150 C 
HETATM   19  C   UNK N   1      34.498  14.476   8.733  0.00  0.00     0.040 C 
BRANCH  18  20
HETATM   20  C   UNK N   1      34.924  15.525  10.977  0.00  0.00     0.151 C 
HETATM   21  O   UNK N   1      35.483  16.523  11.406  0.00  0.00    -0.296 OA
BRANCH  20  22
HETATM   22  C   UNK N   1      34.985  14.258  11.777  0.00  0.00     0.106 C 
BRANCH  22  23
HETATM   23  C   UNK N   1      36.401  13.955  12.215  0.00  0.00     0.171 C 
BRANCH  23  24
HETATM   24  O   UNK N   1      36.684  14.691  13.366  0.00  0.00    -0.400 OA
HETATM   25  H   UNK N   1      37.402  15.330  13.496  0.00  0.00     0.209 HD
ENDBRANCH  23  24
ENDBRANCH  22  23
ENDBRANCH  20  22
ENDBRANCH  18  20
ENDBRANCH  16  18
ENDBRANCH   1  14
BRANCH   1  26
HETATM   26  C   UNK N   1      31.592  16.347   7.370  0.00  0.00     0.073 C 
BRANCH  26  27
HETATM   27  C   UNK N   1      31.439  16.464   5.875  0.00  0.00    -0.056 A 
HETATM   28  C   UNK N   1      32.270  17.304   5.122  0.00  0.00     0.007 A 
HETATM   29  C   UNK N   1      32.106  17.407   3.739  0.00  0.00     0.001 A 
HETATM   30  C   UNK N   1      31.106  16.671   3.100  0.00  0.00     0.000 A 
HETATM   31  C   UNK N   1      30.275  15.829   3.845  0.00  0.00     0.001 A 
HETATM   32  C   UNK N   1      30.443  15.724   5.230  0.00  0.00     0.007 A 
ENDBRANCH  26  27
ENDBRANCH   1  26
TORSDOF 12
ENDMDL
MODEL 6
REMARK VINA RESULT:      -5.9     18.065     21.559
REMARK  12 active torsions:
REMARK  status: ('A' for Active; 'I' for Inactive)
REMARK    1  A    between atoms: C_2  and  O_3 
REMARK       I    between atoms: C_2  and  N_11 
REMARK    2  A    between atoms: O_3  and  C_4 
REMARK    3  A    between atoms: C_4  and  C_5 
REMARK    4  A    between atoms: C_12  and  N_11 
REMARK    5  A    between atoms: C_12  and  C_20 
REMARK    6  A    between atoms: C_12  and  C_13 
REMARK    7  A    between atoms: C_13  and  C_14 
REMARK       I    between atoms: C_20  and  N_22 
REMARK    8  A    between atoms: N_22  and  C_23 
REMARK    9  A    between atoms: C_23  and  C_25 
REMARK   10  A    between atoms: C_25  and  C_27 
REMARK   11  A    between atoms: C_27  and  C_28 
REMARK   12  A    between atoms: C_28  and  O_29 
ROOT
HETATM    1  C   UNK N   1      35.439  15.155  10.576  0.00  0.00     0.183 C 
ENDROOT
BRANCH   1   2
HETATM    2  N   UNK N   1      36.151  15.351  11.826  0.00  0.00    -0.323 N 
HETATM    3  C   UNK N   1      35.914  14.592  12.925  0.00  0.00     0.361 C 
HETATM    4  O   UNK N   1      36.560  14.787  13.941  0.00  0.00    -0.238 OA
HETATM    5  H   UNK N   1      36.832  16.060  11.879  0.00  0.00     0.165 HD
BRANCH   3   6
HETATM    6  O   UNK N   1      34.924  13.657  12.900  0.00  0.00    -0.299 OA
BRANCH   6   7
HETATM    7  C   UNK N   1      34.901  12.533  13.703  0.00  0.00     0.219 C 
BRANCH   7   8
HETATM    8  C   UNK N   1      35.127  11.298  12.887  0.00  0.00    -0.034 A 
HETATM    9  C   UNK N   1      34.087  10.380  12.718  0.00  0.00     0.009 A 
HETATM   10  C   UNK N   1      34.278   9.245  11.925  0.00  0.00     0.001 A 
HETATM   11  C   UNK N   1      35.507   9.032  11.291  0.00  0.00     0.000 A 
HETATM   12  C   UNK N   1      36.548   9.950  11.457  0.00  0.00     0.001 A 
HETATM   13  C   UNK N   1      36.360  11.081  12.258  0.00  0.00     0.009 A 
ENDBRANCH   7   8
ENDBRANCH   6   7
ENDBRANCH   3   6
ENDBRANCH   1   2
BRANCH   1  14
HETATM   14  C   UNK N   1      34.952  16.513  10.048  0.00  0.00     0.241 C 
HETATM   15  O   UNK N   1      35.576  17.490  10.434  0.00  0.00    -0.271 OA
HETATM   16  N   UNK N   1      33.855  16.751   9.260  0.00  0.00    -0.348 N 
HETATM   17  H   UNK N   1      33.696  17.704   9.073  0.00  0.00     0.163 HD
BRANCH  16  18
HETATM   18  C   UNK N   1      32.886  15.860   8.650  0.00  0.00     0.150 C 
HETATM   19  C   UNK N   1      31.495  16.433   8.876  0.00  0.00     0.040 C 
BRANCH  18  20
HETATM   20  C   UNK N   1      33.204  15.711   7.180  0.00  0.00     0.151 C 
HETATM   21  O   UNK N   1      34.033  14.889   6.823  0.00  0.00    -0.296 OA
BRANCH  20  22
HETATM   22  C   UNK N   1      32.481  16.514   6.139  0.00  0.00     0.106 C 
BRANCH  22  23
HETATM   23  C   UNK N   1      33.413  17.489   5.455  0.00  0.00     0.171 C 
BRANCH  23  24
HETATM   24  O   UNK N   1      34.374  17.913   6.373  0.00  0.00    -0.400 OA
HETATM   25  H   UNK N   1      34.803  17.385   7.064  0.00  0.00     0.209 HD
ENDBRANCH  23  24
ENDBRANCH  22  23
ENDBRANCH  20  22
ENDBRANCH  18  20
ENDBRANCH  16  18
ENDBRANCH   1  14
BRANCH   1  26
HETATM   26  C   UNK N   1      36.242  14.210   9.670  0.00  0.00     0.073 C 
BRANCH  26  27
HETATM   27  C   UNK N   1      35.493  12.983   9.218  0.00  0.00    -0.056 A 
HETATM   28  C   UNK N   1      34.171  12.749   9.621  0.00  0.00     0.007 A 
HETATM   29  C   UNK N   1      33.496  11.601   9.200  0.00  0.00     0.001 A 
HETATM   30  C   UNK N   1      34.141  10.677   8.376  0.00  0.00     0.000 A 
HETATM   31  C   UNK N   1      35.460  10.906   7.968  0.00  0.00     0.001 A 
HETATM   32  C   UNK N   1      36.133  12.058   8.387  0.00  0.00     0.007 A 
ENDBRANCH  26  27
ENDBRANCH   1  26
TORSDOF 12
ENDMDL
MODEL 7
REMARK VINA RESULT:      -5.9      2.734      6.644
REMARK  12 active torsions:
REMARK  status: ('A' for Active; 'I' for Inactive)
REMARK    1  A    between atoms: C_2  and  O_3 
REMARK       I    between atoms: C_2  and  N_11 
REMARK    2  A    between atoms: O_3  and  C_4 
REMARK    3  A    between atoms: C_4  and  C_5 
REMARK    4  A    between atoms: C_12  and  N_11 
REMARK    5  A    between atoms: C_12  and  C_20 
REMARK    6  A    between atoms: C_12  and  C_13 
REMARK    7  A    between atoms: C_13  and  C_14 
REMARK       I    between atoms: C_20  and  N_22 
REMARK    8  A    between atoms: N_22  and  C_23 
REMARK    9  A    between atoms: C_23  and  C_25 
REMARK   10  A    between atoms: C_25  and  C_27 
REMARK   11  A    between atoms: C_27  and  C_28 
REMARK   12  A    between atoms: C_28  and  O_29 
ROOT
HETATM    1  C   UNK N   1      26.249  25.293  -5.099  0.00  0.00     0.183 C 
ENDROOT
BRANCH   1   2
HETATM    2  N   UNK N   1      25.364  24.240  -5.563  0.00  0.00    -0.323 N 
HETATM    3  C   UNK N   1      25.791  23.230  -6.362  0.00  0.00     0.361 C 
HETATM    4  O   UNK N   1      25.007  22.360  -6.702  0.00  0.00    -0.238 OA
HETATM    5  H   UNK N   1      24.419  24.259  -5.287  0.00  0.00     0.165 HD
BRANCH   3   6
HETATM    6  O   UNK N   1      27.074  23.226  -6.819  0.00  0.00    -0.299 OA
BRANCH   6   7
HETATM    7  C   UNK N   1      27.548  22.361  -7.786  0.00  0.00     0.219 C 
BRANCH   7   8
HETATM    8  C   UNK N   1      28.643  21.502  -7.234  0.00  0.00    -0.034 A 
HETATM    9  C   UNK N   1      28.987  20.315  -7.886  0.00  0.00     0.009 A 
HETATM   10  C   UNK N   1      30.035  19.528  -7.399  0.00  0.00     0.001 A 
HETATM   11  C   UNK N   1      30.748  19.934  -6.266  0.00  0.00     0.000 A 
HETATM   12  C   UNK N   1      30.407  21.122  -5.613  0.00  0.00     0.001 A 
HETATM   13  C   UNK N   1      29.352  21.904  -6.094  0.00  0.00     0.009 A 
ENDBRANCH   7   8
ENDBRANCH   6   7
ENDBRANCH   3   6
ENDBRANCH   1   2
BRANCH   1  14
HETATM   14  C   UNK N   1      25.683  26.658  -5.518  0.00  0.00     0.241 C 
HETATM   15  O   UNK N   1      24.467  26.727  -5.602  0.00  0.00    -0.271 OA
HETATM   16  N   UNK N   1      26.393  27.774  -5.880  0.00  0.00    -0.348 N 
HETATM   17  H   UNK N   1      25.831  28.533  -6.159  0.00  0.00     0.163 HD
BRANCH  16  18
HETATM   18  C   UNK N   1      27.817  28.046  -5.929  0.00  0.00     0.150 C 
HETATM   19  C   UNK N   1      28.181  28.458  -7.347  0.00  0.00     0.040 C 
BRANCH  18  20
HETATM   20  C   UNK N   1      28.152  29.124  -4.923  0.00  0.00     0.151 C 
HETATM   21  O   UNK N   1      27.986  30.297  -5.220  0.00  0.00    -0.296 OA
BRANCH  20  22
HETATM   22  C   UNK N   1      28.632  28.783  -3.544  0.00  0.00     0.106 C 
BRANCH  22  23
HETATM   23  C   UNK N   1      27.623  29.196  -2.496  0.00  0.00     0.171 C 
BRANCH  23  24
HETATM   24  O   UNK N   1      26.339  29.040  -3.020  0.00  0.00    -0.400 OA
HETATM   25  H   UNK N   1      25.882  29.623  -3.646  0.00  0.00     0.209 HD
ENDBRANCH  23  24
ENDBRANCH  22  23
ENDBRANCH  20  22
ENDBRANCH  18  20
ENDBRANCH  16  18
ENDBRANCH   1  14
BRANCH   1  26
HETATM   26  C   UNK N   1      26.641  25.028  -3.637  0.00  0.00     0.073 C 
BRANCH  26  27
HETATM   27  C   UNK N   1      28.053  24.539  -3.442  0.00  0.00    -0.056 A 
HETATM   28  C   UNK N   1      28.337  23.460  -2.593  0.00  0.00     0.007 A 
HETATM   29  C   UNK N   1      29.653  23.027  -2.417  0.00  0.00     0.001 A 
HETATM   30  C   UNK N   1      30.694  23.672  -3.086  0.00  0.00     0.000 A 
HETATM   31  C   UNK N   1      30.417  24.747  -3.937  0.00  0.00     0.001 A 
HETATM   32  C   UNK N   1      29.098  25.178  -4.115  0.00  0.00     0.007 A 
ENDBRANCH  26  27
ENDBRANCH   1  26
TORSDOF 12
ENDMDL
MODEL 8
REMARK VINA RESULT:      -5.8     15.070     17.191
REMARK  12 active torsions:
REMARK  status: ('A' for Active; 'I' for Inactive)
REMARK    1  A    between atoms: C_2  and  O_3 
REMARK       I    between atoms: C_2  and  N_11 
REMARK    2  A    between atoms: O_3  and  C_4 
REMARK    3  A    between atoms: C_4  and  C_5 
REMARK    4  A    between atoms: C_12  and  N_11 
REMARK    5  A    between atoms: C_12  and  C_20 
REMARK    6  A    between atoms: C_12  and  C_13 
REMARK    7  A    between atoms: C_13  and  C_14 
REMARK       I    between atoms: C_20  and  N_22 
REMARK    8  A    between atoms: N_22  and  C_23 
REMARK    9  A    between atoms: C_23  and  C_25 
REMARK   10  A    between atoms: C_25  and  C_27 
REMARK   11  A    between atoms: C_27  and  C_28 
REMARK   12  A    between atoms: C_28  and  O_29 
ROOT
HETATM    1  C   UNK N   1      20.057  16.347   6.272  0.00  0.00     0.183 C 
ENDROOT
BRANCH   1   2
HETATM    2  N   UNK N   1      19.257  16.617   7.452  0.00  0.00    -0.323 N 
HETATM    3  C   UNK N   1      19.264  15.803   8.538  0.00  0.00     0.361 C 
HETATM    4  O   UNK N   1      18.588  16.094   9.511  0.00  0.00    -0.238 OA
HETATM    5  H   UNK N   1      18.689  17.421   7.467  0.00  0.00     0.165 HD
BRANCH   3   6
HETATM    6  O   UNK N   1      19.981  14.646   8.511  0.00  0.00    -0.299 OA
BRANCH   6   7
HETATM    7  C   UNK N   1      20.542  14.058   9.627  0.00  0.00     0.219 C 
BRANCH   7   8
HETATM    8  C   UNK N   1      21.693  13.182   9.240  0.00  0.00    -0.034 A 
HETATM    9  C   UNK N   1      22.779  13.041  10.108  0.00  0.00     0.009 A 
HETATM   10  C   UNK N   1      23.839  12.194   9.769  0.00  0.00     0.001 A 
HETATM   11  C   UNK N   1      23.808  11.478   8.568  0.00  0.00     0.000 A 
HETATM   12  C   UNK N   1      22.721  11.616   7.699  0.00  0.00     0.001 A 
HETATM   13  C   UNK N   1      21.666  12.470   8.032  0.00  0.00     0.009 A 
ENDBRANCH   7   8
ENDBRANCH   6   7
ENDBRANCH   3   6
ENDBRANCH   1   2
BRANCH   1  14
HETATM   14  C   UNK N   1      19.130  16.115   5.069  0.00  0.00     0.241 C 
HETATM   15  O   UNK N   1      18.027  15.658   5.326  0.00  0.00    -0.271 OA
HETATM   16  N   UNK N   1      19.432  16.291   3.743  0.00  0.00    -0.348 N 
HETATM   17  H   UNK N   1      18.704  16.040   3.129  0.00  0.00     0.163 HD
BRANCH  16  18
HETATM   18  C   UNK N   1      20.625  16.779   3.075  0.00  0.00     0.150 C 
HETATM   19  C   UNK N   1      21.402  15.584   2.543  0.00  0.00     0.040 C 
BRANCH  18  20
HETATM   20  C   UNK N   1      20.222  17.729   1.971  0.00  0.00     0.151 C 
HETATM   21  O   UNK N   1      20.049  17.300   0.840  0.00  0.00    -0.296 OA
BRANCH  20  22
HETATM   22  C   UNK N   1      19.974  19.183   2.243  0.00  0.00     0.106 C 
BRANCH  22  23
HETATM   23  C   UNK N   1      20.947  20.056   1.481  0.00  0.00     0.171 C 
BRANCH  23  24
HETATM   24  O   UNK N   1      20.613  20.027   0.127  0.00  0.00    -0.400 OA
HETATM   25  H   UNK N   1      19.727  20.064  -0.263  0.00  0.00     0.209 HD
ENDBRANCH  23  24
ENDBRANCH  22  23
ENDBRANCH  20  22
ENDBRANCH  18  20
ENDBRANCH  16  18
ENDBRANCH   1  14
BRANCH   1  26
HETATM   26  C   UNK N   1      21.205  17.363   6.184  0.00  0.00     0.073 C 
BRANCH  26  27
HETATM   27  C   UNK N   1      22.574  16.754   6.020  0.00  0.00    -0.056 A 
HETATM   28  C   UNK N   1      23.554  17.370   5.230  0.00  0.00     0.007 A 
HETATM   29  C   UNK N   1      24.814  16.786   5.082  0.00  0.00     0.001 A 
HETATM   30  C   UNK N   1      25.101  15.579   5.721  0.00  0.00     0.000 A 
HETATM   31  C   UNK N   1      24.128  14.960   6.514  0.00  0.00     0.001 A 
HETATM   32  C   UNK N   1      22.869  15.548   6.664  0.00  0.00     0.007 A 
ENDBRANCH  26  27
ENDBRANCH   1  26
TORSDOF 12
ENDMDL
MODEL 9
REMARK VINA RESULT:      -5.8     20.358     23.852
REMARK  12 active torsions:
REMARK  status: ('A' for Active; 'I' for Inactive)
REMARK    1  A    between atoms: C_2  and  O_3 
REMARK       I    between atoms: C_2  and  N_11 
REMARK    2  A    between atoms: O_3  and  C_4 
REMARK    3  A    between atoms: C_4  and  C_5 
REMARK    4  A    between atoms: C_12  and  N_11 
REMARK    5  A    between atoms: C_12  and  C_20 
REMARK    6  A    between atoms: C_12  and  C_13 
REMARK    7  A    between atoms: C_13  and  C_14 
REMARK       I    between atoms: C_20  and  N_22 
REMARK    8  A    between atoms: N_22  and  C_23 
REMARK    9  A    between atoms: C_23  and  C_25 
REMARK   10  A    between atoms: C_25  and  C_27 
REMARK   11  A    between atoms: C_27  and  C_28 
REMARK   12  A    between atoms: C_28  and  O_29 
ROOT
HETATM    1  C   UNK N   1      36.527  13.159  11.541  0.00  0.00     0.183 C 
ENDROOT
BRANCH   1   2
HETATM    2  N   UNK N   1      36.961  14.134  12.524  0.00  0.00    -0.323 N 
HETATM    3  C   UNK N   1      36.339  14.290  13.719  0.00  0.00     0.361 C 
HETATM    4  O   UNK N   1      36.763  15.111  14.515  0.00  0.00    -0.238 OA
HETATM    5  H   UNK N   1      37.737  14.704  12.316  0.00  0.00     0.165 HD
BRANCH   3   6
HETATM    6  O   UNK N   1      35.218  13.568  13.997  0.00  0.00    -0.299 OA
BRANCH   6   7
HETATM    7  C   UNK N   1      34.918  13.055  15.244  0.00  0.00     0.219 C 
BRANCH   7   8
HETATM    8  C   UNK N   1      35.439  11.657  15.377  0.00  0.00    -0.034 A 
HETATM    9  C   UNK N   1      34.545  10.582  15.381  0.00  0.00     0.009 A 
HETATM   10  C   UNK N   1      35.027   9.273  15.466  0.00  0.00     0.001 A 
HETATM   11  C   UNK N   1      36.404   9.036  15.535  0.00  0.00     0.000 A 
HETATM   12  C   UNK N   1      37.300  10.109  15.530  0.00  0.00     0.001 A 
HETATM   13  C   UNK N   1      36.818  11.420  15.455  0.00  0.00     0.009 A 
ENDBRANCH   7   8
ENDBRANCH   6   7
ENDBRANCH   3   6
ENDBRANCH   1   2
BRANCH   1  14
HETATM   14  C   UNK N   1      36.630  13.769  10.135  0.00  0.00     0.241 C 
HETATM   15  O   UNK N   1      37.525  13.332   9.429  0.00  0.00    -0.271 OA
HETATM   16  N   UNK N   1      35.881  14.797   9.621  0.00  0.00    -0.348 N 
HETATM   17  H   UNK N   1      36.143  15.065   8.710  0.00  0.00     0.163 HD
BRANCH  16  18
HETATM   18  C   UNK N   1      34.776  15.562  10.168  0.00  0.00     0.150 C 
HETATM   19  C   UNK N   1      35.343  16.679  11.030  0.00  0.00     0.040 C 
BRANCH  18  20
HETATM   20  C   UNK N   1      33.933  16.096   9.033  0.00  0.00     0.151 C 
HETATM   21  O   UNK N   1      32.730  15.882   9.023  0.00  0.00    -0.296 OA
BRANCH  20  22
HETATM   22  C   UNK N   1      34.530  16.936   7.943  0.00  0.00     0.106 C 
BRANCH  22  23
HETATM   23  C   UNK N   1      34.126  18.387   8.087  0.00  0.00     0.171 C 
BRANCH  23  24
HETATM   24  O   UNK N   1      35.249  19.134   8.442  0.00  0.00    -0.400 OA
HETATM   25  H   UNK N   1      35.528  19.393   9.334  0.00  0.00     0.209 HD
ENDBRANCH  23  24
ENDBRANCH  22  23
ENDBRANCH  20  22
ENDBRANCH  18  20
ENDBRANCH  16  18
ENDBRANCH   1  14
BRANCH   1  26
HETATM   26  C   UNK N   1      37.170  11.798  11.847  0.00  0.00     0.073 C 
BRANCH  26  27
HETATM   27  C   UNK N   1      36.213  10.634  11.846  0.00  0.00    -0.056 A 
HETATM   28  C   UNK N   1      36.676   9.312  11.902  0.00  0.00     0.007 A 
HETATM   29  C   UNK N   1      35.775   8.245  11.890  0.00  0.00     0.001 A 
HETATM   30  C   UNK N   1      34.403   8.495  11.819  0.00  0.00     0.000 A 
HETATM   31  C   UNK N   1      33.934   9.811  11.766  0.00  0.00     0.001 A 
HETATM   32  C   UNK N   1      34.838  10.878  11.782  0.00  0.00     0.007 A 
ENDBRANCH  26  27
ENDBRANCH   1  26
TORSDOF 12
ENDMDL
