MODEL 1
REMARK VINA RESULT:      -7.0      0.000      0.000
REMARK  12 active torsions:
REMARK  status: ('A' for Active; 'I' for Inactive)
REMARK       I    between atoms: C_2  and  N_3 
REMARK    1  A    between atoms: C_2  and  C_5 
REMARK    2  A    between atoms: C_5  and  C_6 
REMARK    3  A    between atoms: C_5  and  N_10 
REMARK       I    between atoms: N_10  and  C_11 
REMARK    4  A    between atoms: C_11  and  C_13 
REMARK    5  A    between atoms: C_13  and  C_14 
REMARK    6  A    between atoms: C_13  and  C_18 
REMARK    7  A    between atoms: C_14  and  C_15 
REMARK    8  A    between atoms: C_18  and  C_19 
REMARK    9  A    between atoms: C_18  and  C_23 
REMARK       I    between atoms: C_19  and  N_21 
REMARK   10  A    between atoms: N_21  and  O_22 
REMARK   11  A    between atoms: C_23  and  N_24 
REMARK       I    between atoms: N_24  and  C_25 
REMARK   12  A    between atoms: C_25  and  C_27 
ROOT
HETATM    1  C   UNK N   1      21.149  18.400   4.049  0.00  0.00     0.093 C 
ENDROOT
BRANCH   1   2
HETATM    2  C   UNK N   1      20.284  17.386   3.333  0.00  0.00     0.223 C 
HETATM    3  N   UNK N   1      20.801  16.691   2.286  0.00  0.00    -0.347 N 
HETATM    4  H   UNK N   1      21.693  16.973   1.980  0.00  0.00     0.163 HD
HETATM    5  O   UNK N   1      19.149  17.179   3.731  0.00  0.00    -0.273 OA
BRANCH   3   6
HETATM    6  C   UNK N   1      20.196  15.580   1.560  0.00  0.00     0.183 C 
BRANCH   6   7
HETATM    7  C   UNK N   1      19.573  16.142   0.268  0.00  0.00     0.240 C 
HETATM    8  O   UNK N   1      20.098  17.143  -0.198  0.00  0.00    -0.271 OA
HETATM    9  N   UNK N   1      18.486  15.651  -0.391  0.00  0.00    -0.364 N 
HETATM   10  C   UNK N   1      17.677  14.526  -0.021  0.00  0.00     0.149 C 
HETATM   11  H   UNK N   1      18.227  16.122  -1.216  0.00  0.00     0.161 HD
ENDBRANCH   6   7
BRANCH   6  12
HETATM   12  C   UNK N   1      21.063  14.271   1.605  0.00  0.00    -0.022 C 
HETATM   13  C   UNK N   1      21.148  13.737   3.026  0.00  0.00     0.017 C 
HETATM   14  C   UNK N   1      22.491  14.592   1.192  0.00  0.00     0.017 C 
HETATM   15  C   UNK N   1      20.592  13.150   0.696  0.00  0.00     0.017 C 
ENDBRANCH   6  12
ENDBRANCH   3   6
ENDBRANCH   1   2
BRANCH   1  16
HETATM   16  C   UNK N   1      21.956  17.682   5.148  0.00  0.00     0.018 C 
BRANCH  16  17
HETATM   17  C   UNK N   1      21.142  16.681   5.976  0.00  0.00    -0.022 C 
HETATM   18  C   UNK N   1      20.611  17.289   7.260  0.00  0.00     0.009 C 
HETATM   19  C   UNK N   1      22.005  15.483   6.308  0.00  0.00     0.009 C 
ENDBRANCH  16  17
ENDBRANCH   1  16
BRANCH   1  20
HETATM   20  C   UNK N   1      22.122  19.109   3.062  0.00  0.00     0.111 C 
BRANCH  20  21
HETATM   21  C   UNK N   1      21.474  20.257   2.328  0.00  0.00     0.247 C 
HETATM   22  O   UNK N   1      21.599  21.394   2.762  0.00  0.00    -0.271 OA
HETATM   23  N   UNK N   1      20.762  20.042   1.199  0.00  0.00    -0.237 N 
HETATM   24  H   UNK N   1      20.663  19.127   0.851  0.00  0.00     0.197 HD
BRANCH  23  25
HETATM   25  O   UNK N   1      20.190  21.067   0.552  0.00  0.00    -0.287 OA
HETATM   26  H   UNK N   1      20.670  21.628  -0.077  0.00  0.00     0.244 HD
ENDBRANCH  23  25
ENDBRANCH  20  21
BRANCH  20  27
HETATM   27  C   UNK N   1      23.453  19.559   3.694  0.00  0.00     0.138 C 
BRANCH  27  28
HETATM   28  N   UNK N   1      24.307  20.296   2.793  0.00  0.00    -0.354 N 
HETATM   29  C   UNK N   1      25.629  20.560   2.983  0.00  0.00     0.275 C 
HETATM   30  O   UNK N   1      26.194  21.283   2.180  0.00  0.00    -0.265 OA
HETATM   31  H   UNK N   1      23.897  20.637   1.966  0.00  0.00     0.162 HD
BRANCH  29  32
HETATM   32  C   UNK N   1      26.424  20.020   4.117  0.00  0.00     0.142 A 
HETATM   33  N   UNK N   1      26.640  20.726   5.257  0.00  0.00    -0.355 N 
HETATM   34  C   UNK N   1      27.430  20.048   6.163  0.00  0.00     0.096 A 
ATOM     35  HN  UNK N   1      26.261  21.657   5.425  1.00  0.00     0.166 HD
HETATM   36  C   UNK N   1      27.864  18.777   5.748  0.00  0.00     0.069 A 
HETATM   37  S   UNK N   1      27.213  18.574   4.239  0.00  0.00    -0.077 SA
ENDBRANCH  29  32
ENDBRANCH  27  28
ENDBRANCH  20  27
ENDBRANCH   1  20
TORSDOF 12
ENDMDL
MODEL 2
REMARK VINA RESULT:      -6.8      2.967      6.053
REMARK  12 active torsions:
REMARK  status: ('A' for Active; 'I' for Inactive)
REMARK       I    between atoms: C_2  and  N_3 
REMARK    1  A    between atoms: C_2  and  C_5 
REMARK    2  A    between atoms: C_5  and  C_6 
REMARK    3  A    between atoms: C_5  and  N_10 
REMARK       I    between atoms: N_10  and  C_11 
REMARK    4  A    between atoms: C_11  and  C_13 
REMARK    5  A    between atoms: C_13  and  C_14 
REMARK    6  A    between atoms: C_13  and  C_18 
REMARK    7  A    between atoms: C_14  and  C_15 
REMARK    8  A    between atoms: C_18  and  C_19 
REMARK    9  A    between atoms: C_18  and  C_23 
REMARK       I    between atoms: C_19  and  N_21 
REMARK   10  A    between atoms: N_21  and  O_22 
REMARK   11  A    between atoms: C_23  and  N_24 
REMARK       I    between atoms: N_24  and  C_25 
REMARK   12  A    between atoms: C_25  and  C_27 
ROOT
HETATM    1  C   UNK N   1      21.870  18.567   4.338  0.00  0.00     0.093 C 
ENDROOT
BRANCH   1   2
HETATM    2  C   UNK N   1      21.337  18.150   5.691  0.00  0.00     0.223 C 
HETATM    3  N   UNK N   1      21.136  16.831   5.949  0.00  0.00    -0.347 N 
HETATM    4  H   UNK N   1      21.250  16.220   5.186  0.00  0.00     0.163 HD
HETATM    5  O   UNK N   1      21.131  19.000   6.542  0.00  0.00    -0.273 OA
BRANCH   3   6
HETATM    6  C   UNK N   1      20.772  16.210   7.218  0.00  0.00     0.183 C 
BRANCH   6   7
HETATM    7  C   UNK N   1      19.274  16.476   7.463  0.00  0.00     0.240 C 
HETATM    8  O   UNK N   1      18.492  15.891   6.728  0.00  0.00    -0.271 OA
HETATM    9  N   UNK N   1      18.738  17.312   8.396  0.00  0.00    -0.364 N 
HETATM   10  C   UNK N   1      19.443  18.138   9.334  0.00  0.00     0.149 C 
HETATM   11  H   UNK N   1      17.756  17.354   8.430  0.00  0.00     0.161 HD
ENDBRANCH   6   7
BRANCH   6  12
HETATM   12  C   UNK N   1      21.449  14.810   7.434  0.00  0.00    -0.022 C 
HETATM   13  C   UNK N   1      21.457  14.444   8.910  0.00  0.00     0.017 C 
HETATM   14  C   UNK N   1      22.908  14.880   7.012  0.00  0.00     0.017 C 
HETATM   15  C   UNK N   1      20.829  13.662   6.656  0.00  0.00     0.017 C 
ENDBRANCH   6  12
ENDBRANCH   3   6
ENDBRANCH   1   2
BRANCH   1  16
HETATM   16  C   UNK N   1      22.926  17.542   3.879  0.00  0.00     0.018 C 
BRANCH  16  17
HETATM   17  C   UNK N   1      24.324  17.772   4.464  0.00  0.00    -0.022 C 
HETATM   18  C   UNK N   1      25.087  18.859   3.731  0.00  0.00     0.009 C 
HETATM   19  C   UNK N   1      25.112  16.482   4.409  0.00  0.00     0.009 C 
ENDBRANCH  16  17
ENDBRANCH   1  16
BRANCH   1  20
HETATM   20  C   UNK N   1      20.729  18.653   3.283  0.00  0.00     0.111 C 
BRANCH  20  21
HETATM   21  C   UNK N   1      20.868  19.846   2.369  0.00  0.00     0.247 C 
HETATM   22  O   UNK N   1      21.197  20.926   2.840  0.00  0.00    -0.271 OA
HETATM   23  N   UNK N   1      20.636  19.732   1.043  0.00  0.00    -0.237 N 
HETATM   24  H   UNK N   1      20.372  18.862   0.666  0.00  0.00     0.197 HD
BRANCH  23  25
HETATM   25  O   UNK N   1      20.763  20.797   0.237  0.00  0.00    -0.287 OA
HETATM   26  H   UNK N   1      20.450  21.681   0.480  0.00  0.00     0.244 HD
ENDBRANCH  23  25
ENDBRANCH  20  21
BRANCH  20  27
HETATM   27  C   UNK N   1      20.526  17.367   2.459  0.00  0.00     0.138 C 
BRANCH  27  28
HETATM   28  N   UNK N   1      19.633  16.414   3.076  0.00  0.00    -0.354 N 
HETATM   29  C   UNK N   1      19.793  15.062   3.086  0.00  0.00     0.275 C 
HETATM   30  O   UNK N   1      18.901  14.380   3.560  0.00  0.00    -0.265 OA
HETATM   31  H   UNK N   1      18.838  16.774   3.529  0.00  0.00     0.162 HD
BRANCH  29  32
HETATM   32  C   UNK N   1      20.993  14.368   2.550  0.00  0.00     0.142 A 
HETATM   33  N   UNK N   1      22.094  14.126   3.307  0.00  0.00    -0.355 N 
HETATM   34  C   UNK N   1      23.101  13.500   2.601  0.00  0.00     0.096 A 
ATOM     35  HN  UNK N   1      22.169  14.381   4.291  1.00  0.00     0.166 HD
HETATM   36  C   UNK N   1      22.813  13.237   1.251  0.00  0.00     0.069 A 
HETATM   37  S   UNK N   1      21.277  13.813   1.020  0.00  0.00    -0.077 SA
ENDBRANCH  29  32
ENDBRANCH  27  28
ENDBRANCH  20  27
ENDBRANCH   1  20
TORSDOF 12
ENDMDL
MODEL 3
REMARK VINA RESULT:      -6.7     11.069     15.569
REMARK  12 active torsions:
REMARK  status: ('A' for Active; 'I' for Inactive)
REMARK       I    between atoms: C_2  and  N_3 
REMARK    1  A    between atoms: C_2  and  C_5 
REMARK    2  A    between atoms: C_5  and  C_6 
REMARK    3  A    between atoms: C_5  and  N_10 
REMARK       I    between atoms: N_10  and  C_11 
REMARK    4  A    between atoms: C_11  and  C_13 
REMARK    5  A    between atoms: C_13  and  C_14 
REMARK    6  A    between atoms: C_13  and  C_18 
REMARK    7  A    between atoms: C_14  and  C_15 
REMARK    8  A    between atoms: C_18  and  C_19 
REMARK    9  A    between atoms: C_18  and  C_23 
REMARK       I    between atoms: C_19  and  N_21 
REMARK   10  A    between atoms: N_21  and  O_22 
REMARK   11  A    between atoms: C_23  and  N_24 
REMARK       I    between atoms: N_24  and  C_25 
REMARK   12  A    between atoms: C_25  and  C_27 
ROOT
HETATM    1  C   UNK N   1      34.315  13.329   9.226  0.00  0.00     0.093 C 
ENDROOT
BRANCH   1   2
HETATM    2  C   UNK N   1      35.195  12.805  10.338  0.00  0.00     0.223 C 
HETATM    3  N   UNK N   1      34.625  12.397  11.502  0.00  0.00    -0.347 N 
HETATM    4  H   UNK N   1      33.661  12.573  11.595  0.00  0.00     0.163 HD
HETATM    5  O   UNK N   1      36.400  12.719  10.159  0.00  0.00    -0.273 OA
BRANCH   3   6
HETATM    6  C   UNK N   1      35.266  11.733  12.631  0.00  0.00     0.183 C 
BRANCH   6   7
HETATM    7  C   UNK N   1      35.828  12.822  13.566  0.00  0.00     0.240 C 
HETATM    8  O   UNK N   1      35.172  13.849  13.657  0.00  0.00    -0.271 OA
HETATM    9  N   UNK N   1      36.988  12.764  14.277  0.00  0.00    -0.364 N 
HETATM   10  C   UNK N   1      37.945  11.696  14.299  0.00  0.00     0.149 C 
HETATM   11  H   UNK N   1      37.193  13.544  14.842  0.00  0.00     0.161 HD
ENDBRANCH   6   7
BRANCH   6  12
HETATM   12  C   UNK N   1      34.467  10.481  13.143  0.00  0.00    -0.022 C 
HETATM   13  C   UNK N   1      35.413   9.326  13.429  0.00  0.00     0.017 C 
HETATM   14  C   UNK N   1      33.530   9.995  12.049  0.00  0.00     0.017 C 
HETATM   15  C   UNK N   1      33.610  10.717  14.373  0.00  0.00     0.017 C 
ENDBRANCH   6  12
ENDBRANCH   3   6
ENDBRANCH   1   2
BRANCH   1  16
HETATM   16  C   UNK N   1      33.246  12.270   8.892  0.00  0.00     0.018 C 
BRANCH  16  17
HETATM   17  C   UNK N   1      33.738  11.146   7.973  0.00  0.00    -0.022 C 
HETATM   18  C   UNK N   1      33.490  11.446   6.507  0.00  0.00     0.009 C 
HETATM   19  C   UNK N   1      33.046   9.852   8.345  0.00  0.00     0.009 C 
ENDBRANCH  16  17
ENDBRANCH   1  16
BRANCH   1  20
HETATM   20  C   UNK N   1      33.622  14.662   9.634  0.00  0.00     0.111 C 
BRANCH  20  21
HETATM   21  C   UNK N   1      34.542  15.854   9.528  0.00  0.00     0.247 C 
HETATM   22  O   UNK N   1      34.909  16.231   8.423  0.00  0.00    -0.271 OA
HETATM   23  N   UNK N   1      34.960  16.506  10.635  0.00  0.00    -0.237 N 
HETATM   24  H   UNK N   1      34.663  16.202  11.523  0.00  0.00     0.197 HD
BRANCH  23  25
HETATM   25  O   UNK N   1      35.777  17.565  10.532  0.00  0.00    -0.287 OA
HETATM   26  H   UNK N   1      36.728  17.482  10.365  0.00  0.00     0.244 HD
ENDBRANCH  23  25
ENDBRANCH  20  21
BRANCH  20  27
HETATM   27  C   UNK N   1      32.296  14.941   8.902  0.00  0.00     0.138 C 
BRANCH  27  28
HETATM   28  N   UNK N   1      31.692  16.206   9.250  0.00  0.00    -0.354 N 
HETATM   29  C   UNK N   1      31.530  17.269   8.415  0.00  0.00     0.275 C 
HETATM   30  O   UNK N   1      31.095  18.307   8.882  0.00  0.00    -0.265 OA
HETATM   31  H   UNK N   1      31.369  16.308  10.174  0.00  0.00     0.162 HD
BRANCH  29  32
HETATM   32  C   UNK N   1      31.857  17.238   6.965  0.00  0.00     0.142 A 
HETATM   33  N   UNK N   1      33.091  17.547   6.489  0.00  0.00    -0.355 N 
HETATM   34  C   UNK N   1      33.164  17.484   5.113  0.00  0.00     0.096 A 
ATOM     35  HN  UNK N   1      33.879  17.800   7.086  1.00  0.00     0.166 HD
HETATM   36  C   UNK N   1      31.970  17.125   4.465  0.00  0.00     0.069 A 
HETATM   37  S   UNK N   1      30.872  16.897   5.684  0.00  0.00    -0.077 SA
ENDBRANCH  29  32
ENDBRANCH  27  28
ENDBRANCH  20  27
ENDBRANCH   1  20
TORSDOF 12
ENDMDL
MODEL 4
REMARK VINA RESULT:      -6.7      9.230     12.254
REMARK  12 active torsions:
REMARK  status: ('A' for Active; 'I' for Inactive)
REMARK       I    between atoms: C_2  and  N_3 
REMARK    1  A    between atoms: C_2  and  C_5 
REMARK    2  A    between atoms: C_5  and  C_6 
REMARK    3  A    between atoms: C_5  and  N_10 
REMARK       I    between atoms: N_10  and  C_11 
REMARK    4  A    between atoms: C_11  and  C_13 
REMARK    5  A    between atoms: C_13  and  C_14 
REMARK    6  A    between atoms: C_13  and  C_18 
REMARK    7  A    between atoms: C_14  and  C_15 
REMARK    8  A    between atoms: C_18  and  C_19 
REMARK    9  A    between atoms: C_18  and  C_23 
REMARK       I    between atoms: C_19  and  N_21 
REMARK   10  A    between atoms: N_21  and  O_22 
REMARK   11  A    between atoms: C_23  and  N_24 
REMARK       I    between atoms: N_24  and  C_25 
REMARK   12  A    between atoms: C_25  and  C_27 
ROOT
HETATM    1  C   UNK N   1      32.239  17.398   7.537  0.00  0.00     0.093 C 
ENDROOT
BRANCH   1   2
HETATM    2  C   UNK N   1      32.216  17.116   6.051  0.00  0.00     0.223 C 
HETATM    3  N   UNK N   1      31.310  16.233   5.555  0.00  0.00    -0.347 N 
HETATM    4  H   UNK N   1      30.782  15.736   6.222  0.00  0.00     0.163 HD
HETATM    5  O   UNK N   1      32.984  17.714   5.315  0.00  0.00    -0.273 OA
BRANCH   3   6
HETATM    6  C   UNK N   1      31.024  15.929   4.158  0.00  0.00     0.183 C 
BRANCH   6   7
HETATM    7  C   UNK N   1      32.163  15.038   3.624  0.00  0.00     0.240 C 
HETATM    8  O   UNK N   1      32.811  15.489   2.691  0.00  0.00    -0.271 OA
HETATM    9  N   UNK N   1      32.501  13.796   4.070  0.00  0.00    -0.364 N 
HETATM   10  C   UNK N   1      31.867  13.041   5.111  0.00  0.00     0.149 C 
HETATM   11  H   UNK N   1      33.269  13.369   3.628  0.00  0.00     0.161 HD
ENDBRANCH   6   7
BRANCH   6  12
HETATM   12  C   UNK N   1      29.503  15.644   3.889  0.00  0.00    -0.022 C 
HETATM   13  C   UNK N   1      29.330  14.831   2.616  0.00  0.00     0.017 C 
HETATM   14  C   UNK N   1      28.775  16.958   3.650  0.00  0.00     0.017 C 
HETATM   15  C   UNK N   1      28.766  14.940   5.015  0.00  0.00     0.017 C 
ENDBRANCH   6  12
ENDBRANCH   3   6
ENDBRANCH   1   2
BRANCH   1  16
HETATM   16  C   UNK N   1      30.869  17.028   8.138  0.00  0.00     0.018 C 
BRANCH  16  17
HETATM   17  C   UNK N   1      29.910  18.214   8.297  0.00  0.00    -0.022 C 
HETATM   18  C   UNK N   1      29.525  18.456   9.745  0.00  0.00     0.009 C 
HETATM   19  C   UNK N   1      28.661  17.965   7.481  0.00  0.00     0.009 C 
ENDBRANCH  16  17
ENDBRANCH   1  16
BRANCH   1  20
HETATM   20  C   UNK N   1      33.360  16.585   8.249  0.00  0.00     0.111 C 
BRANCH  20  21
HETATM   21  C   UNK N   1      34.380  17.468   8.926  0.00  0.00     0.247 C 
HETATM   22  O   UNK N   1      34.869  17.111   9.989  0.00  0.00    -0.271 OA
HETATM   23  N   UNK N   1      34.757  18.640   8.371  0.00  0.00    -0.237 N 
HETATM   24  H   UNK N   1      34.362  18.925   7.515  0.00  0.00     0.197 HD
BRANCH  23  25
HETATM   25  O   UNK N   1      35.664  19.419   8.978  0.00  0.00    -0.287 OA
HETATM   26  H   UNK N   1      35.658  19.590   9.932  0.00  0.00     0.244 HD
ENDBRANCH  23  25
ENDBRANCH  20  21
BRANCH  20  27
HETATM   27  C   UNK N   1      32.845  15.512   9.227  0.00  0.00     0.138 C 
BRANCH  27  28
HETATM   28  N   UNK N   1      32.894  14.169   8.698  0.00  0.00    -0.354 N 
HETATM   29  C   UNK N   1      33.770  13.196   9.072  0.00  0.00     0.275 C 
HETATM   30  O   UNK N   1      33.754  12.141   8.461  0.00  0.00    -0.265 OA
HETATM   31  H   UNK N   1      32.236  13.937   8.004  0.00  0.00     0.162 HD
BRANCH  29  32
HETATM   32  C   UNK N   1      34.747  13.346  10.182  0.00  0.00     0.142 A 
HETATM   33  N   UNK N   1      34.382  13.286  11.488  0.00  0.00    -0.355 N 
HETATM   34  C   UNK N   1      35.441  13.483  12.349  0.00  0.00     0.096 A 
ATOM     35  HN  UNK N   1      33.425  13.115  11.799  1.00  0.00     0.166 HD
HETATM   36  C   UNK N   1      36.682  13.712  11.730  0.00  0.00     0.069 A 
HETATM   37  S   UNK N   1      36.370  13.646  10.106  0.00  0.00    -0.077 SA
ENDBRANCH  29  32
ENDBRANCH  27  28
ENDBRANCH  20  27
ENDBRANCH   1  20
TORSDOF 12
ENDMDL
MODEL 5
REMARK VINA RESULT:      -6.6      8.591     12.129
REMARK  12 active torsions:
REMARK  status: ('A' for Active; 'I' for Inactive)
REMARK       I    between atoms: C_2  and  N_3 
REMARK    1  A    between atoms: C_2  and  C_5 
REMARK    2  A    between atoms: C_5  and  C_6 
REMARK    3  A    between atoms: C_5  and  N_10 
REMARK       I    between atoms: N_10  and  C_11 
REMARK    4  A    between atoms: C_11  and  C_13 
REMARK    5  A    between atoms: C_13  and  C_14 
REMARK    6  A    between atoms: C_13  and  C_18 
REMARK    7  A    between atoms: C_14  and  C_15 
REMARK    8  A    between atoms: C_18  and  C_19 
REMARK    9  A    between atoms: C_18  and  C_23 
REMARK       I    between atoms: C_19  and  N_21 
REMARK   10  A    between atoms: N_21  and  O_22 
REMARK   11  A    between atoms: C_23  and  N_24 
REMARK       I    between atoms: N_24  and  C_25 
REMARK   12  A    between atoms: C_25  and  C_27 
ROOT
HETATM    1  C   UNK N   1      31.344  16.923   7.997  0.00  0.00     0.093 C 
ENDROOT
BRANCH   1   2
HETATM    2  C   UNK N   1      30.884  16.438   6.640  0.00  0.00     0.223 C 
HETATM    3  N   UNK N   1      31.809  16.061   5.719  0.00  0.00    -0.347 N 
HETATM    4  H   UNK N   1      32.749  16.232   5.957  0.00  0.00     0.163 HD
HETATM    5  O   UNK N   1      29.689  16.355   6.406  0.00  0.00    -0.273 OA
BRANCH   3   6
HETATM    6  C   UNK N   1      31.582  15.434   4.422  0.00  0.00     0.183 C 
BRANCH   6   7
HETATM    7  C   UNK N   1      31.380  16.555   3.384  0.00  0.00     0.240 C 
HETATM    8  O   UNK N   1      32.355  17.251   3.140  0.00  0.00    -0.271 OA
HETATM    9  N   UNK N   1      30.224  16.860   2.730  0.00  0.00    -0.364 N 
HETATM   10  C   UNK N   1      28.945  16.226   2.878  0.00  0.00     0.149 C 
HETATM   11  H   UNK N   1      30.272  17.599   2.083  0.00  0.00     0.161 HD
ENDBRANCH   6   7
BRANCH   6  12
HETATM   12  C   UNK N   1      32.494  14.179   4.176  0.00  0.00    -0.022 C 
HETATM   13  C   UNK N   1      32.438  13.758   2.717  0.00  0.00     0.017 C 
HETATM   14  C   UNK N   1      31.960  13.000   4.974  0.00  0.00     0.017 C 
HETATM   15  C   UNK N   1      33.949  14.348   4.575  0.00  0.00     0.017 C 
ENDBRANCH   6  12
ENDBRANCH   3   6
ENDBRANCH   1   2
BRANCH   1  16
HETATM   16  C   UNK N   1      30.224  16.671   9.025  0.00  0.00     0.018 C 
BRANCH  16  17
HETATM   17  C   UNK N   1      29.575  17.946   9.576  0.00  0.00    -0.022 C 
HETATM   18  C   UNK N   1      28.145  18.121   9.098  0.00  0.00     0.009 C 
HETATM   19  C   UNK N   1      30.393  19.149   9.159  0.00  0.00     0.009 C 
ENDBRANCH  16  17
ENDBRANCH   1  16
BRANCH   1  20
HETATM   20  C   UNK N   1      32.643  16.194   8.448  0.00  0.00     0.111 C 
BRANCH  20  21
HETATM   21  C   UNK N   1      33.737  17.150   8.854  0.00  0.00     0.247 C 
HETATM   22  O   UNK N   1      33.873  18.201   8.242  0.00  0.00    -0.271 OA
HETATM   23  N   UNK N   1      34.562  16.860   9.884  0.00  0.00    -0.237 N 
HETATM   24  H   UNK N   1      34.451  16.014  10.376  0.00  0.00     0.197 HD
BRANCH  23  25
HETATM   25  O   UNK N   1      35.532  17.714  10.240  0.00  0.00    -0.287 OA
HETATM   26  H   UNK N   1      35.995  18.282   9.605  0.00  0.00     0.244 HD
ENDBRANCH  23  25
ENDBRANCH  20  21
BRANCH  20  27
HETATM   27  C   UNK N   1      32.428  15.128   9.539  0.00  0.00     0.138 C 
BRANCH  27  28
HETATM   28  N   UNK N   1      32.315  13.783   9.026  0.00  0.00    -0.354 N 
HETATM   29  C   UNK N   1      33.351  12.948   8.739  0.00  0.00     0.275 C 
HETATM   30  O   UNK N   1      33.100  11.877   8.216  0.00  0.00    -0.265 OA
HETATM   31  H   UNK N   1      31.406  13.439   8.870  0.00  0.00     0.162 HD
BRANCH  29  32
HETATM   32  C   UNK N   1      34.774  13.270   9.026  0.00  0.00     0.142 A 
HETATM   33  N   UNK N   1      35.328  13.095  10.253  0.00  0.00    -0.355 N 
HETATM   34  C   UNK N   1      36.650  13.487  10.303  0.00  0.00     0.096 A 
ATOM     35  HN  UNK N   1      34.821  12.717  11.053  1.00  0.00     0.166 HD
HETATM   36  C   UNK N   1      37.172  13.992   9.100  0.00  0.00     0.069 A 
HETATM   37  S   UNK N   1      35.919  13.909   8.021  0.00  0.00    -0.077 SA
ENDBRANCH  29  32
ENDBRANCH  27  28
ENDBRANCH  20  27
ENDBRANCH   1  20
TORSDOF 12
ENDMDL
MODEL 6
REMARK VINA RESULT:      -6.6      8.819     14.066
REMARK  12 active torsions:
REMARK  status: ('A' for Active; 'I' for Inactive)
REMARK       I    between atoms: C_2  and  N_3 
REMARK    1  A    between atoms: C_2  and  C_5 
REMARK    2  A    between atoms: C_5  and  C_6 
REMARK    3  A    between atoms: C_5  and  N_10 
REMARK       I    between atoms: N_10  and  C_11 
REMARK    4  A    between atoms: C_11  and  C_13 
REMARK    5  A    between atoms: C_13  and  C_14 
REMARK    6  A    between atoms: C_13  and  C_18 
REMARK    7  A    between atoms: C_14  and  C_15 
REMARK    8  A    between atoms: C_18  and  C_19 
REMARK    9  A    between atoms: C_18  and  C_23 
REMARK       I    between atoms: C_19  and  N_21 
REMARK   10  A    between atoms: N_21  and  O_22 
REMARK   11  A    between atoms: C_23  and  N_24 
REMARK       I    between atoms: N_24  and  C_25 
REMARK   12  A    between atoms: C_25  and  C_27 
ROOT
HETATM    1  C   UNK N   1      33.848  16.390   6.663  0.00  0.00     0.093 C 
ENDROOT
BRANCH   1   2
HETATM    2  C   UNK N   1      35.014  15.433   6.767  0.00  0.00     0.223 C 
HETATM    3  N   UNK N   1      35.113  14.619   7.851  0.00  0.00    -0.347 N 
HETATM    4  H   UNK N   1      34.463  14.782   8.572  0.00  0.00     0.163 HD
HETATM    5  O   UNK N   1      35.828  15.378   5.859  0.00  0.00    -0.273 OA
BRANCH   3   6
HETATM    6  C   UNK N   1      36.064  13.537   8.078  0.00  0.00     0.183 C 
BRANCH   6   7
HETATM    7  C   UNK N   1      37.031  13.981   9.193  0.00  0.00     0.240 C 
HETATM    8  O   UNK N   1      36.519  14.337  10.244  0.00  0.00    -0.271 OA
HETATM    9  N   UNK N   1      38.390  14.038   9.116  0.00  0.00    -0.364 N 
HETATM   10  C   UNK N   1      39.213  13.720   7.985  0.00  0.00     0.149 C 
HETATM   11  H   UNK N   1      38.860  14.330   9.929  0.00  0.00     0.161 HD
ENDBRANCH   6   7
BRANCH   6  12
HETATM   12  C   UNK N   1      35.401  12.114   8.022  0.00  0.00    -0.022 C 
HETATM   13  C   UNK N   1      35.296  11.631   6.585  0.00  0.00     0.017 C 
HETATM   14  C   UNK N   1      33.975  12.197   8.542  0.00  0.00     0.017 C 
HETATM   15  C   UNK N   1      36.098  11.042   8.841  0.00  0.00     0.017 C 
ENDBRANCH   6  12
ENDBRANCH   3   6
ENDBRANCH   1   2
BRANCH   1  16
HETATM   16  C   UNK N   1      32.699  15.698   5.903  0.00  0.00     0.018 C 
BRANCH  16  17
HETATM   17  C   UNK N   1      32.470  16.233   4.485  0.00  0.00    -0.022 C 
HETATM   18  C   UNK N   1      33.215  15.429   3.436  0.00  0.00     0.009 C 
HETATM   19  C   UNK N   1      32.909  17.679   4.414  0.00  0.00     0.009 C 
ENDBRANCH  16  17
ENDBRANCH   1  16
BRANCH   1  20
HETATM   20  C   UNK N   1      33.353  16.833   8.071  0.00  0.00     0.111 C 
BRANCH  20  21
HETATM   21  C   UNK N   1      34.396  17.607   8.839  0.00  0.00     0.247 C 
HETATM   22  O   UNK N   1      34.816  17.160   9.897  0.00  0.00    -0.271 OA
HETATM   23  N   UNK N   1      34.870  18.782   8.369  0.00  0.00    -0.237 N 
HETATM   24  H   UNK N   1      34.531  19.140   7.517  0.00  0.00     0.197 HD
BRANCH  23  25
HETATM   25  O   UNK N   1      35.797  19.465   9.056  0.00  0.00    -0.287 OA
HETATM   26  H   UNK N   1      35.575  20.099   9.755  0.00  0.00     0.244 HD
ENDBRANCH  23  25
ENDBRANCH  20  21
BRANCH  20  27
HETATM   27  C   UNK N   1      32.015  17.596   8.064  0.00  0.00     0.138 C 
BRANCH  27  28
HETATM   28  N   UNK N   1      31.121  17.217   9.133  0.00  0.00    -0.354 N 
HETATM   29  C   UNK N   1      29.766  17.349   9.126  0.00  0.00     0.275 C 
HETATM   30  O   UNK N   1      29.155  17.078  10.145  0.00  0.00    -0.265 OA
HETATM   31  H   UNK N   1      31.529  16.829   9.941  0.00  0.00     0.162 HD
BRANCH  29  32
HETATM   32  C   UNK N   1      28.988  17.807   7.945  0.00  0.00     0.142 A 
HETATM   33  N   UNK N   1      28.468  19.058   7.855  0.00  0.00    -0.355 N 
HETATM   34  C   UNK N   1      27.757  19.259   6.690  0.00  0.00     0.096 A 
ATOM     35  HN  UNK N   1      28.590  19.773   8.573  1.00  0.00     0.166 HD
HETATM   36  C   UNK N   1      27.694  18.152   5.827  0.00  0.00     0.069 A 
HETATM   37  S   UNK N   1      28.559  16.964   6.591  0.00  0.00    -0.077 SA
ENDBRANCH  29  32
ENDBRANCH  27  28
ENDBRANCH  20  27
ENDBRANCH   1  20
TORSDOF 12
ENDMDL
MODEL 7
REMARK VINA RESULT:      -6.6      7.219     10.840
REMARK  12 active torsions:
REMARK  status: ('A' for Active; 'I' for Inactive)
REMARK       I    between atoms: C_2  and  N_3 
REMARK    1  A    between atoms: C_2  and  C_5 
REMARK    2  A    between atoms: C_5  and  C_6 
REMARK    3  A    between atoms: C_5  and  N_10 
REMARK       I    between atoms: N_10  and  C_11 
REMARK    4  A    between atoms: C_11  and  C_13 
REMARK    5  A    between atoms: C_13  and  C_14 
REMARK    6  A    between atoms: C_13  and  C_18 
REMARK    7  A    between atoms: C_14  and  C_15 
REMARK    8  A    between atoms: C_18  and  C_19 
REMARK    9  A    between atoms: C_18  and  C_23 
REMARK       I    between atoms: C_19  and  N_21 
REMARK   10  A    between atoms: N_21  and  O_22 
REMARK   11  A    between atoms: C_23  and  N_24 
REMARK       I    between atoms: N_24  and  C_25 
REMARK   12  A    between atoms: C_25  and  C_27 
ROOT
HETATM    1  C   UNK N   1      31.123  17.464   6.767  0.00  0.00     0.093 C 
ENDROOT
BRANCH   1   2
HETATM    2  C   UNK N   1      30.526  16.961   5.471  0.00  0.00     0.223 C 
HETATM    3  N   UNK N   1      29.239  16.526   5.456  0.00  0.00    -0.347 N 
HETATM    4  H   UNK N   1      28.795  16.461   6.332  0.00  0.00     0.163 HD
HETATM    5  O   UNK N   1      31.197  16.989   4.452  0.00  0.00    -0.273 OA
BRANCH   3   6
HETATM    6  C   UNK N   1      28.435  16.141   4.301  0.00  0.00     0.183 C 
BRANCH   6   7
HETATM    7  C   UNK N   1      28.463  14.604   4.195  0.00  0.00     0.240 C 
HETATM    8  O   UNK N   1      28.361  13.986   5.244  0.00  0.00    -0.271 OA
HETATM    9  N   UNK N   1      28.614  13.870   3.057  0.00  0.00    -0.364 N 
HETATM   10  C   UNK N   1      28.798  14.361   1.721  0.00  0.00     0.149 C 
HETATM   11  H   UNK N   1      28.593  12.892   3.162  0.00  0.00     0.161 HD
ENDBRANCH   6   7
BRANCH   6  12
HETATM   12  C   UNK N   1      27.126  16.996   4.151  0.00  0.00    -0.022 C 
HETATM   13  C   UNK N   1      27.467  18.468   3.986  0.00  0.00     0.017 C 
HETATM   14  C   UNK N   1      26.305  16.896   5.427  0.00  0.00     0.017 C 
HETATM   15  C   UNK N   1      26.209  16.583   3.013  0.00  0.00     0.017 C 
ENDBRANCH   6  12
ENDBRANCH   3   6
ENDBRANCH   1   2
BRANCH   1  16
HETATM   16  C   UNK N   1      30.090  17.283   7.897  0.00  0.00     0.018 C 
BRANCH  16  17
HETATM   17  C   UNK N   1      29.577  18.596   8.499  0.00  0.00    -0.022 C 
HETATM   18  C   UNK N   1      29.672  18.614  10.013  0.00  0.00     0.009 C 
HETATM   19  C   UNK N   1      28.138  18.812   8.084  0.00  0.00     0.009 C 
ENDBRANCH  16  17
ENDBRANCH   1  16
BRANCH   1  20
HETATM   20  C   UNK N   1      32.430  16.697   7.123  0.00  0.00     0.111 C 
BRANCH  20  21
HETATM   21  C   UNK N   1      33.636  17.602   7.190  0.00  0.00     0.247 C 
HETATM   22  O   UNK N   1      34.365  17.701   6.213  0.00  0.00    -0.271 OA
HETATM   23  N   UNK N   1      33.915  18.301   8.312  0.00  0.00    -0.237 N 
HETATM   24  H   UNK N   1      33.327  18.220   9.097  0.00  0.00     0.197 HD
BRANCH  23  25
HETATM   25  O   UNK N   1      34.988  19.103   8.364  0.00  0.00    -0.287 OA
HETATM   26  H   UNK N   1      35.780  18.892   8.882  0.00  0.00     0.244 HD
ENDBRANCH  23  25
ENDBRANCH  20  21
BRANCH  20  27
HETATM   27  C   UNK N   1      32.335  15.834   8.396  0.00  0.00     0.138 C 
BRANCH  27  28
HETATM   28  N   UNK N   1      32.247  14.417   8.134  0.00  0.00    -0.354 N 
HETATM   29  C   UNK N   1      33.114  13.467   8.582  0.00  0.00     0.275 C 
HETATM   30  O   UNK N   1      32.966  12.322   8.193  0.00  0.00    -0.265 OA
HETATM   31  H   UNK N   1      31.493  14.110   7.581  0.00  0.00     0.162 HD
BRANCH  29  32
HETATM   32  C   UNK N   1      34.233  13.748   9.519  0.00  0.00     0.142 A 
HETATM   33  N   UNK N   1      34.137  13.530  10.856  0.00  0.00    -0.355 N 
HETATM   34  C   UNK N   1      35.280  13.888  11.540  0.00  0.00     0.096 A 
ATOM     35  HN  UNK N   1      33.307  13.143  11.307  1.00  0.00     0.166 HD
HETATM   36  C   UNK N   1      36.315  14.410  10.745  0.00  0.00     0.069 A 
HETATM   37  S   UNK N   1      35.723  14.384   9.199  0.00  0.00    -0.077 SA
ENDBRANCH  29  32
ENDBRANCH  27  28
ENDBRANCH  20  27
ENDBRANCH   1  20
TORSDOF 12
ENDMDL
MODEL 8
REMARK VINA RESULT:      -6.5      3.742      8.640
REMARK  12 active torsions:
REMARK  status: ('A' for Active; 'I' for Inactive)
REMARK       I    between atoms: C_2  and  N_3 
REMARK    1  A    between atoms: C_2  and  C_5 
REMARK    2  A    between atoms: C_5  and  C_6 
REMARK    3  A    between atoms: C_5  and  N_10 
REMARK       I    between atoms: N_10  and  C_11 
REMARK    4  A    between atoms: C_11  and  C_13 
REMARK    5  A    between atoms: C_13  and  C_14 
REMARK    6  A    between atoms: C_13  and  C_18 
REMARK    7  A    between atoms: C_14  and  C_15 
REMARK    8  A    between atoms: C_18  and  C_19 
REMARK    9  A    between atoms: C_18  and  C_23 
REMARK       I    between atoms: C_19  and  N_21 
REMARK   10  A    between atoms: N_21  and  O_22 
REMARK   11  A    between atoms: C_23  and  N_24 
REMARK       I    between atoms: N_24  and  C_25 
REMARK   12  A    between atoms: C_25  and  C_27 
ROOT
HETATM    1  C   UNK N   1      26.469  16.576   4.286  0.00  0.00     0.093 C 
ENDROOT
BRANCH   1   2
HETATM    2  C   UNK N   1      27.405  16.268   5.434  0.00  0.00     0.223 C 
HETATM    3  N   UNK N   1      28.399  17.144   5.736  0.00  0.00    -0.347 N 
HETATM    4  H   UNK N   1      28.520  17.891   5.108  0.00  0.00     0.163 HD
HETATM    5  O   UNK N   1      27.229  15.257   6.095  0.00  0.00    -0.273 OA
BRANCH   3   6
HETATM    6  C   UNK N   1      29.307  17.111   6.877  0.00  0.00     0.183 C 
BRANCH   6   7
HETATM    7  C   UNK N   1      30.747  17.023   6.334  0.00  0.00     0.240 C 
HETATM    8  O   UNK N   1      30.955  17.569   5.260  0.00  0.00    -0.271 OA
HETATM    9  N   UNK N   1      31.798  16.382   6.916  0.00  0.00    -0.364 N 
HETATM   10  C   UNK N   1      31.794  15.636   8.142  0.00  0.00     0.149 C 
HETATM   11  H   UNK N   1      32.659  16.437   6.443  0.00  0.00     0.161 HD
ENDBRANCH   6   7
BRANCH   6  12
HETATM   12  C   UNK N   1      28.876  18.081   8.035  0.00  0.00    -0.022 C 
HETATM   13  C   UNK N   1      27.946  17.372   9.006  0.00  0.00     0.017 C 
HETATM   14  C   UNK N   1      28.076  19.238   7.457  0.00  0.00     0.017 C 
HETATM   15  C   UNK N   1      30.018  18.697   8.824  0.00  0.00     0.017 C 
ENDBRANCH   6  12
ENDBRANCH   3   6
ENDBRANCH   1   2
BRANCH   1  16
HETATM   16  C   UNK N   1      25.530  15.374   4.069  0.00  0.00     0.018 C 
BRANCH  16  17
HETATM   17  C   UNK N   1      25.803  14.585   2.783  0.00  0.00    -0.022 C 
HETATM   18  C   UNK N   1      26.996  13.658   2.915  0.00  0.00     0.009 C 
HETATM   19  C   UNK N   1      26.040  15.549   1.641  0.00  0.00     0.009 C 
ENDBRANCH  16  17
ENDBRANCH   1  16
BRANCH   1  20
HETATM   20  C   UNK N   1      25.627  17.855   4.571  0.00  0.00     0.111 C 
BRANCH  20  21
HETATM   21  C   UNK N   1      26.103  19.053   3.787  0.00  0.00     0.247 C 
HETATM   22  O   UNK N   1      27.279  19.383   3.852  0.00  0.00    -0.271 OA
HETATM   23  N   UNK N   1      25.248  19.759   3.016  0.00  0.00    -0.237 N 
HETATM   24  H   UNK N   1      24.302  19.492   2.965  0.00  0.00     0.197 HD
BRANCH  23  25
HETATM   25  O   UNK N   1      25.678  20.822   2.322  0.00  0.00    -0.287 OA
HETATM   26  H   UNK N   1      26.603  21.110   2.318  0.00  0.00     0.244 HD
ENDBRANCH  23  25
ENDBRANCH  20  21
BRANCH  20  27
HETATM   27  C   UNK N   1      24.108  17.668   4.397  0.00  0.00     0.138 C 
BRANCH  27  28
HETATM   28  N   UNK N   1      23.354  17.854   5.615  0.00  0.00    -0.354 N 
HETATM   29  C   UNK N   1      22.053  18.245   5.696  0.00  0.00     0.275 C 
HETATM   30  O   UNK N   1      21.582  18.457   6.800  0.00  0.00    -0.265 OA
HETATM   31  H   UNK N   1      23.824  17.682   6.462  0.00  0.00     0.162 HD
BRANCH  29  32
HETATM   32  C   UNK N   1      21.172  18.432   4.513  0.00  0.00     0.142 A 
HETATM   33  N   UNK N   1      20.343  17.456   4.060  0.00  0.00    -0.355 N 
HETATM   34  C   UNK N   1      19.641  17.831   2.934  0.00  0.00     0.096 A 
ATOM     35  HN  UNK N   1      20.251  16.542   4.505  1.00  0.00     0.166 HD
HETATM   36  C   UNK N   1      19.910  19.128   2.464  0.00  0.00     0.069 A 
HETATM   37  S   UNK N   1      21.032  19.741   3.516  0.00  0.00    -0.077 SA
ENDBRANCH  29  32
ENDBRANCH  27  28
ENDBRANCH  20  27
ENDBRANCH   1  20
TORSDOF 12
ENDMDL
MODEL 9
REMARK VINA RESULT:      -6.5     11.658     14.179
REMARK  12 active torsions:
REMARK  status: ('A' for Active; 'I' for Inactive)
REMARK       I    between atoms: C_2  and  N_3 
REMARK    1  A    between atoms: C_2  and  C_5 
REMARK    2  A    between atoms: C_5  and  C_6 
REMARK    3  A    between atoms: C_5  and  N_10 
REMARK       I    between atoms: N_10  and  C_11 
REMARK    4  A    between atoms: C_11  and  C_13 
REMARK    5  A    between atoms: C_13  and  C_14 
REMARK    6  A    between atoms: C_13  and  C_18 
REMARK    7  A    between atoms: C_14  and  C_15 
REMARK    8  A    between atoms: C_18  and  C_19 
REMARK    9  A    between atoms: C_18  and  C_23 
REMARK       I    between atoms: C_19  and  N_21 
REMARK   10  A    between atoms: N_21  and  O_22 
REMARK   11  A    between atoms: C_23  and  N_24 
REMARK       I    between atoms: N_24  and  C_25 
REMARK   12  A    between atoms: C_25  and  C_27 
ROOT
HETATM    1  C   UNK N   1      26.904  25.222  -3.764  0.00  0.00     0.093 C 
ENDROOT
BRANCH   1   2
HETATM    2  C   UNK N   1      27.005  26.633  -3.230  0.00  0.00     0.223 C 
HETATM    3  N   UNK N   1      28.055  27.412  -3.600  0.00  0.00    -0.347 N 
HETATM    4  H   UNK N   1      28.761  26.964  -4.120  0.00  0.00     0.163 HD
HETATM    5  O   UNK N   1      26.122  27.065  -2.507  0.00  0.00    -0.273 OA
BRANCH   3   6
HETATM    6  C   UNK N   1      28.265  28.828  -3.322  0.00  0.00     0.183 C 
BRANCH   6   7
HETATM    7  C   UNK N   1      29.640  28.978  -2.642  0.00  0.00     0.240 C 
HETATM    8  O   UNK N   1      30.597  28.514  -3.244  0.00  0.00    -0.271 OA
HETATM    9  N   UNK N   1      29.891  29.553  -1.432  0.00  0.00    -0.364 N 
HETATM   10  C   UNK N   1      28.937  30.122  -0.523  0.00  0.00     0.149 C 
HETATM   11  H   UNK N   1      30.832  29.582  -1.150  0.00  0.00     0.161 HD
ENDBRANCH   6   7
BRANCH   6  12
HETATM   12  C   UNK N   1      27.765  29.764  -4.480  0.00  0.00    -0.022 C 
HETATM   13  C   UNK N   1      28.554  31.062  -4.494  0.00  0.00     0.017 C 
HETATM   14  C   UNK N   1      26.318  30.155  -4.227  0.00  0.00     0.017 C 
HETATM   15  C   UNK N   1      27.812  29.156  -5.871  0.00  0.00     0.017 C 
ENDBRANCH   6  12
ENDBRANCH   3   6
ENDBRANCH   1   2
BRANCH   1  16
HETATM   16  C   UNK N   1      25.807  25.172  -4.845  0.00  0.00     0.018 C 
BRANCH  16  17
HETATM   17  C   UNK N   1      25.761  26.407  -5.753  0.00  0.00    -0.022 C 
HETATM   18  C   UNK N   1      24.461  27.177  -5.616  0.00  0.00     0.009 C 
HETATM   19  C   UNK N   1      25.942  25.980  -7.194  0.00  0.00     0.009 C 
ENDBRANCH  16  17
ENDBRANCH   1  16
BRANCH   1  20
HETATM   20  C   UNK N   1      28.259  24.749  -4.369  0.00  0.00     0.111 C 
BRANCH  20  21
HETATM   21  C   UNK N   1      29.295  24.448  -3.314  0.00  0.00     0.247 C 
HETATM   22  O   UNK N   1      30.276  25.173  -3.214  0.00  0.00    -0.271 OA
HETATM   23  N   UNK N   1      29.149  23.395  -2.481  0.00  0.00    -0.237 N 
HETATM   24  H   UNK N   1      28.359  22.813  -2.563  0.00  0.00     0.197 HD
BRANCH  23  25
HETATM   25  O   UNK N   1      30.074  23.134  -1.546  0.00  0.00    -0.287 OA
HETATM   26  H   UNK N   1      30.915  22.695  -1.744  0.00  0.00     0.244 HD
ENDBRANCH  23  25
ENDBRANCH  20  21
BRANCH  20  27
HETATM   27  C   UNK N   1      28.139  23.570  -5.354  0.00  0.00     0.138 C 
BRANCH  27  28
HETATM   28  N   UNK N   1      28.955  23.713  -6.537  0.00  0.00    -0.354 N 
HETATM   29  C   UNK N   1      30.234  23.272  -6.682  0.00  0.00     0.275 C 
HETATM   30  O   UNK N   1      30.830  23.557  -7.706  0.00  0.00    -0.265 OA
HETATM   31  H   UNK N   1      28.550  24.172  -7.307  0.00  0.00     0.162 HD
BRANCH  29  32
HETATM   32  C   UNK N   1      30.949  22.462  -5.660  0.00  0.00     0.142 A 
HETATM   33  N   UNK N   1      31.909  22.986  -4.855  0.00  0.00    -0.355 N 
HETATM   34  C   UNK N   1      32.462  22.052  -4.004  0.00  0.00     0.096 A 
ATOM     35  HN  UNK N   1      32.192  23.966  -4.879  1.00  0.00     0.166 HD
HETATM   36  C   UNK N   1      31.946  20.750  -4.126  0.00  0.00     0.069 A 
HETATM   37  S   UNK N   1      30.798  20.854  -5.315  0.00  0.00    -0.077 SA
ENDBRANCH  29  32
ENDBRANCH  27  28
ENDBRANCH  20  27
ENDBRANCH   1  20
TORSDOF 12
ENDMDL
