MODEL 1
REMARK VINA RESULT:      -6.6      0.000      0.000
REMARK  6 active torsions:
REMARK  status: ('A' for Active; 'I' for Inactive)
REMARK       I    between atoms: C_4  and  N_22 
REMARK       I    between atoms: C_7  and  N_23 
REMARK    1  A    between atoms: N_8  and  O_9 
REMARK    2  A    between atoms: O_9  and  C_10 
REMARK    3  A    between atoms: C_10  and  C_11 
REMARK    4  A    between atoms: C_11  and  C_12 
REMARK    5  A    between atoms: C_12  and  O_13 
REMARK    6  A    between atoms: O_13  and  C_14 
ROOT
HETATM    1  C   UNK N   1      34.390  15.141   8.338  0.00  0.00     0.158 A 
HETATM    2  N   UNK N   1      34.753  14.916   9.728  0.00  0.00    -0.197 N 
ATOM      3  HN  UNK N   1      34.735  13.959  10.081  1.00  0.00     0.180 HD
HETATM    4  C   UNK N   1      35.099  15.856  10.541  0.00  0.00     0.688 A 
HETATM    5  N   UNK N   1      35.126  17.210  10.122  0.00  0.00    -0.021 N 
ATOM      6  HN  UNK N   1      35.368  17.935  10.796  1.00  0.00     0.203 HD
HETATM    7  C   UNK N   1      34.849  17.543   8.913  0.00  0.00     0.714 A 
HETATM    8  N   UNK N   1      34.505  16.548   7.952  0.00  0.00    -0.058 N 
HETATM    9  C   UNK N   1      35.310  14.300   7.471  0.00  0.00     0.066 C 
HETATM   10  C   UNK N   1      32.965  14.657   8.133  0.00  0.00     0.066 C 
HETATM   11  N   UNK N   1      35.469  15.530  11.863  0.00  0.00    -0.234 N 
HETATM   12  N   UNK N   1      34.905  18.903   8.536  0.00  0.00    -0.232 N 
HETATM   13  H   UNK N   1      35.758  16.206  12.518  0.00  0.00     0.174 HD
HETATM   14  H   UNK N   1      35.436  14.587  12.143  0.00  0.00     0.174 HD
HETATM   15  H   UNK N   1      34.400  19.218   7.752  0.00  0.00     0.174 HD
HETATM   16  H   UNK N   1      35.450  19.537   9.058  0.00  0.00     0.174 HD
ENDROOT
BRANCH   8  17
HETATM   17  O   UNK N   1      34.428  16.899   6.653  0.00  0.00    -0.262 OA
BRANCH  17  18
HETATM   18  C   UNK N   1      33.213  17.566   6.483  0.00  0.00     0.204 C 
BRANCH  18  19
HETATM   19  C   UNK N   1      32.738  17.394   5.047  0.00  0.00     0.055 C 
BRANCH  19  20
HETATM   20  C   UNK N   1      31.567  16.422   4.927  0.00  0.00     0.178 C 
BRANCH  20  21
HETATM   21  O   UNK N   1      30.739  16.509   6.023  0.00  0.00    -0.349 OA
BRANCH  21  22
HETATM   22  C   UNK N   1      29.792  17.458   6.250  0.00  0.00     0.092 A 
HETATM   23  C   UNK N   1      29.416  17.926   7.542  0.00  0.00     0.069 A 
HETATM   24  C   UNK N   1      28.424  18.904   7.656  0.00  0.00     0.052 A 
HETATM   25 Cl   UNK N   1      30.107  17.337   9.048  0.00  0.00    -0.081 Cl
HETATM   26  C   UNK N   1      27.800  19.430   6.527  0.00  0.00     0.057 A 
HETATM   27  C   UNK N   1      28.163  18.971   5.254  0.00  0.00     0.058 A 
HETATM   28 Cl   UNK N   1      26.566  20.660   6.739  0.00  0.00    -0.082 Cl
HETATM   29  C   UNK N   1      29.150  17.992   5.126  0.00  0.00     0.064 A 
HETATM   30 Cl   UNK N   1      27.405  19.608   3.804  0.00  0.00    -0.082 Cl
ENDBRANCH  21  22
ENDBRANCH  20  21
ENDBRANCH  19  20
ENDBRANCH  18  19
ENDBRANCH  17  18
ENDBRANCH   8  17
TORSDOF 6
ENDMDL
MODEL 2
REMARK VINA RESULT:      -6.6      5.557      9.139
REMARK  6 active torsions:
REMARK  status: ('A' for Active; 'I' for Inactive)
REMARK       I    between atoms: C_4  and  N_22 
REMARK       I    between atoms: C_7  and  N_23 
REMARK    1  A    between atoms: N_8  and  O_9 
REMARK    2  A    between atoms: O_9  and  C_10 
REMARK    3  A    between atoms: C_10  and  C_11 
REMARK    4  A    between atoms: C_11  and  C_12 
REMARK    5  A    between atoms: C_12  and  O_13 
REMARK    6  A    between atoms: O_13  and  C_14 
ROOT
HETATM    1  C   UNK N   1      33.661  17.084   7.438  0.00  0.00     0.158 A 
HETATM    2  N   UNK N   1      32.362  17.368   6.851  0.00  0.00    -0.197 N 
ATOM      3  HN  UNK N   1      32.331  17.929   6.000  1.00  0.00     0.180 HD
HETATM    4  C   UNK N   1      31.245  16.950   7.344  0.00  0.00     0.688 A 
HETATM    5  N   UNK N   1      31.214  16.183   8.535  0.00  0.00    -0.021 N 
ATOM      6  HN  UNK N   1      30.315  15.897   8.921  1.00  0.00     0.203 HD
HETATM    7  C   UNK N   1      32.294  15.843   9.141  0.00  0.00     0.714 A 
HETATM    8  N   UNK N   1      33.564  16.232   8.624  0.00  0.00    -0.058 N 
HETATM    9  C   UNK N   1      34.510  16.393   6.385  0.00  0.00     0.066 C 
HETATM   10  C   UNK N   1      34.322  18.404   7.795  0.00  0.00     0.066 C 
HETATM   11  N   UNK N   1      30.037  17.250   6.679  0.00  0.00    -0.234 N 
HETATM   12  N   UNK N   1      32.216  15.063  10.317  0.00  0.00    -0.232 N 
HETATM   13  H   UNK N   1      29.159  16.940   7.001  0.00  0.00     0.174 HD
HETATM   14  H   UNK N   1      30.072  17.792   5.858  0.00  0.00     0.174 HD
HETATM   15  H   UNK N   1      32.960  15.067  10.961  0.00  0.00     0.174 HD
HETATM   16  H   UNK N   1      31.417  14.514  10.491  0.00  0.00     0.174 HD
ENDROOT
BRANCH   8  17
HETATM   17  O   UNK N   1      34.677  15.688   9.156  0.00  0.00    -0.262 OA
BRANCH  17  18
HETATM   18  C   UNK N   1      35.156  16.589  10.109  0.00  0.00     0.204 C 
BRANCH  18  19
HETATM   19  C   UNK N   1      36.124  15.873  11.040  0.00  0.00     0.055 C 
BRANCH  19  20
HETATM   20  C   UNK N   1      35.411  15.037  12.100  0.00  0.00     0.178 C 
BRANCH  20  21
HETATM   21  O   UNK N   1      36.316  14.357  12.882  0.00  0.00    -0.349 OA
BRANCH  21  22
HETATM   22  C   UNK N   1      36.055  13.711  14.049  0.00  0.00     0.092 A 
HETATM   23  C   UNK N   1      36.485  14.160  15.332  0.00  0.00     0.069 A 
HETATM   24  C   UNK N   1      36.160  13.410  16.465  0.00  0.00     0.052 A 
HETATM   25 Cl   UNK N   1      37.437  15.614  15.603  0.00  0.00    -0.081 Cl
HETATM   26  C   UNK N   1      35.421  12.234  16.363  0.00  0.00     0.057 A 
HETATM   27  C   UNK N   1      34.999  11.786  15.105  0.00  0.00     0.058 A 
HETATM   28 Cl   UNK N   1      35.043  11.342  17.827  0.00  0.00    -0.082 Cl
HETATM   29  C   UNK N   1      35.319  12.522  13.963  0.00  0.00     0.064 A 
HETATM   30 Cl   UNK N   1      34.063  10.310  14.929  0.00  0.00    -0.082 Cl
ENDBRANCH  21  22
ENDBRANCH  20  21
ENDBRANCH  19  20
ENDBRANCH  18  19
ENDBRANCH  17  18
ENDBRANCH   8  17
TORSDOF 6
ENDMDL
MODEL 3
REMARK VINA RESULT:      -6.5      5.557      8.872
REMARK  6 active torsions:
REMARK  status: ('A' for Active; 'I' for Inactive)
REMARK       I    between atoms: C_4  and  N_22 
REMARK       I    between atoms: C_7  and  N_23 
REMARK    1  A    between atoms: N_8  and  O_9 
REMARK    2  A    between atoms: O_9  and  C_10 
REMARK    3  A    between atoms: C_10  and  C_11 
REMARK    4  A    between atoms: C_11  and  C_12 
REMARK    5  A    between atoms: C_12  and  O_13 
REMARK    6  A    between atoms: O_13  and  C_14 
ROOT
HETATM    1  C   UNK N   1      34.149  15.114   7.460  0.00  0.00     0.158 A 
HETATM    2  N   UNK N   1      32.854  15.769   7.365  0.00  0.00    -0.197 N 
ATOM      3  HN  UNK N   1      32.242  15.512   6.591  1.00  0.00     0.180 HD
HETATM    4  C   UNK N   1      32.434  16.654   8.204  0.00  0.00     0.688 A 
HETATM    5  N   UNK N   1      33.242  17.071   9.291  0.00  0.00    -0.021 N 
ATOM      6  HN  UNK N   1      32.898  17.799   9.917  1.00  0.00     0.203 HD
HETATM    7  C   UNK N   1      34.399  16.555   9.503  0.00  0.00     0.714 A 
HETATM    8  N   UNK N   1      34.904  15.539   8.640  0.00  0.00    -0.058 N 
HETATM    9  C   UNK N   1      33.914  13.616   7.520  0.00  0.00     0.066 C 
HETATM   10  C   UNK N   1      34.935  15.426   6.198  0.00  0.00     0.066 C 
HETATM   11  N   UNK N   1      31.145  17.205   8.045  0.00  0.00    -0.234 N 
HETATM   12  N   UNK N   1      35.163  16.990  10.609  0.00  0.00    -0.232 N 
HETATM   13  H   UNK N   1      30.768  17.870   8.666  0.00  0.00     0.174 HD
HETATM   14  H   UNK N   1      30.598  16.914   7.280  0.00  0.00     0.174 HD
HETATM   15  H   UNK N   1      36.140  16.871  10.610  0.00  0.00     0.174 HD
HETATM   16  H   UNK N   1      34.718  17.414  11.379  0.00  0.00     0.174 HD
ENDROOT
BRANCH   8  17
HETATM   17  O   UNK N   1      36.017  14.872   9.005  0.00  0.00    -0.262 OA
BRANCH  17  18
HETATM   18  C   UNK N   1      35.641  13.963   9.996  0.00  0.00     0.204 C 
BRANCH  18  19
HETATM   19  C   UNK N   1      36.886  13.410  10.674  0.00  0.00     0.055 C 
BRANCH  19  20
HETATM   20  C   UNK N   1      36.572  12.279  11.650  0.00  0.00     0.178 C 
BRANCH  20  21
HETATM   21  O   UNK N   1      35.469  12.581  12.416  0.00  0.00    -0.349 OA
BRANCH  21  22
HETATM   22  C   UNK N   1      35.452  12.809  13.757  0.00  0.00     0.092 A 
HETATM   23  C   UNK N   1      34.661  12.074  14.688  0.00  0.00     0.069 A 
HETATM   24  C   UNK N   1      34.721  12.400  16.045  0.00  0.00     0.052 A 
HETATM   25 Cl   UNK N   1      33.570  10.768  14.245  0.00  0.00    -0.081 Cl
HETATM   26  C   UNK N   1      35.541  13.428  16.504  0.00  0.00     0.057 A 
HETATM   27  C   UNK N   1      36.319  14.155  15.593  0.00  0.00     0.058 A 
HETATM   28 Cl   UNK N   1      35.574  13.783  18.222  0.00  0.00    -0.082 Cl
HETATM   29  C   UNK N   1      36.266  13.844  14.233  0.00  0.00     0.064 A 
HETATM   30 Cl   UNK N   1      37.370  15.457  16.126  0.00  0.00    -0.082 Cl
ENDBRANCH  21  22
ENDBRANCH  20  21
ENDBRANCH  19  20
ENDBRANCH  18  19
ENDBRANCH  17  18
ENDBRANCH   8  17
TORSDOF 6
ENDMDL
MODEL 4
REMARK VINA RESULT:      -6.5     11.262     13.115
REMARK  6 active torsions:
REMARK  status: ('A' for Active; 'I' for Inactive)
REMARK       I    between atoms: C_4  and  N_22 
REMARK       I    between atoms: C_7  and  N_23 
REMARK    1  A    between atoms: N_8  and  O_9 
REMARK    2  A    between atoms: O_9  and  C_10 
REMARK    3  A    between atoms: C_10  and  C_11 
REMARK    4  A    between atoms: C_11  and  C_12 
REMARK    5  A    between atoms: C_12  and  O_13 
REMARK    6  A    between atoms: O_13  and  C_14 
ROOT
HETATM    1  C   UNK N   1      21.527  17.902   3.858  0.00  0.00     0.158 A 
HETATM    2  N   UNK N   1      21.528  19.339   3.636  0.00  0.00    -0.197 N 
ATOM      3  HN  UNK N   1      22.053  19.925   4.285  1.00  0.00     0.180 HD
HETATM    4  C   UNK N   1      20.905  19.916   2.665  0.00  0.00     0.688 A 
HETATM    5  N   UNK N   1      20.139  19.164   1.739  0.00  0.00    -0.021 N 
ATOM      6  HN  UNK N   1      19.628  19.651   1.004  1.00  0.00     0.203 HD
HETATM    7  C   UNK N   1      20.074  17.884   1.808  0.00  0.00     0.714 A 
HETATM    8  N   UNK N   1      20.776  17.180   2.829  0.00  0.00    -0.058 N 
HETATM    9  C   UNK N   1      22.968  17.427   3.862  0.00  0.00     0.066 C 
HETATM   10  C   UNK N   1      20.929  17.631   5.227  0.00  0.00     0.066 C 
HETATM   11  N   UNK N   1      20.997  21.316   2.515  0.00  0.00    -0.234 N 
HETATM   12  N   UNK N   1      19.312  17.174   0.853  0.00  0.00    -0.232 N 
HETATM   13  H   UNK N   1      20.557  21.805   1.782  0.00  0.00     0.174 HD
HETATM   14  H   UNK N   1      21.524  21.827   3.171  0.00  0.00     0.174 HD
HETATM   15  H   UNK N   1      18.979  16.271   1.061  0.00  0.00     0.174 HD
HETATM   16  H   UNK N   1      19.114  17.582  -0.021  0.00  0.00     0.174 HD
ENDROOT
BRANCH   8  17
HETATM   17  O   UNK N   1      20.862  15.836   2.751  0.00  0.00    -0.262 OA
BRANCH  17  18
HETATM   18  C   UNK N   1      19.720  15.320   3.368  0.00  0.00     0.204 C 
BRANCH  18  19
HETATM   19  C   UNK N   1      20.037  13.950   3.951  0.00  0.00     0.055 C 
BRANCH  19  20
HETATM   20  C   UNK N   1      21.076  14.012   5.068  0.00  0.00     0.178 C 
BRANCH  20  21
HETATM   21  O   UNK N   1      20.471  14.145   6.297  0.00  0.00    -0.349 OA
BRANCH  21  22
HETATM   22  C   UNK N   1      20.970  13.737   7.494  0.00  0.00     0.092 A 
HETATM   23  C   UNK N   1      20.662  14.348   8.745  0.00  0.00     0.069 A 
HETATM   24  C   UNK N   1      21.239  13.846   9.914  0.00  0.00     0.052 A 
HETATM   25 Cl   UNK N   1      19.599  15.736   8.932  0.00  0.00    -0.081 Cl
HETATM   26  C   UNK N   1      22.107  12.757   9.878  0.00  0.00     0.057 A 
HETATM   27  C   UNK N   1      22.417  12.155   8.652  0.00  0.00     0.058 A 
HETATM   28 Cl   UNK N   1      22.793  12.172  11.384  0.00  0.00    -0.082 Cl
HETATM   29  C   UNK N   1      21.851  12.649   7.475  0.00  0.00     0.064 A 
HETATM   30 Cl   UNK N   1      23.504  10.779   8.559  0.00  0.00    -0.082 Cl
ENDBRANCH  21  22
ENDBRANCH  20  21
ENDBRANCH  19  20
ENDBRANCH  18  19
ENDBRANCH  17  18
ENDBRANCH   8  17
TORSDOF 6
ENDMDL
MODEL 5
REMARK VINA RESULT:      -6.5      5.788      9.593
REMARK  6 active torsions:
REMARK  status: ('A' for Active; 'I' for Inactive)
REMARK       I    between atoms: C_4  and  N_22 
REMARK       I    between atoms: C_7  and  N_23 
REMARK    1  A    between atoms: N_8  and  O_9 
REMARK    2  A    between atoms: O_9  and  C_10 
REMARK    3  A    between atoms: C_10  and  C_11 
REMARK    4  A    between atoms: C_11  and  C_12 
REMARK    5  A    between atoms: C_12  and  O_13 
REMARK    6  A    between atoms: O_13  and  C_14 
ROOT
HETATM    1  C   UNK N   1      34.519  14.461   8.304  0.00  0.00     0.158 A 
HETATM    2  N   UNK N   1      34.172  15.455   7.302  0.00  0.00    -0.197 N 
ATOM      3  HN  UNK N   1      33.913  15.130   6.371  1.00  0.00     0.180 HD
HETATM    4  C   UNK N   1      34.172  16.727   7.522  0.00  0.00     0.688 A 
HETATM    5  N   UNK N   1      34.542  17.248   8.786  0.00  0.00    -0.021 N 
ATOM      6  HN  UNK N   1      34.568  18.259   8.921  1.00  0.00     0.203 HD
HETATM    7  C   UNK N   1      34.849  16.477   9.766  0.00  0.00     0.714 A 
HETATM    8  N   UNK N   1      34.824  15.061   9.604  0.00  0.00    -0.058 N 
HETATM    9  C   UNK N   1      33.345  13.510   8.447  0.00  0.00     0.066 C 
HETATM   10  C   UNK N   1      35.715  13.672   7.799  0.00  0.00     0.066 C 
HETATM   11  N   UNK N   1      33.785  17.610   6.492  0.00  0.00    -0.234 N 
HETATM   12  N   UNK N   1      35.195  17.041  11.014  0.00  0.00    -0.232 N 
HETATM   13  H   UNK N   1      33.749  18.587   6.612  0.00  0.00     0.174 HD
HETATM   14  H   UNK N   1      33.540  17.235   5.616  0.00  0.00     0.174 HD
HETATM   15  H   UNK N   1      35.734  16.525  11.656  0.00  0.00     0.174 HD
HETATM   16  H   UNK N   1      34.897  17.952  11.243  0.00  0.00     0.174 HD
ENDROOT
BRANCH   8  17
HETATM   17  O   UNK N   1      34.942  14.279  10.696  0.00  0.00    -0.262 OA
BRANCH  17  18
HETATM   18  C   UNK N   1      36.289  13.928  10.801  0.00  0.00     0.204 C 
BRANCH  18  19
HETATM   19  C   UNK N   1      36.546  13.312  12.169  0.00  0.00     0.055 C 
BRANCH  19  20
HETATM   20  C   UNK N   1      35.897  14.103  13.302  0.00  0.00     0.178 C 
BRANCH  20  21
HETATM   21  O   UNK N   1      34.776  13.460  13.773  0.00  0.00    -0.349 OA
BRANCH  21  22
HETATM   22  C   UNK N   1      34.738  12.496  14.731  0.00  0.00     0.092 A 
HETATM   23  C   UNK N   1      34.422  11.128  14.484  0.00  0.00     0.069 A 
HETATM   24  C   UNK N   1      34.408  10.224  15.549  0.00  0.00     0.052 A 
HETATM   25 Cl   UNK N   1      34.015  10.477  12.902  0.00  0.00    -0.081 Cl
HETATM   26  C   UNK N   1      34.701  10.636  16.847  0.00  0.00     0.057 A 
HETATM   27  C   UNK N   1      35.010  11.980  17.097  0.00  0.00     0.058 A 
HETATM   28 Cl   UNK N   1      34.673   9.449  18.140  0.00  0.00    -0.082 Cl
HETATM   29  C   UNK N   1      35.023  12.895  16.043  0.00  0.00     0.064 A 
HETATM   30 Cl   UNK N   1      35.388  12.544  18.716  0.00  0.00    -0.082 Cl
ENDBRANCH  21  22
ENDBRANCH  20  21
ENDBRANCH  19  20
ENDBRANCH  18  19
ENDBRANCH  17  18
ENDBRANCH   8  17
TORSDOF 6
ENDMDL
MODEL 6
REMARK VINA RESULT:      -6.3      1.247      2.069
REMARK  6 active torsions:
REMARK  status: ('A' for Active; 'I' for Inactive)
REMARK       I    between atoms: C_4  and  N_22 
REMARK       I    between atoms: C_7  and  N_23 
REMARK    1  A    between atoms: N_8  and  O_9 
REMARK    2  A    between atoms: O_9  and  C_10 
REMARK    3  A    between atoms: C_10  and  C_11 
REMARK    4  A    between atoms: C_11  and  C_12 
REMARK    5  A    between atoms: C_12  and  O_13 
REMARK    6  A    between atoms: O_13  and  C_14 
ROOT
HETATM    1  C   UNK N   1      34.424  15.091   8.205  0.00  0.00     0.158 A 
HETATM    2  N   UNK N   1      34.666  14.827   9.614  0.00  0.00    -0.197 N 
ATOM      3  HN  UNK N   1      34.641  13.859   9.934  1.00  0.00     0.180 HD
HETATM    4  C   UNK N   1      34.912  15.747  10.485  0.00  0.00     0.688 A 
HETATM    5  N   UNK N   1      34.941  17.114  10.114  0.00  0.00    -0.021 N 
ATOM      6  HN  UNK N   1      35.102  17.822  10.830  1.00  0.00     0.203 HD
HETATM    7  C   UNK N   1      34.766  17.482   8.895  0.00  0.00     0.714 A 
HETATM    8  N   UNK N   1      34.537  16.513   7.876  0.00  0.00    -0.058 N 
HETATM    9  C   UNK N   1      35.441  14.302   7.400  0.00  0.00     0.066 C 
HETATM   10  C   UNK N   1      33.037  14.582   7.856  0.00  0.00     0.066 C 
HETATM   11  N   UNK N   1      35.168  15.385  11.825  0.00  0.00    -0.234 N 
HETATM   12  N   UNK N   1      34.821  18.855   8.568  0.00  0.00    -0.232 N 
HETATM   13  H   UNK N   1      35.379  16.045  12.525  0.00  0.00     0.174 HD
HETATM   14  H   UNK N   1      35.135  14.432  12.071  0.00  0.00     0.174 HD
HETATM   15  H   UNK N   1      34.381  19.185   7.752  0.00  0.00     0.174 HD
HETATM   16  H   UNK N   1      35.300  19.483   9.158  0.00  0.00     0.174 HD
ENDROOT
BRANCH   8  17
HETATM   17  O   UNK N   1      34.568  16.905   6.587  0.00  0.00    -0.262 OA
BRANCH  17  18
HETATM   18  C   UNK N   1      33.335  17.499   6.312  0.00  0.00     0.204 C 
BRANCH  18  19
HETATM   19  C   UNK N   1      33.031  17.368   4.826  0.00  0.00     0.055 C 
BRANCH  19  20
HETATM   20  C   UNK N   1      32.246  16.101   4.495  0.00  0.00     0.178 C 
BRANCH  20  21
HETATM   21  O   UNK N   1      31.133  15.988   5.296  0.00  0.00    -0.349 OA
BRANCH  21  22
HETATM   22  C   UNK N   1      30.028  16.780   5.265  0.00  0.00     0.092 A 
HETATM   23  C   UNK N   1      29.230  17.003   4.106  0.00  0.00     0.069 A 
HETATM   24  C   UNK N   1      28.117  17.843   4.190  0.00  0.00     0.052 A 
HETATM   25 Cl   UNK N   1      29.561  16.301   2.527  0.00  0.00    -0.081 Cl
HETATM   26  C   UNK N   1      27.772  18.463   5.389  0.00  0.00     0.057 A 
HETATM   27  C   UNK N   1      28.554  18.249   6.532  0.00  0.00     0.058 A 
HETATM   28 Cl   UNK N   1      26.357  19.501   5.429  0.00  0.00    -0.082 Cl
HETATM   29  C   UNK N   1      29.672  17.416   6.461  0.00  0.00     0.064 A 
HETATM   30 Cl   UNK N   1      28.155  19.008   8.065  0.00  0.00    -0.082 Cl
ENDBRANCH  21  22
ENDBRANCH  20  21
ENDBRANCH  19  20
ENDBRANCH  18  19
ENDBRANCH  17  18
ENDBRANCH   8  17
TORSDOF 6
ENDMDL
MODEL 7
REMARK VINA RESULT:      -6.2     10.212     12.569
REMARK  6 active torsions:
REMARK  status: ('A' for Active; 'I' for Inactive)
REMARK       I    between atoms: C_4  and  N_22 
REMARK       I    between atoms: C_7  and  N_23 
REMARK    1  A    between atoms: N_8  and  O_9 
REMARK    2  A    between atoms: O_9  and  C_10 
REMARK    3  A    between atoms: C_10  and  C_11 
REMARK    4  A    between atoms: C_11  and  C_12 
REMARK    5  A    between atoms: C_12  and  O_13 
REMARK    6  A    between atoms: O_13  and  C_14 
ROOT
HETATM    1  C   UNK N   1      21.691  18.163   4.040  0.00  0.00     0.158 A 
HETATM    2  N   UNK N   1      21.619  19.576   3.707  0.00  0.00    -0.197 N 
ATOM      3  HN  UNK N   1      22.161  20.231   4.270  1.00  0.00     0.180 HD
HETATM    4  C   UNK N   1      20.911  20.050   2.738  0.00  0.00     0.688 A 
HETATM    5  N   UNK N   1      20.118  19.199   1.929  0.00  0.00    -0.021 N 
ATOM      6  HN  UNK N   1      19.540  19.606   1.194  1.00  0.00     0.203 HD
HETATM    7  C   UNK N   1      20.109  17.927   2.103  0.00  0.00     0.714 A 
HETATM    8  N   UNK N   1      20.905  17.333   3.125  0.00  0.00    -0.058 N 
HETATM    9  C   UNK N   1      23.148  17.740   3.983  0.00  0.00     0.066 C 
HETATM   10  C   UNK N   1      21.195  17.983   5.464  0.00  0.00     0.066 C 
HETATM   11  N   UNK N   1      20.937  21.436   2.472  0.00  0.00    -0.234 N 
HETATM   12  N   UNK N   1      19.316  17.115   1.261  0.00  0.00    -0.232 N 
HETATM   13  H   UNK N   1      20.430  21.848   1.735  0.00  0.00     0.174 HD
HETATM   14  H   UNK N   1      21.484  22.017   3.049  0.00  0.00     0.174 HD
HETATM   15  H   UNK N   1      19.034  16.221   1.561  0.00  0.00     0.174 HD
HETATM   16  H   UNK N   1      19.045  17.444   0.373  0.00  0.00     0.174 HD
ENDROOT
BRANCH   8  17
HETATM   17  O   UNK N   1      21.039  15.992   3.148  0.00  0.00    -0.262 OA
BRANCH  17  18
HETATM   18  C   UNK N   1      20.082  15.502   4.038  0.00  0.00     0.204 C 
BRANCH  18  19
HETATM   19  C   UNK N   1      20.616  14.248   4.715  0.00  0.00     0.055 C 
BRANCH  19  20
HETATM   20  C   UNK N   1      22.118  14.316   4.980  0.00  0.00     0.178 C 
BRANCH  20  21
HETATM   21  O   UNK N   1      22.377  14.884   6.207  0.00  0.00    -0.349 OA
BRANCH  21  22
HETATM   22  C   UNK N   1      22.806  14.238   7.324  0.00  0.00     0.092 A 
HETATM   23  C   UNK N   1      24.162  13.879   7.576  0.00  0.00     0.069 A 
HETATM   24  C   UNK N   1      24.486  13.212   8.759  0.00  0.00     0.052 A 
HETATM   25 Cl   UNK N   1      25.492  14.202   6.471  0.00  0.00    -0.081 Cl
HETATM   26  C   UNK N   1      23.508  12.894   9.699  0.00  0.00     0.057 A 
HETATM   27  C   UNK N   1      22.172  13.241   9.455  0.00  0.00     0.058 A 
HETATM   28 Cl   UNK N   1      23.984  12.060  11.168  0.00  0.00    -0.082 Cl
HETATM   29  C   UNK N   1      21.833  13.905   8.275  0.00  0.00     0.064 A 
HETATM   30 Cl   UNK N   1      20.906  12.863  10.612  0.00  0.00    -0.082 Cl
ENDBRANCH  21  22
ENDBRANCH  20  21
ENDBRANCH  19  20
ENDBRANCH  18  19
ENDBRANCH  17  18
ENDBRANCH   8  17
TORSDOF 6
ENDMDL
MODEL 8
REMARK VINA RESULT:      -6.2      5.098      8.933
REMARK  6 active torsions:
REMARK  status: ('A' for Active; 'I' for Inactive)
REMARK       I    between atoms: C_4  and  N_22 
REMARK       I    between atoms: C_7  and  N_23 
REMARK    1  A    between atoms: N_8  and  O_9 
REMARK    2  A    between atoms: O_9  and  C_10 
REMARK    3  A    between atoms: C_10  and  C_11 
REMARK    4  A    between atoms: C_11  and  C_12 
REMARK    5  A    between atoms: C_12  and  O_13 
REMARK    6  A    between atoms: O_13  and  C_14 
ROOT
HETATM    1  C   UNK N   1      33.687  17.040   7.501  0.00  0.00     0.158 A 
HETATM    2  N   UNK N   1      32.384  17.440   6.997  0.00  0.00    -0.197 N 
ATOM      3  HN  UNK N   1      32.351  18.052   6.182  1.00  0.00     0.180 HD
HETATM    4  C   UNK N   1      31.265  17.066   7.519  0.00  0.00     0.688 A 
HETATM    5  N   UNK N   1      31.238  16.233   8.666  0.00  0.00    -0.021 N 
ATOM      6  HN  UNK N   1      30.340  15.983   9.078  1.00  0.00     0.203 HD
HETATM    7  C   UNK N   1      32.319  15.788   9.197  0.00  0.00     0.714 A 
HETATM    8  N   UNK N   1      33.587  16.126   8.641  0.00  0.00    -0.058 N 
HETATM    9  C   UNK N   1      34.438  16.360   6.371  0.00  0.00     0.066 C 
HETATM   10  C   UNK N   1      34.450  18.291   7.900  0.00  0.00     0.066 C 
HETATM   11  N   UNK N   1      30.051  17.482   6.933  0.00  0.00    -0.234 N 
HETATM   12  N   UNK N   1      32.243  14.946  10.329  0.00  0.00    -0.232 N 
HETATM   13  H   UNK N   1      29.170  17.210   7.281  0.00  0.00     0.174 HD
HETATM   14  H   UNK N   1      30.085  18.069   6.144  0.00  0.00     0.174 HD
HETATM   15  H   UNK N   1      33.014  14.865  10.935  0.00  0.00     0.174 HD
HETATM   16  H   UNK N   1      31.418  14.440  10.512  0.00  0.00     0.174 HD
ENDROOT
BRANCH   8  17
HETATM   17  O   UNK N   1      34.684  15.481   9.085  0.00  0.00    -0.262 OA
BRANCH  17  18
HETATM   18  C   UNK N   1      35.255  16.282  10.076  0.00  0.00     0.204 C 
BRANCH  18  19
HETATM   19  C   UNK N   1      36.093  15.417  11.006  0.00  0.00     0.055 C 
BRANCH  19  20
HETATM   20  C   UNK N   1      35.289  14.869  12.183  0.00  0.00     0.178 C 
BRANCH  20  21
HETATM   21  O   UNK N   1      35.163  13.501  12.100  0.00  0.00    -0.349 OA
BRANCH  21  22
HETATM   22  C   UNK N   1      34.981  12.640  13.136  0.00  0.00     0.092 A 
HETATM   23  C   UNK N   1      34.563  11.285  12.993  0.00  0.00     0.069 A 
HETATM   24  C   UNK N   1      34.405  10.492  14.132  0.00  0.00     0.052 A 
HETATM   25 Cl   UNK N   1      34.199  10.520  11.451  0.00  0.00    -0.081 Cl
HETATM   26  C   UNK N   1      34.652  11.001  15.405  0.00  0.00     0.057 A 
HETATM   27  C   UNK N   1      35.060  12.334  15.552  0.00  0.00     0.058 A 
HETATM   28 Cl   UNK N   1      34.440   9.950  16.794  0.00  0.00    -0.082 Cl
HETATM   29  C   UNK N   1      35.219  13.139  14.423  0.00  0.00     0.064 A 
HETATM   30 Cl   UNK N   1      35.386  13.018  17.137  0.00  0.00    -0.082 Cl
ENDBRANCH  21  22
ENDBRANCH  20  21
ENDBRANCH  19  20
ENDBRANCH  18  19
ENDBRANCH  17  18
ENDBRANCH   8  17
TORSDOF 6
ENDMDL
MODEL 9
REMARK VINA RESULT:      -6.1      5.136      6.784
REMARK  6 active torsions:
REMARK  status: ('A' for Active; 'I' for Inactive)
REMARK       I    between atoms: C_4  and  N_22 
REMARK       I    between atoms: C_7  and  N_23 
REMARK    1  A    between atoms: N_8  and  O_9 
REMARK    2  A    between atoms: O_9  and  C_10 
REMARK    3  A    between atoms: C_10  and  C_11 
REMARK    4  A    between atoms: C_11  and  C_12 
REMARK    5  A    between atoms: C_12  and  O_13 
REMARK    6  A    between atoms: O_13  and  C_14 
ROOT
HETATM    1  C   UNK N   1      29.294  17.018   6.048  0.00  0.00     0.158 A 
HETATM    2  N   UNK N   1      30.359  16.749   7.000  0.00  0.00    -0.197 N 
ATOM      3  HN  UNK N   1      31.117  16.130   6.711  1.00  0.00     0.180 HD
HETATM    4  C   UNK N   1      30.403  17.248   8.189  0.00  0.00     0.688 A 
HETATM    5  N   UNK N   1      29.372  18.098   8.662  0.00  0.00    -0.021 N 
ATOM      6  HN  UNK N   1      29.415  18.449   9.618  1.00  0.00     0.203 HD
HETATM    7  C   UNK N   1      28.385  18.434   7.913  0.00  0.00     0.714 A 
HETATM    8  N   UNK N   1      28.300  17.955   6.573  0.00  0.00    -0.058 N 
HETATM    9  C   UNK N   1      29.922  17.595   4.792  0.00  0.00     0.066 C 
HETATM   10  C   UNK N   1      28.630  15.700   5.689  0.00  0.00     0.066 C 
HETATM   11  N   UNK N   1      31.500  16.953   9.026  0.00  0.00    -0.234 N 
HETATM   12  N   UNK N   1      27.389  19.298   8.421  0.00  0.00    -0.232 N 
HETATM   13  H   UNK N   1      31.592  17.322   9.935  0.00  0.00     0.174 HD
HETATM   14  H   UNK N   1      32.203  16.353   8.689  0.00  0.00     0.174 HD
HETATM   15  H   UNK N   1      26.492  19.308   8.017  0.00  0.00     0.174 HD
HETATM   16  H   UNK N   1      27.593  19.892   9.181  0.00  0.00     0.174 HD
ENDROOT
BRANCH   8  17
HETATM   17  O   UNK N   1      27.375  18.488   5.750  0.00  0.00    -0.262 OA
BRANCH  17  18
HETATM   18  C   UNK N   1      27.825  19.764   5.404  0.00  0.00     0.204 C 
BRANCH  18  19
HETATM   19  C   UNK N   1      27.255  20.150   4.046  0.00  0.00     0.055 C 
BRANCH  19  20
HETATM   20  C   UNK N   1      26.011  19.344   3.679  0.00  0.00     0.178 C 
BRANCH  20  21
HETATM   21  O   UNK N   1      24.880  20.124   3.748  0.00  0.00    -0.349 OA
BRANCH  21  22
HETATM   22  C   UNK N   1      23.599  19.714   3.550  0.00  0.00     0.092 A 
HETATM   23  C   UNK N   1      23.016  18.568   4.165  0.00  0.00     0.069 A 
HETATM   24  C   UNK N   1      21.689  18.238   3.883  0.00  0.00     0.052 A 
HETATM   25 Cl   UNK N   1      23.870  17.495   5.267  0.00  0.00    -0.081 Cl
HETATM   26  C   UNK N   1      20.924  19.012   3.013  0.00  0.00     0.057 A 
HETATM   27  C   UNK N   1      21.492  20.138   2.402  0.00  0.00     0.058 A 
HETATM   28 Cl   UNK N   1      19.260  18.546   2.705  0.00  0.00    -0.082 Cl
HETATM   29  C   UNK N   1      22.819  20.476   2.672  0.00  0.00     0.064 A 
HETATM   30 Cl   UNK N   1      20.565  21.143   1.300  0.00  0.00    -0.082 Cl
ENDBRANCH  21  22
ENDBRANCH  20  21
ENDBRANCH  19  20
ENDBRANCH  18  19
ENDBRANCH  17  18
ENDBRANCH   8  17
TORSDOF 6
ENDMDL
