MODEL 1
REMARK VINA RESULT:      -4.4      0.000      0.000
REMARK  9 active torsions:
REMARK  status: ('A' for Active; 'I' for Inactive)
REMARK    1  A    between atoms: C_1  and  C_2 
REMARK    2  A    between atoms: C_1  and  C_7 
REMARK    3  A    between atoms: C_1  and  O_11 
REMARK    4  A    between atoms: C_2  and  C_3 
REMARK    5  A    between atoms: C_2  and  O_6 
REMARK    6  A    between atoms: C_3  and  C_4 
REMARK    7  A    between atoms: C_7  and  C_8 
REMARK    8  A    between atoms: C_7  and  O_10 
REMARK    9  A    between atoms: C_8  and  O_9 
ROOT
HETATM    1  C   UNK N   1      34.740  16.773  10.133  0.00  0.00     0.178 C 
ENDROOT
BRANCH   1   2
HETATM    2  C   UNK N   1      34.652  15.335  10.679  0.00  0.00     0.155 C 
BRANCH   2   3
HETATM    3  C   UNK N   1      35.604  15.116  11.850  0.00  0.00     0.103 C 
BRANCH   3   4
HETATM    4  C   UNK N   1      35.516  13.724  12.375  0.00  0.00     0.233 C 
HETATM    5  O   UNK N   1      34.641  13.435  13.181  0.00  0.00    -0.307 OA
ENDBRANCH   3   4
ENDBRANCH   2   3
BRANCH   2   6
HETATM    6  O   UNK N   1      33.363  15.062  11.134  0.00  0.00    -0.393 OA
HETATM    7  H   UNK N   1      32.655  14.831  10.512  0.00  0.00     0.210 HD
ENDBRANCH   2   6
ENDBRANCH   1   2
BRANCH   1   8
HETATM    8  C   UNK N   1      34.574  16.845   8.602  0.00  0.00     0.172 C 
BRANCH   8   9
HETATM    9  C   UNK N   1      34.246  18.260   8.139  0.00  0.00     0.198 C 
BRANCH   9  10
HETATM   10  O   UNK N   1      35.264  19.144   8.493  0.00  0.00    -0.398 OA
HETATM   11  H   UNK N   1      35.438  19.443   9.399  0.00  0.00     0.209 HD
ENDBRANCH   9  10
ENDBRANCH   8   9
BRANCH   8  12
HETATM   12  O   UNK N   1      33.534  16.013   8.184  0.00  0.00    -0.391 OA
HETATM   13  H   UNK N   1      32.730  15.911   8.717  0.00  0.00     0.210 HD
ENDBRANCH   8  12
ENDBRANCH   1   8
BRANCH   1  14
HETATM   14  O   UNK N   1      35.969  17.332  10.495  0.00  0.00    -0.390 OA
HETATM   15  H   UNK N   1      36.239  18.203  10.163  0.00  0.00     0.210 HD
ENDBRANCH   1  14
TORSDOF 9
ENDMDL
MODEL 2
REMARK VINA RESULT:      -4.4      1.692      4.875
REMARK  9 active torsions:
REMARK  status: ('A' for Active; 'I' for Inactive)
REMARK    1  A    between atoms: C_1  and  C_2 
REMARK    2  A    between atoms: C_1  and  C_7 
REMARK    3  A    between atoms: C_1  and  O_11 
REMARK    4  A    between atoms: C_2  and  C_3 
REMARK    5  A    between atoms: C_2  and  O_6 
REMARK    6  A    between atoms: C_3  and  C_4 
REMARK    7  A    between atoms: C_7  and  C_8 
REMARK    8  A    between atoms: C_7  and  O_10 
REMARK    9  A    between atoms: C_8  and  O_9 
ROOT
HETATM    1  C   UNK N   1      36.200  13.849  11.358  0.00  0.00     0.178 C 
ENDROOT
BRANCH   1   2
HETATM    2  C   UNK N   1      36.164  15.111  10.475  0.00  0.00     0.155 C 
BRANCH   2   3
HETATM    3  C   UNK N   1      34.796  15.784  10.507  0.00  0.00     0.103 C 
BRANCH   3   4
HETATM    4  C   UNK N   1      34.705  16.887   9.509  0.00  0.00     0.233 C 
HETATM    5  O   UNK N   1      35.332  17.923   9.692  0.00  0.00    -0.307 OA
ENDBRANCH   3   4
ENDBRANCH   2   3
BRANCH   2   6
HETATM    6  O   UNK N   1      37.099  16.045  10.919  0.00  0.00    -0.393 OA
HETATM    7  H   UNK N   1      37.075  16.377  11.831  0.00  0.00     0.210 HD
ENDBRANCH   2   6
ENDBRANCH   1   2
BRANCH   1   8
HETATM    8  C   UNK N   1      35.319  13.973  12.618  0.00  0.00     0.172 C 
BRANCH   8   9
HETATM    9  C   UNK N   1      36.158  13.999  13.890  0.00  0.00     0.198 C 
BRANCH   9  10
HETATM   10  O   UNK N   1      36.886  15.184  13.977  0.00  0.00    -0.398 OA
HETATM   11  H   UNK N   1      37.101  15.752  13.220  0.00  0.00     0.209 HD
ENDBRANCH   9  10
ENDBRANCH   8   9
BRANCH   8  12
HETATM   12  O   UNK N   1      34.446  12.887  12.711  0.00  0.00    -0.391 OA
HETATM   13  H   UNK N   1      34.627  12.058  12.242  0.00  0.00     0.210 HD
ENDBRANCH   8  12
ENDBRANCH   1   8
BRANCH   1  14
HETATM   14  O   UNK N   1      37.519  13.585  11.738  0.00  0.00    -0.390 OA
HETATM   15  H   UNK N   1      37.734  13.313  12.644  0.00  0.00     0.210 HD
ENDBRANCH   1  14
TORSDOF 9
ENDMDL
MODEL 3
REMARK VINA RESULT:      -4.4      1.188      4.920
REMARK  9 active torsions:
REMARK  status: ('A' for Active; 'I' for Inactive)
REMARK    1  A    between atoms: C_1  and  C_2 
REMARK    2  A    between atoms: C_1  and  C_7 
REMARK    3  A    between atoms: C_1  and  O_11 
REMARK    4  A    between atoms: C_2  and  C_3 
REMARK    5  A    between atoms: C_2  and  O_6 
REMARK    6  A    between atoms: C_3  and  C_4 
REMARK    7  A    between atoms: C_7  and  C_8 
REMARK    8  A    between atoms: C_7  and  O_10 
REMARK    9  A    between atoms: C_8  and  O_9 
ROOT
HETATM    1  C   UNK N   1      34.694  15.959  10.830  0.00  0.00     0.178 C 
ENDROOT
BRANCH   1   2
HETATM    2  C   UNK N   1      34.863  16.766   9.529  0.00  0.00     0.155 C 
BRANCH   2   3
HETATM    3  C   UNK N   1      33.519  17.071   8.876  0.00  0.00     0.103 C 
BRANCH   3   4
HETATM    4  C   UNK N   1      33.630  18.178   7.885  0.00  0.00     0.233 C 
HETATM    5  O   UNK N   1      34.479  18.119   7.004  0.00  0.00    -0.307 OA
ENDBRANCH   3   4
ENDBRANCH   2   3
BRANCH   2   6
HETATM    6  O   UNK N   1      35.487  17.985   9.786  0.00  0.00    -0.393 OA
HETATM    7  H   UNK N   1      36.138  18.069  10.500  0.00  0.00     0.210 HD
ENDBRANCH   2   6
ENDBRANCH   1   2
BRANCH   1   8
HETATM    8  C   UNK N   1      35.936  15.114  11.179  0.00  0.00     0.172 C 
BRANCH   8   9
HETATM    9  C   UNK N   1      35.959  14.731  12.653  0.00  0.00     0.198 C 
BRANCH   9  10
HETATM   10  O   UNK N   1      34.927  13.842  12.949  0.00  0.00    -0.398 OA
HETATM   11  H   UNK N   1      34.343  13.919  13.719  0.00  0.00     0.209 HD
ENDBRANCH   9  10
ENDBRANCH   8   9
BRANCH   8  12
HETATM   12  O   UNK N   1      37.104  15.831  10.911  0.00  0.00    -0.391 OA
HETATM   13  H   UNK N   1      37.083  16.638  10.374  0.00  0.00     0.210 HD
ENDBRANCH   8  12
ENDBRANCH   1   8
BRANCH   1  14
HETATM   14  O   UNK N   1      33.580  15.122  10.716  0.00  0.00    -0.390 OA
HETATM   15  H   UNK N   1      32.975  15.194   9.960  0.00  0.00     0.210 HD
ENDBRANCH   1  14
TORSDOF 9
ENDMDL
MODEL 4
REMARK VINA RESULT:      -4.3     16.174     17.500
REMARK  9 active torsions:
REMARK  status: ('A' for Active; 'I' for Inactive)
REMARK    1  A    between atoms: C_1  and  C_2 
REMARK    2  A    between atoms: C_1  and  C_7 
REMARK    3  A    between atoms: C_1  and  O_11 
REMARK    4  A    between atoms: C_2  and  C_3 
REMARK    5  A    between atoms: C_2  and  O_6 
REMARK    6  A    between atoms: C_3  and  C_4 
REMARK    7  A    between atoms: C_7  and  C_8 
REMARK    8  A    between atoms: C_7  and  O_10 
REMARK    9  A    between atoms: C_8  and  O_9 
ROOT
HETATM    1  C   UNK N   1      20.687  17.599   2.258  0.00  0.00     0.178 C 
ENDROOT
BRANCH   1   2
HETATM    2  C   UNK N   1      20.201  18.977   2.745  0.00  0.00     0.155 C 
BRANCH   2   3
HETATM    3  C   UNK N   1      21.198  20.080   2.404  0.00  0.00     0.103 C 
BRANCH   3   4
HETATM    4  C   UNK N   1      20.731  20.904   1.254  0.00  0.00     0.233 C 
HETATM    5  O   UNK N   1      21.049  20.587   0.114  0.00  0.00    -0.307 OA
ENDBRANCH   3   4
ENDBRANCH   2   3
BRANCH   2   6
HETATM    6  O   UNK N   1      18.989  19.310   2.142  0.00  0.00    -0.393 OA
HETATM    7  H   UNK N   1      18.914  20.096   1.578  0.00  0.00     0.210 HD
ENDBRANCH   2   6
ENDBRANCH   1   2
BRANCH   1   8
HETATM    8  C   UNK N   1      19.891  17.075   1.046  0.00  0.00     0.172 C 
BRANCH   8   9
HETATM    9  C   UNK N   1      20.072  15.574   0.861  0.00  0.00     0.198 C 
BRANCH   9  10
HETATM   10  O   UNK N   1      19.101  14.868   1.569  0.00  0.00    -0.398 OA
HETATM   11  H   UNK N   1      18.174  14.788   1.296  0.00  0.00     0.209 HD
ENDBRANCH   9  10
ENDBRANCH   8   9
BRANCH   8  12
HETATM   12  O   UNK N   1      20.321  17.699  -0.126  0.00  0.00    -0.391 OA
HETATM   13  H   UNK N   1      20.753  17.194  -0.832  0.00  0.00     0.210 HD
ENDBRANCH   8  12
ENDBRANCH   1   8
BRANCH   1  14
HETATM   14  O   UNK N   1      20.596  16.678   3.307  0.00  0.00    -0.390 OA
HETATM   15  H   UNK N   1      19.859  16.710   3.937  0.00  0.00     0.210 HD
ENDBRANCH   1  14
TORSDOF 9
ENDMDL
MODEL 5
REMARK VINA RESULT:      -4.2     14.082     15.871
REMARK  9 active torsions:
REMARK  status: ('A' for Active; 'I' for Inactive)
REMARK    1  A    between atoms: C_1  and  C_2 
REMARK    2  A    between atoms: C_1  and  C_7 
REMARK    3  A    between atoms: C_1  and  O_11 
REMARK    4  A    between atoms: C_2  and  C_3 
REMARK    5  A    between atoms: C_2  and  O_6 
REMARK    6  A    between atoms: C_3  and  C_4 
REMARK    7  A    between atoms: C_7  and  C_8 
REMARK    8  A    between atoms: C_7  and  O_10 
REMARK    9  A    between atoms: C_8  and  O_9 
ROOT
HETATM    1  C   UNK N   1      20.642  19.253   2.351  0.00  0.00     0.178 C 
ENDROOT
BRANCH   1   2
HETATM    2  C   UNK N   1      20.823  18.629   3.748  0.00  0.00     0.155 C 
BRANCH   2   3
HETATM    3  C   UNK N   1      22.054  17.730   3.809  0.00  0.00     0.103 C 
BRANCH   3   4
HETATM    4  C   UNK N   1      23.157  18.364   4.585  0.00  0.00     0.233 C 
HETATM    5  O   UNK N   1      23.855  19.220   4.055  0.00  0.00    -0.307 OA
ENDBRANCH   3   4
ENDBRANCH   2   3
BRANCH   2   6
HETATM    6  O   UNK N   1      20.985  19.624   4.711  0.00  0.00    -0.393 OA
HETATM    7  H   UNK N   1      20.391  20.390   4.739  0.00  0.00     0.210 HD
ENDBRANCH   2   6
ENDBRANCH   1   2
BRANCH   1   8
HETATM    8  C   UNK N   1      20.861  20.779   2.342  0.00  0.00     0.172 C 
BRANCH   8   9
HETATM    9  C   UNK N   1      20.511  21.389   0.990  0.00  0.00     0.198 C 
BRANCH   9  10
HETATM   10  O   UNK N   1      20.700  20.462  -0.034  0.00  0.00    -0.398 OA
HETATM   11  H   UNK N   1      20.997  20.689  -0.929  0.00  0.00     0.209 HD
ENDBRANCH   9  10
ENDBRANCH   8   9
BRANCH   8  12
HETATM   12  O   UNK N   1      22.198  21.082   2.607  0.00  0.00    -0.391 OA
HETATM   13  H   UNK N   1      22.890  20.409   2.514  0.00  0.00     0.210 HD
ENDBRANCH   8  12
ENDBRANCH   1   8
BRANCH   1  14
HETATM   14  O   UNK N   1      19.358  18.965   1.878  0.00  0.00    -0.390 OA
HETATM   15  H   UNK N   1      19.117  19.133   0.953  0.00  0.00     0.210 HD
ENDBRANCH   1  14
TORSDOF 9
ENDMDL
MODEL 6
REMARK VINA RESULT:      -4.2      1.595      2.971
REMARK  9 active torsions:
REMARK  status: ('A' for Active; 'I' for Inactive)
REMARK    1  A    between atoms: C_1  and  C_2 
REMARK    2  A    between atoms: C_1  and  C_7 
REMARK    3  A    between atoms: C_1  and  O_11 
REMARK    4  A    between atoms: C_2  and  C_3 
REMARK    5  A    between atoms: C_2  and  O_6 
REMARK    6  A    between atoms: C_3  and  C_4 
REMARK    7  A    between atoms: C_7  and  C_8 
REMARK    8  A    between atoms: C_7  and  O_10 
REMARK    9  A    between atoms: C_8  and  O_9 
ROOT
HETATM    1  C   UNK N   1      35.037  14.732  11.321  0.00  0.00     0.178 C 
ENDROOT
BRANCH   1   2
HETATM    2  C   UNK N   1      35.555  14.193  12.668  0.00  0.00     0.155 C 
BRANCH   2   3
HETATM    3  C   UNK N   1      35.013  12.798  12.964  0.00  0.00     0.103 C 
BRANCH   3   4
HETATM    4  C   UNK N   1      35.048  12.495  14.422  0.00  0.00     0.233 C 
HETATM    5  O   UNK N   1      34.403  13.186  15.200  0.00  0.00    -0.307 OA
ENDBRANCH   3   4
ENDBRANCH   2   3
BRANCH   2   6
HETATM    6  O   UNK N   1      36.946  14.105  12.657  0.00  0.00    -0.393 OA
HETATM    7  H   UNK N   1      37.493  14.828  13.002  0.00  0.00     0.210 HD
ENDBRANCH   2   6
ENDBRANCH   1   2
BRANCH   1   8
HETATM    8  C   UNK N   1      35.584  16.134  10.985  0.00  0.00     0.172 C 
BRANCH   8   9
HETATM    9  C   UNK N   1      35.057  16.636   9.646  0.00  0.00     0.198 C 
BRANCH   9  10
HETATM   10  O   UNK N   1      33.812  17.244   9.802  0.00  0.00    -0.398 OA
HETATM   11  H   UNK N   1      33.293  17.225  10.620  0.00  0.00     0.209 HD
ENDBRANCH   9  10
ENDBRANCH   8   9
BRANCH   8  12
HETATM   12  O   UNK N   1      36.977  16.108  10.907  0.00  0.00    -0.391 OA
HETATM   13  H   UNK N   1      37.473  15.292  11.081  0.00  0.00     0.210 HD
ENDBRANCH   8  12
ENDBRANCH   1   8
BRANCH   1  14
HETATM   14  O   UNK N   1      33.639  14.772  11.345  0.00  0.00    -0.390 OA
HETATM   15  H   UNK N   1      33.138  15.170  10.616  0.00  0.00     0.210 HD
ENDBRANCH   1  14
TORSDOF 9
ENDMDL
MODEL 7
REMARK VINA RESULT:      -4.1      2.203      3.606
REMARK  9 active torsions:
REMARK  status: ('A' for Active; 'I' for Inactive)
REMARK    1  A    between atoms: C_1  and  C_2 
REMARK    2  A    between atoms: C_1  and  C_7 
REMARK    3  A    between atoms: C_1  and  O_11 
REMARK    4  A    between atoms: C_2  and  C_3 
REMARK    5  A    between atoms: C_2  and  O_6 
REMARK    6  A    between atoms: C_3  and  C_4 
REMARK    7  A    between atoms: C_7  and  C_8 
REMARK    8  A    between atoms: C_7  and  O_10 
REMARK    9  A    between atoms: C_8  and  O_9 
ROOT
HETATM    1  C   UNK N   1      36.228  13.809  11.507  0.00  0.00     0.178 C 
ENDROOT
BRANCH   1   2
HETATM    2  C   UNK N   1      35.796  13.092  12.800  0.00  0.00     0.155 C 
BRANCH   2   3
HETATM    3  C   UNK N   1      36.072  13.942  14.036  0.00  0.00     0.103 C 
BRANCH   3   4
HETATM    4  C   UNK N   1      35.612  13.264  15.281  0.00  0.00     0.233 C 
HETATM    5  O   UNK N   1      34.413  13.149  15.500  0.00  0.00    -0.307 OA
ENDBRANCH   3   4
ENDBRANCH   2   3
BRANCH   2   6
HETATM    6  O   UNK N   1      34.428  12.823  12.777  0.00  0.00    -0.393 OA
HETATM    7  H   UNK N   1      34.099  11.943  12.537  0.00  0.00     0.210 HD
ENDBRANCH   2   6
ENDBRANCH   1   2
BRANCH   1   8
HETATM    8  C   UNK N   1      35.826  15.297  11.482  0.00  0.00     0.172 C 
BRANCH   8   9
HETATM    9  C   UNK N   1      34.610  15.536  10.595  0.00  0.00     0.198 C 
BRANCH   9  10
HETATM   10  O   UNK N   1      33.458  15.022  11.189  0.00  0.00    -0.398 OA
HETATM   11  H   UNK N   1      33.275  14.076  11.302  0.00  0.00     0.209 HD
ENDBRANCH   9  10
ENDBRANCH   8   9
BRANCH   8  12
HETATM   12  O   UNK N   1      36.871  16.076  10.982  0.00  0.00    -0.391 OA
HETATM   13  H   UNK N   1      37.141  16.895  11.426  0.00  0.00     0.210 HD
ENDBRANCH   8  12
ENDBRANCH   1   8
BRANCH   1  14
HETATM   14  O   UNK N   1      35.666  13.157  10.406  0.00  0.00    -0.390 OA
HETATM   15  H   UNK N   1      36.038  13.267   9.516  0.00  0.00     0.210 HD
ENDBRANCH   1  14
TORSDOF 9
ENDMDL
MODEL 8
REMARK VINA RESULT:      -4.0      4.177      6.091
REMARK  9 active torsions:
REMARK  status: ('A' for Active; 'I' for Inactive)
REMARK    1  A    between atoms: C_1  and  C_2 
REMARK    2  A    between atoms: C_1  and  C_7 
REMARK    3  A    between atoms: C_1  and  O_11 
REMARK    4  A    between atoms: C_2  and  C_3 
REMARK    5  A    between atoms: C_2  and  O_6 
REMARK    6  A    between atoms: C_3  and  C_4 
REMARK    7  A    between atoms: C_7  and  C_8 
REMARK    8  A    between atoms: C_7  and  O_10 
REMARK    9  A    between atoms: C_8  and  O_9 
ROOT
HETATM    1  C   UNK N   1      30.261  17.575   8.077  0.00  0.00     0.178 C 
ENDROOT
BRANCH   1   2
HETATM    2  C   UNK N   1      31.666  16.950   7.984  0.00  0.00     0.155 C 
BRANCH   2   3
HETATM    3  C   UNK N   1      32.382  17.357   6.701  0.00  0.00     0.103 C 
BRANCH   3   4
HETATM    4  C   UNK N   1      33.860  17.219   6.830  0.00  0.00     0.233 C 
HETATM    5  O   UNK N   1      34.543  18.209   7.056  0.00  0.00    -0.307 OA
ENDBRANCH   3   4
ENDBRANCH   2   3
BRANCH   2   6
HETATM    6  O   UNK N   1      32.458  17.365   9.053  0.00  0.00    -0.393 OA
HETATM    7  H   UNK N   1      33.407  17.529   8.934  0.00  0.00     0.210 HD
ENDBRANCH   2   6
ENDBRANCH   1   2
BRANCH   1   8
HETATM    8  C   UNK N   1      29.653  17.479   9.490  0.00  0.00     0.172 C 
BRANCH   8   9
HETATM    9  C   UNK N   1      28.150  17.235   9.440  0.00  0.00     0.198 C 
BRANCH   9  10
HETATM   10  O   UNK N   1      27.462  18.430   9.239  0.00  0.00    -0.398 OA
HETATM   11  H   UNK N   1      27.528  18.971   8.436  0.00  0.00     0.209 HD
ENDBRANCH   9  10
ENDBRANCH   8   9
BRANCH   8  12
HETATM   12  O   UNK N   1      29.863  18.667  10.194  0.00  0.00    -0.391 OA
HETATM   13  H   UNK N   1      30.736  18.886  10.555  0.00  0.00     0.210 HD
ENDBRANCH   8  12
ENDBRANCH   1   8
BRANCH   1  14
HETATM   14  O   UNK N   1      29.412  16.945   7.162  0.00  0.00    -0.390 OA
HETATM   15  H   UNK N   1      28.631  17.401   6.809  0.00  0.00     0.210 HD
ENDBRANCH   1  14
TORSDOF 9
ENDMDL
MODEL 9
REMARK VINA RESULT:      -4.0      1.709      4.176
REMARK  9 active torsions:
REMARK  status: ('A' for Active; 'I' for Inactive)
REMARK    1  A    between atoms: C_1  and  C_2 
REMARK    2  A    between atoms: C_1  and  C_7 
REMARK    3  A    between atoms: C_1  and  O_11 
REMARK    4  A    between atoms: C_2  and  C_3 
REMARK    5  A    between atoms: C_2  and  O_6 
REMARK    6  A    between atoms: C_3  and  C_4 
REMARK    7  A    between atoms: C_7  and  C_8 
REMARK    8  A    between atoms: C_7  and  O_10 
REMARK    9  A    between atoms: C_8  and  O_9 
ROOT
HETATM    1  C   UNK N   1      35.946  15.311  10.495  0.00  0.00     0.178 C 
ENDROOT
BRANCH   1   2
HETATM    2  C   UNK N   1      35.205  16.300   9.575  0.00  0.00     0.155 C 
BRANCH   2   3
HETATM    3  C   UNK N   1      34.480  15.581   8.441  0.00  0.00     0.103 C 
BRANCH   3   4
HETATM    4  C   UNK N   1      33.003  15.754   8.539  0.00  0.00     0.233 C 
HETATM    5  O   UNK N   1      32.366  15.080   9.338  0.00  0.00    -0.307 OA
ENDBRANCH   3   4
ENDBRANCH   2   3
BRANCH   2   6
HETATM    6  O   UNK N   1      34.248  17.014  10.294  0.00  0.00    -0.393 OA
HETATM    7  H   UNK N   1      34.478  17.451  11.129  0.00  0.00     0.210 HD
ENDBRANCH   2   6
ENDBRANCH   1   2
BRANCH   1   8
HETATM    8  C   UNK N   1      35.218  15.075  11.833  0.00  0.00     0.172 C 
BRANCH   8   9
HETATM    9  C   UNK N   1      36.060  14.241  12.791  0.00  0.00     0.198 C 
BRANCH   9  10
HETATM   10  O   UNK N   1      36.770  15.062  13.666  0.00  0.00    -0.398 OA
HETATM   11  H   UNK N   1      36.510  15.239  14.583  0.00  0.00     0.209 HD
ENDBRANCH   9  10
ENDBRANCH   8   9
BRANCH   8  12
HETATM   12  O   UNK N   1      34.019  14.390  11.622  0.00  0.00    -0.391 OA
HETATM   13  H   UNK N   1      33.611  13.868  12.329  0.00  0.00     0.210 HD
ENDBRANCH   8  12
ENDBRANCH   1   8
BRANCH   1  14
HETATM   14  O   UNK N   1      37.236  15.789  10.746  0.00  0.00    -0.390 OA
HETATM   15  H   UNK N   1      37.879  15.256  11.240  0.00  0.00     0.210 HD
ENDBRANCH   1  14
TORSDOF 9
ENDMDL
