REMARK  6 active torsions:
REMARK  status: ('A' for Active; 'I' for Inactive)
REMARK    1  A    between atoms: C_2  and  C_3 
REMARK    2  A    between atoms: C_2  and  C_6 
REMARK    3  A    between atoms: C_2  and  C_13 
REMARK    4  A    between atoms: C_3  and  C_4 
REMARK    5  A    between atoms: C_4  and  O_22 
REMARK    6  A    between atoms: C_14  and  O_23 
ROOT
HETATM    1  C   UNK N   1       3.319  -0.006  -0.031  0.00  0.00     0.032 A 
HETATM    2  C   UNK N   1       1.082  -1.617  -0.184  0.00  0.00     0.298 A 
HETATM    3  C   UNK N   1       0.895  -0.219   0.035  0.00  0.00     0.060 A 
HETATM    4  C   UNK N   1       2.059   0.582   0.108  0.00  0.00     0.091 A 
HETATM    5  C   UNK N   1       4.493   0.755   0.051  0.00  0.00     0.017 A 
HETATM    6  C   UNK N   1       5.740   0.136  -0.075  0.00  0.00     0.001 A 
HETATM    7  C   UNK N   1       5.819  -1.244  -0.285  0.00  0.00     0.003 A 
HETATM    8  C   UNK N   1       4.652  -2.007  -0.370  0.00  0.00     0.038 A 
HETATM    9  C   UNK N   1       3.403  -1.393  -0.244  0.00  0.00     0.092 A 
HETATM   10  O   UNK N   1       2.302  -2.128  -0.314  0.00  0.00    -0.274 OA
HETATM   11  O   UNK N   1       0.136  -2.381  -0.238  0.00  0.00    -0.259 OA
ENDROOT
BRANCH   3  12
HETATM   12  C   UNK N   1      -0.473   0.457   0.255  0.00  0.00     0.063 C 
BRANCH  12  13
HETATM   13  C   UNK N   1      -0.696   1.585  -0.778  0.00  0.00     0.045 C 
BRANCH  13  14
HETATM   14  C   UNK N   1      -1.718   2.667  -0.400  0.00  0.00     0.115 C 
HETATM   15  C   UNK N   1      -3.122   2.119  -0.230  0.00  0.00     0.039 C 
BRANCH  14  16
HETATM   16  O   UNK N   1      -1.322   3.315   0.770  0.00  0.00    -0.396 OA
HETATM   17  H   UNK N   1      -0.794   3.302   1.584  0.00  0.00     0.210 HD
ENDBRANCH  14  16
ENDBRANCH  13  14
ENDBRANCH  12  13
BRANCH  12  18
HETATM   18  C   UNK N   1      -1.660  -0.483   0.277  0.00  0.00    -0.049 A 
HETATM   19  C   UNK N   1      -2.224  -0.863   1.504  0.00  0.00     0.008 A 
HETATM   20  C   UNK N   1      -3.292  -1.764   1.540  0.00  0.00     0.001 A 
HETATM   21  C   UNK N   1      -3.815  -2.278   0.351  0.00  0.00     0.000 A 
HETATM   22  C   UNK N   1      -3.270  -1.894  -0.877  0.00  0.00     0.001 A 
HETATM   23  C   UNK N   1      -2.192  -1.006  -0.917  0.00  0.00     0.008 A 
ENDBRANCH  12  18
ENDBRANCH   3  12
BRANCH   4  24
HETATM   24  O   UNK N   1       1.962   1.909   0.330  0.00  0.00    -0.359 OA
HETATM   25  H   UNK N   1       2.727   2.428   0.484  0.00  0.00     0.217 HD
ENDBRANCH   4  24
TORSDOF 6
