MODEL 1
REMARK VINA RESULT:      -7.5      0.000      0.000
REMARK  6 active torsions:
REMARK  status: ('A' for Active; 'I' for Inactive)
REMARK    1  A    between atoms: C_2  and  C_3 
REMARK    2  A    between atoms: C_2  and  C_6 
REMARK    3  A    between atoms: C_2  and  C_13 
REMARK    4  A    between atoms: C_3  and  C_4 
REMARK    5  A    between atoms: C_4  and  O_22 
REMARK    6  A    between atoms: C_14  and  O_23 
ROOT
HETATM    1  C   UNK N   1      34.131  15.503  10.080  0.00  0.00     0.032 A 
HETATM    2  C   UNK N   1      34.472  17.919   8.786  0.00  0.00     0.298 A 
HETATM    3  C   UNK N   1      33.315  17.143   8.476  0.00  0.00     0.060 A 
HETATM    4  C   UNK N   1      33.166  15.910   9.154  0.00  0.00     0.091 A 
HETATM    5  C   UNK N   1      34.023  14.282  10.758  0.00  0.00     0.017 A 
HETATM    6  C   UNK N   1      35.013  13.894  11.666  0.00  0.00     0.001 A 
HETATM    7  C   UNK N   1      36.113  14.725  11.900  0.00  0.00     0.003 A 
HETATM    8  C   UNK N   1      36.224  15.945  11.228  0.00  0.00     0.038 A 
HETATM    9  C   UNK N   1      35.238  16.337  10.319  0.00  0.00     0.092 A 
HETATM   10  O   UNK N   1      35.359  17.490   9.678  0.00  0.00    -0.274 OA
HETATM   11  O   UNK N   1      34.688  18.981   8.233  0.00  0.00    -0.259 OA
ENDROOT
BRANCH   3  12
HETATM   12  C   UNK N   1      32.262  17.527   7.418  0.00  0.00     0.063 C 
BRANCH  12  13
HETATM   13  C   UNK N   1      32.297  16.539   6.230  0.00  0.00     0.045 C 
BRANCH  13  14
HETATM   14  C   UNK N   1      33.088  16.985   4.992  0.00  0.00     0.115 C 
HETATM   15  C   UNK N   1      32.201  17.523   3.886  0.00  0.00     0.039 C 
BRANCH  14  16
HETATM   16  O   UNK N   1      34.033  17.948   5.346  0.00  0.00    -0.396 OA
HETATM   17  H   UNK N   1      34.219  18.846   5.661  0.00  0.00     0.210 HD
ENDBRANCH  14  16
ENDBRANCH  13  14
ENDBRANCH  12  13
BRANCH  12  18
HETATM   18  C   UNK N   1      30.848  17.676   7.940  0.00  0.00    -0.049 A 
HETATM   19  C   UNK N   1      29.779  17.115   7.226  0.00  0.00     0.008 A 
HETATM   20  C   UNK N   1      28.466  17.283   7.674  0.00  0.00     0.001 A 
HETATM   21  C   UNK N   1      28.213  17.997   8.848  0.00  0.00     0.000 A 
HETATM   22  C   UNK N   1      29.272  18.547   9.575  0.00  0.00     0.001 A 
HETATM   23  C   UNK N   1      30.585  18.395   9.121  0.00  0.00     0.008 A 
ENDBRANCH  12  18
ENDBRANCH   3  12
BRANCH   4  24
HETATM   24  O   UNK N   1      32.107  15.114   8.900  0.00  0.00    -0.359 OA
HETATM   25  H   UNK N   1      31.792  14.512   9.546  0.00  0.00     0.217 HD
ENDBRANCH   4  24
TORSDOF 6
ENDMDL
MODEL 2
REMARK VINA RESULT:      -7.1      0.840      2.349
REMARK  6 active torsions:
REMARK  status: ('A' for Active; 'I' for Inactive)
REMARK    1  A    between atoms: C_2  and  C_3 
REMARK    2  A    between atoms: C_2  and  C_6 
REMARK    3  A    between atoms: C_2  and  C_13 
REMARK    4  A    between atoms: C_3  and  C_4 
REMARK    5  A    between atoms: C_4  and  O_22 
REMARK    6  A    between atoms: C_14  and  O_23 
ROOT
HETATM    1  C   UNK N   1      34.528  15.606  10.280  0.00  0.00     0.032 A 
HETATM    2  C   UNK N   1      32.724  14.566   8.467  0.00  0.00     0.298 A 
HETATM    3  C   UNK N   1      32.967  15.973   8.449  0.00  0.00     0.060 A 
HETATM    4  C   UNK N   1      33.897  16.477   9.388  0.00  0.00     0.091 A 
HETATM    5  C   UNK N   1      35.443  16.074  11.233  0.00  0.00     0.017 A 
HETATM    6  C   UNK N   1      36.046  15.180  12.123  0.00  0.00     0.001 A 
HETATM    7  C   UNK N   1      35.739  13.818  12.064  0.00  0.00     0.003 A 
HETATM    8  C   UNK N   1      34.830  13.346  11.114  0.00  0.00     0.038 A 
HETATM    9  C   UNK N   1      34.224  14.235  10.222  0.00  0.00     0.092 A 
HETATM   10  O   UNK N   1      33.353  13.779   9.333  0.00  0.00    -0.274 OA
HETATM   11  O   UNK N   1      31.923  14.053   7.708  0.00  0.00    -0.259 OA
ENDROOT
BRANCH   3  12
HETATM   12  C   UNK N   1      32.246  16.974   7.524  0.00  0.00     0.063 C 
BRANCH  12  13
HETATM   13  C   UNK N   1      32.220  16.451   6.069  0.00  0.00     0.045 C 
BRANCH  13  14
HETATM   14  C   UNK N   1      33.291  17.010   5.122  0.00  0.00     0.115 C 
HETATM   15  C   UNK N   1      32.701  17.689   3.900  0.00  0.00     0.039 C 
BRANCH  14  16
HETATM   16  O   UNK N   1      34.116  17.905   5.803  0.00  0.00    -0.396 OA
HETATM   17  H   UNK N   1      34.377  18.824   5.974  0.00  0.00     0.210 HD
ENDBRANCH  14  16
ENDBRANCH  13  14
ENDBRANCH  12  13
BRANCH  12  18
HETATM   18  C   UNK N   1      30.854  17.373   7.967  0.00  0.00    -0.049 A 
HETATM   19  C   UNK N   1      30.691  18.181   9.103  0.00  0.00     0.008 A 
HETATM   20  C   UNK N   1      29.410  18.521   9.548  0.00  0.00     0.001 A 
HETATM   21  C   UNK N   1      28.285  18.071   8.853  0.00  0.00     0.000 A 
HETATM   22  C   UNK N   1      28.438  17.279   7.712  0.00  0.00     0.001 A 
HETATM   23  C   UNK N   1      29.715  16.923   7.273  0.00  0.00     0.008 A 
ENDBRANCH  12  18
ENDBRANCH   3  12
BRANCH   4  24
HETATM   24  O   UNK N   1      34.165  17.798   9.442  0.00  0.00    -0.359 OA
HETATM   25  H   UNK N   1      33.584  18.423   9.054  0.00  0.00     0.217 HD
ENDBRANCH   4  24
TORSDOF 6
ENDMDL
MODEL 3
REMARK VINA RESULT:      -7.0     13.159     17.095
REMARK  6 active torsions:
REMARK  status: ('A' for Active; 'I' for Inactive)
REMARK    1  A    between atoms: C_2  and  C_3 
REMARK    2  A    between atoms: C_2  and  C_6 
REMARK    3  A    between atoms: C_2  and  C_13 
REMARK    4  A    between atoms: C_3  and  C_4 
REMARK    5  A    between atoms: C_4  and  O_22 
REMARK    6  A    between atoms: C_14  and  O_23 
ROOT
HETATM    1  C   UNK N   1      27.827  27.230  -4.550  0.00  0.00     0.032 A 
HETATM    2  C   UNK N   1      27.010  24.835  -3.446  0.00  0.00     0.298 A 
HETATM    3  C   UNK N   1      28.206  24.847  -4.225  0.00  0.00     0.060 A 
HETATM    4  C   UNK N   1      28.601  26.089  -4.778  0.00  0.00     0.091 A 
HETATM    5  C   UNK N   1      28.180  28.472  -5.095  0.00  0.00     0.017 A 
HETATM    6  C   UNK N   1      27.377  29.593  -4.863  0.00  0.00     0.001 A 
HETATM    7  C   UNK N   1      26.221  29.477  -4.087  0.00  0.00     0.003 A 
HETATM    8  C   UNK N   1      25.865  28.242  -3.540  0.00  0.00     0.038 A 
HETATM    9  C   UNK N   1      26.664  27.119  -3.768  0.00  0.00     0.092 A 
HETATM   10  O   UNK N   1      26.311  25.949  -3.255  0.00  0.00    -0.274 OA
HETATM   11  O   UNK N   1      26.588  23.805  -2.953  0.00  0.00    -0.259 OA
ENDROOT
BRANCH   3  12
HETATM   12  C   UNK N   1      29.052  23.600  -4.551  0.00  0.00     0.063 C 
BRANCH  12  13
HETATM   13  C   UNK N   1      29.180  22.689  -3.308  0.00  0.00     0.045 C 
BRANCH  13  14
HETATM   14  C   UNK N   1      30.591  22.516  -2.729  0.00  0.00     0.115 C 
HETATM   15  C   UNK N   1      31.663  23.169  -3.581  0.00  0.00     0.039 C 
BRANCH  14  16
HETATM   16  O   UNK N   1      30.645  23.027  -1.432  0.00  0.00    -0.396 OA
HETATM   17  H   UNK N   1      30.170  23.358  -0.654  0.00  0.00     0.210 HD
ENDBRANCH  14  16
ENDBRANCH  13  14
ENDBRANCH  12  13
BRANCH  12  18
HETATM   18  C   UNK N   1      28.585  22.800  -5.748  0.00  0.00    -0.049 A 
HETATM   19  C   UNK N   1      29.384  21.758  -6.243  0.00  0.00     0.008 A 
HETATM   20  C   UNK N   1      28.985  21.040  -7.374  0.00  0.00     0.001 A 
HETATM   21  C   UNK N   1      27.779  21.346  -8.008  0.00  0.00     0.000 A 
HETATM   22  C   UNK N   1      26.969  22.372  -7.515  0.00  0.00     0.001 A 
HETATM   23  C   UNK N   1      27.371  23.103  -6.394  0.00  0.00     0.008 A 
ENDBRANCH  12  18
ENDBRANCH   3  12
BRANCH   4  24
HETATM   24  O   UNK N   1      29.710  26.175  -5.540  0.00  0.00    -0.359 OA
HETATM   25  H   UNK N   1      29.954  26.985  -5.944  0.00  0.00     0.217 HD
ENDBRANCH   4  24
TORSDOF 6
ENDMDL
MODEL 4
REMARK VINA RESULT:      -6.9     10.030     12.206
REMARK  6 active torsions:
REMARK  status: ('A' for Active; 'I' for Inactive)
REMARK    1  A    between atoms: C_2  and  C_3 
REMARK    2  A    between atoms: C_2  and  C_6 
REMARK    3  A    between atoms: C_2  and  C_13 
REMARK    4  A    between atoms: C_3  and  C_4 
REMARK    5  A    between atoms: C_4  and  O_22 
REMARK    6  A    between atoms: C_14  and  O_23 
ROOT
HETATM    1  C   UNK N   1      21.385  15.021   6.665  0.00  0.00     0.032 A 
HETATM    2  C   UNK N   1      21.184  17.774   6.622  0.00  0.00     0.298 A 
HETATM    3  C   UNK N   1      21.465  17.097   5.397  0.00  0.00     0.060 A 
HETATM    4  C   UNK N   1      21.562  15.687   5.449  0.00  0.00     0.091 A 
HETATM    5  C   UNK N   1      21.488  13.626   6.755  0.00  0.00     0.017 A 
HETATM    6  C   UNK N   1      21.323  12.989   7.989  0.00  0.00     0.001 A 
HETATM    7  C   UNK N   1      21.053  13.742   9.135  0.00  0.00     0.003 A 
HETATM    8  C   UNK N   1      20.946  15.132   9.051  0.00  0.00     0.038 A 
HETATM    9  C   UNK N   1      21.111  15.774   7.820  0.00  0.00     0.092 A 
HETATM   10  O   UNK N   1      21.020  17.095   7.753  0.00  0.00    -0.274 OA
HETATM   11  O   UNK N   1      21.106  18.988   6.671  0.00  0.00    -0.259 OA
ENDROOT
BRANCH   3  12
HETATM   12  C   UNK N   1      21.728  17.799   4.050  0.00  0.00     0.063 C 
BRANCH  12  13
HETATM   13  C   UNK N   1      20.524  18.684   3.653  0.00  0.00     0.045 C 
BRANCH  13  14
HETATM   14  C   UNK N   1      19.823  18.333   2.332  0.00  0.00     0.115 C 
HETATM   15  C   UNK N   1      20.124  16.923   1.861  0.00  0.00     0.039 C 
BRANCH  14  16
HETATM   16  O   UNK N   1      18.445  18.501   2.460  0.00  0.00    -0.396 OA
HETATM   17  H   UNK N   1      17.686  18.709   3.028  0.00  0.00     0.210 HD
ENDBRANCH  14  16
ENDBRANCH  13  14
ENDBRANCH  12  13
BRANCH  12  18
HETATM   18  C   UNK N   1      23.015  18.593   3.977  0.00  0.00    -0.049 A 
HETATM   19  C   UNK N   1      23.048  19.802   3.266  0.00  0.00     0.008 A 
HETATM   20  C   UNK N   1      24.241  20.522   3.155  0.00  0.00     0.001 A 
HETATM   21  C   UNK N   1      25.404  20.050   3.767  0.00  0.00     0.000 A 
HETATM   22  C   UNK N   1      25.378  18.854   4.491  0.00  0.00     0.001 A 
HETATM   23  C   UNK N   1      24.192  18.123   4.591  0.00  0.00     0.008 A 
ENDBRANCH  12  18
ENDBRANCH   3  12
BRANCH   4  24
HETATM   24  O   UNK N   1      21.842  14.980   4.335  0.00  0.00    -0.359 OA
HETATM   25  H   UNK N   1      21.200  14.417   3.949  0.00  0.00     0.217 HD
ENDBRANCH   4  24
TORSDOF 6
ENDMDL
MODEL 5
REMARK VINA RESULT:      -6.7      4.818      9.925
REMARK  6 active torsions:
REMARK  status: ('A' for Active; 'I' for Inactive)
REMARK    1  A    between atoms: C_2  and  C_3 
REMARK    2  A    between atoms: C_2  and  C_6 
REMARK    3  A    between atoms: C_2  and  C_13 
REMARK    4  A    between atoms: C_3  and  C_4 
REMARK    5  A    between atoms: C_4  and  O_22 
REMARK    6  A    between atoms: C_14  and  O_23 
ROOT
HETATM    1  C   UNK N   1      35.655  14.593  12.204  0.00  0.00     0.032 A 
HETATM    2  C   UNK N   1      34.890  12.096  13.100  0.00  0.00     0.298 A 
HETATM    3  C   UNK N   1      35.684  12.911  13.962  0.00  0.00     0.060 A 
HETATM    4  C   UNK N   1      36.060  14.185  13.477  0.00  0.00     0.091 A 
HETATM    5  C   UNK N   1      36.022  15.843  11.686  0.00  0.00     0.017 A 
HETATM    6  C   UNK N   1      35.615  16.216  10.402  0.00  0.00     0.001 A 
HETATM    7  C   UNK N   1      34.839  15.345   9.631  0.00  0.00     0.003 A 
HETATM    8  C   UNK N   1      34.469  14.099  10.143  0.00  0.00     0.038 A 
HETATM    9  C   UNK N   1      34.873  13.721  11.426  0.00  0.00     0.092 A 
HETATM   10  O   UNK N   1      34.526  12.532  11.898  0.00  0.00    -0.274 OA
HETATM   11  O   UNK N   1      34.542  10.978  13.430  0.00  0.00    -0.259 OA
ENDROOT
BRANCH   3  12
HETATM   12  C   UNK N   1      36.203  12.473  15.346  0.00  0.00     0.063 C 
BRANCH  12  13
HETATM   13  C   UNK N   1      35.053  12.452  16.378  0.00  0.00     0.045 C 
BRANCH  13  14
HETATM   14  C   UNK N   1      35.077  13.549  17.453  0.00  0.00     0.115 C 
HETATM   15  C   UNK N   1      35.253  12.997  18.855  0.00  0.00     0.039 C 
BRANCH  14  16
HETATM   16  O   UNK N   1      36.090  14.468  17.179  0.00  0.00    -0.396 OA
HETATM   17  H   UNK N   1      37.037  14.644  17.063  0.00  0.00     0.210 HD
ENDBRANCH  14  16
ENDBRANCH  13  14
ENDBRANCH  12  13
BRANCH  12  18
HETATM   18  C   UNK N   1      36.956  11.159  15.366  0.00  0.00    -0.049 A 
HETATM   19  C   UNK N   1      36.587  10.159  16.279  0.00  0.00     0.008 A 
HETATM   20  C   UNK N   1      37.301   8.959  16.337  0.00  0.00     0.001 A 
HETATM   21  C   UNK N   1      38.377   8.742  15.472  0.00  0.00     0.000 A 
HETATM   22  C   UNK N   1      38.742   9.725  14.549  0.00  0.00     0.001 A 
HETATM   23  C   UNK N   1      38.042  10.933  14.499  0.00  0.00     0.008 A 
ENDBRANCH  12  18
ENDBRANCH   3  12
BRANCH   4  24
HETATM   24  O   UNK N   1      36.825  15.004  14.229  0.00  0.00    -0.359 OA
HETATM   25  H   UNK N   1      37.645  14.712  14.576  0.00  0.00     0.217 HD
ENDBRANCH   4  24
TORSDOF 6
ENDMDL
MODEL 6
REMARK VINA RESULT:      -6.6      4.013      5.946
REMARK  6 active torsions:
REMARK  status: ('A' for Active; 'I' for Inactive)
REMARK    1  A    between atoms: C_2  and  C_3 
REMARK    2  A    between atoms: C_2  and  C_6 
REMARK    3  A    between atoms: C_2  and  C_13 
REMARK    4  A    between atoms: C_3  and  C_4 
REMARK    5  A    between atoms: C_4  and  O_22 
REMARK    6  A    between atoms: C_14  and  O_23 
ROOT
HETATM    1  C   UNK N   1      31.501  17.287   5.745  0.00  0.00     0.032 A 
HETATM    2  C   UNK N   1      28.845  17.167   6.488  0.00  0.00     0.298 A 
HETATM    3  C   UNK N   1      29.160  17.133   5.096  0.00  0.00     0.060 A 
HETATM    4  C   UNK N   1      30.529  17.195   4.745  0.00  0.00     0.091 A 
HETATM    5  C   UNK N   1      32.865  17.366   5.432  0.00  0.00     0.017 A 
HETATM    6  C   UNK N   1      33.814  17.474   6.453  0.00  0.00     0.001 A 
HETATM    7  C   UNK N   1      33.404  17.502   7.789  0.00  0.00     0.003 A 
HETATM    8  C   UNK N   1      32.046  17.422   8.107  0.00  0.00     0.038 A 
HETATM    9  C   UNK N   1      31.094  17.314   7.090  0.00  0.00     0.092 A 
HETATM   10  O   UNK N   1      29.807  17.251   7.401  0.00  0.00    -0.274 OA
HETATM   11  O   UNK N   1      27.692  17.140   6.876  0.00  0.00    -0.259 OA
ENDROOT
BRANCH   3  12
HETATM   12  C   UNK N   1      28.115  17.095   3.963  0.00  0.00     0.063 C 
BRANCH  12  13
HETATM   13  C   UNK N   1      27.388  15.731   3.938  0.00  0.00     0.045 C 
BRANCH  13  14
HETATM   14  C   UNK N   1      27.620  14.855   2.699  0.00  0.00     0.115 C 
HETATM   15  C   UNK N   1      26.504  14.969   1.678  0.00  0.00     0.039 C 
BRANCH  14  16
HETATM   16  O   UNK N   1      28.838  15.179   2.101  0.00  0.00    -0.396 OA
HETATM   17  H   UNK N   1      29.805  15.217   2.163  0.00  0.00     0.210 HD
ENDBRANCH  14  16
ENDBRANCH  13  14
ENDBRANCH  12  13
BRANCH  12  18
HETATM   18  C   UNK N   1      27.113  18.230   3.973  0.00  0.00    -0.049 A 
HETATM   19  C   UNK N   1      25.748  17.953   3.803  0.00  0.00     0.008 A 
HETATM   20  C   UNK N   1      24.817  18.996   3.767  0.00  0.00     0.001 A 
HETATM   21  C   UNK N   1      25.240  20.318   3.917  0.00  0.00     0.000 A 
HETATM   22  C   UNK N   1      26.596  20.603   4.102  0.00  0.00     0.001 A 
HETATM   23  C   UNK N   1      27.532  19.565   4.123  0.00  0.00     0.008 A 
ENDBRANCH  12  18
ENDBRANCH   3  12
BRANCH   4  24
HETATM   24  O   UNK N   1      30.903  17.186   3.449  0.00  0.00    -0.359 OA
HETATM   25  H   UNK N   1      31.567  16.598   3.144  0.00  0.00     0.217 HD
ENDBRANCH   4  24
TORSDOF 6
ENDMDL
MODEL 7
REMARK VINA RESULT:      -6.5     10.096     12.309
REMARK  6 active torsions:
REMARK  status: ('A' for Active; 'I' for Inactive)
REMARK    1  A    between atoms: C_2  and  C_3 
REMARK    2  A    between atoms: C_2  and  C_6 
REMARK    3  A    between atoms: C_2  and  C_13 
REMARK    4  A    between atoms: C_3  and  C_4 
REMARK    5  A    between atoms: C_4  and  O_22 
REMARK    6  A    between atoms: C_14  and  O_23 
ROOT
HETATM    1  C   UNK N   1      22.054  13.280   9.933  0.00  0.00     0.032 A 
HETATM    2  C   UNK N   1      22.692  14.701   7.654  0.00  0.00     0.298 A 
HETATM    3  C   UNK N   1      21.347  14.752   8.129  0.00  0.00     0.060 A 
HETATM    4  C   UNK N   1      21.049  14.015   9.299  0.00  0.00     0.091 A 
HETATM    5  C   UNK N   1      21.791  12.526  11.085  0.00  0.00     0.017 A 
HETATM    6  C   UNK N   1      22.813  11.787  11.688  0.00  0.00     0.001 A 
HETATM    7  C   UNK N   1      24.101  11.799  11.144  0.00  0.00     0.003 A 
HETATM    8  C   UNK N   1      24.369  12.550   9.997  0.00  0.00     0.038 A 
HETATM    9  C   UNK N   1      23.351  13.290   9.390  0.00  0.00     0.092 A 
HETATM   10  O   UNK N   1      23.613  13.990   8.295  0.00  0.00    -0.274 OA
HETATM   11  O   UNK N   1      23.028  15.288   6.642  0.00  0.00    -0.259 OA
ENDROOT
BRANCH   3  12
HETATM   12  C   UNK N   1      20.197  15.500   7.423  0.00  0.00     0.063 C 
BRANCH  12  13
HETATM   13  C   UNK N   1      20.382  17.029   7.553  0.00  0.00     0.045 C 
BRANCH  13  14
HETATM   14  C   UNK N   1      19.347  17.773   8.409  0.00  0.00     0.115 C 
HETATM   15  C   UNK N   1      18.344  16.843   9.064  0.00  0.00     0.039 C 
BRANCH  14  16
HETATM   16  O   UNK N   1      19.988  18.535   9.386  0.00  0.00    -0.396 OA
HETATM   17  H   UNK N   1      20.743  18.644   9.985  0.00  0.00     0.210 HD
ENDBRANCH  14  16
ENDBRANCH  13  14
ENDBRANCH  12  13
BRANCH  12  18
HETATM   18  C   UNK N   1      19.970  15.115   5.977  0.00  0.00    -0.049 A 
HETATM   19  C   UNK N   1      19.914  13.760   5.618  0.00  0.00     0.008 A 
HETATM   20  C   UNK N   1      19.748  13.391   4.280  0.00  0.00     0.001 A 
HETATM   21  C   UNK N   1      19.620  14.372   3.294  0.00  0.00     0.000 A 
HETATM   22  C   UNK N   1      19.660  15.725   3.643  0.00  0.00     0.001 A 
HETATM   23  C   UNK N   1      19.841  16.098   4.977  0.00  0.00     0.008 A 
ENDBRANCH  12  18
ENDBRANCH   3  12
BRANCH   4  24
HETATM   24  O   UNK N   1      19.796  14.001   9.797  0.00  0.00    -0.359 OA
HETATM   25  H   UNK N   1      19.586  13.495  10.558  0.00  0.00     0.217 HD
ENDBRANCH   4  24
TORSDOF 6
ENDMDL
MODEL 8
REMARK VINA RESULT:      -6.5     13.856     17.440
REMARK  6 active torsions:
REMARK  status: ('A' for Active; 'I' for Inactive)
REMARK    1  A    between atoms: C_2  and  C_3 
REMARK    2  A    between atoms: C_2  and  C_6 
REMARK    3  A    between atoms: C_2  and  C_13 
REMARK    4  A    between atoms: C_3  and  C_4 
REMARK    5  A    between atoms: C_4  and  O_22 
REMARK    6  A    between atoms: C_14  and  O_23 
ROOT
HETATM    1  C   UNK N   1      27.061  27.678  -4.379  0.00  0.00     0.032 A 
HETATM    2  C   UNK N   1      28.897  26.159  -5.774  0.00  0.00     0.298 A 
HETATM    3  C   UNK N   1      27.879  25.482  -5.038  0.00  0.00     0.060 A 
HETATM    4  C   UNK N   1      26.952  26.285  -4.333  0.00  0.00     0.091 A 
HETATM    5  C   UNK N   1      26.169  28.503  -3.682  0.00  0.00     0.017 A 
HETATM    6  C   UNK N   1      26.313  29.893  -3.733  0.00  0.00     0.001 A 
HETATM    7  C   UNK N   1      27.347  30.462  -4.481  0.00  0.00     0.003 A 
HETATM    8  C   UNK N   1      28.238  29.644  -5.181  0.00  0.00     0.038 A 
HETATM    9  C   UNK N   1      28.098  28.255  -5.132  0.00  0.00     0.092 A 
HETATM   10  O   UNK N   1      28.956  27.487  -5.790  0.00  0.00    -0.274 OA
HETATM   11  O   UNK N   1      29.748  25.544  -6.390  0.00  0.00    -0.259 OA
ENDROOT
BRANCH   3  12
HETATM   12  C   UNK N   1      27.763  23.950  -4.912  0.00  0.00     0.063 C 
BRANCH  12  13
HETATM   13  C   UNK N   1      27.508  23.307  -6.295  0.00  0.00     0.045 C 
BRANCH  13  14
HETATM   14  C   UNK N   1      26.061  23.337  -6.807  0.00  0.00     0.115 C 
HETATM   15  C   UNK N   1      25.638  22.034  -7.458  0.00  0.00     0.039 C 
BRANCH  14  16
HETATM   16  O   UNK N   1      25.188  23.646  -5.764  0.00  0.00    -0.396 OA
HETATM   17  H   UNK N   1      24.695  23.349  -4.983  0.00  0.00     0.210 HD
ENDBRANCH  14  16
ENDBRANCH  13  14
ENDBRANCH  12  13
BRANCH  12  18
HETATM   18  C   UNK N   1      28.925  23.270  -4.218  0.00  0.00    -0.049 A 
HETATM   19  C   UNK N   1      29.699  22.330  -4.916  0.00  0.00     0.008 A 
HETATM   20  C   UNK N   1      30.747  21.664  -4.274  0.00  0.00     0.001 A 
HETATM   21  C   UNK N   1      31.040  21.944  -2.937  0.00  0.00     0.000 A 
HETATM   22  C   UNK N   1      30.285  22.890  -2.238  0.00  0.00     0.001 A 
HETATM   23  C   UNK N   1      29.226  23.546  -2.871  0.00  0.00     0.008 A 
ENDBRANCH  12  18
ENDBRANCH   3  12
BRANCH   4  24
HETATM   24  O   UNK N   1      25.972  25.716  -3.601  0.00  0.00    -0.359 OA
HETATM   25  H   UNK N   1      26.153  24.985  -3.043  0.00  0.00     0.217 HD
ENDBRANCH   4  24
TORSDOF 6
ENDMDL
MODEL 9
REMARK VINA RESULT:      -6.5     11.156     13.704
REMARK  6 active torsions:
REMARK  status: ('A' for Active; 'I' for Inactive)
REMARK    1  A    between atoms: C_2  and  C_3 
REMARK    2  A    between atoms: C_2  and  C_6 
REMARK    3  A    between atoms: C_2  and  C_13 
REMARK    4  A    between atoms: C_3  and  C_4 
REMARK    5  A    between atoms: C_4  and  O_22 
REMARK    6  A    between atoms: C_14  and  O_23 
ROOT
HETATM    1  C   UNK N   1      20.218  15.633   4.499  0.00  0.00     0.032 A 
HETATM    2  C   UNK N   1      21.213  17.616   6.142  0.00  0.00     0.298 A 
HETATM    3  C   UNK N   1      20.718  16.422   6.747  0.00  0.00     0.060 A 
HETATM    4  C   UNK N   1      20.215  15.423   5.881  0.00  0.00     0.091 A 
HETATM    5  C   UNK N   1      19.713  14.672   3.613  0.00  0.00     0.017 A 
HETATM    6  C   UNK N   1      19.713  14.917   2.237  0.00  0.00     0.001 A 
HETATM    7  C   UNK N   1      20.219  16.123   1.741  0.00  0.00     0.003 A 
HETATM    8  C   UNK N   1      20.725  17.084   2.619  0.00  0.00     0.038 A 
HETATM    9  C   UNK N   1      20.726  16.843   3.996  0.00  0.00     0.092 A 
HETATM   10  O   UNK N   1      21.198  17.767   4.821  0.00  0.00    -0.274 OA
HETATM   11  O   UNK N   1      21.644  18.535   6.815  0.00  0.00    -0.259 OA
ENDROOT
BRANCH   3  12
HETATM   12  C   UNK N   1      20.641  16.179   8.267  0.00  0.00     0.063 C 
BRANCH  12  13
HETATM   13  C   UNK N   1      19.192  16.360   8.775  0.00  0.00     0.045 C 
BRANCH  13  14
HETATM   14  C   UNK N   1      18.737  17.802   9.044  0.00  0.00     0.115 C 
HETATM   15  C   UNK N   1      17.724  17.901  10.169  0.00  0.00     0.039 C 
BRANCH  14  16
HETATM   16  O   UNK N   1      19.838  18.609   9.331  0.00  0.00    -0.396 OA
HETATM   17  H   UNK N   1      20.554  18.844   9.942  0.00  0.00     0.210 HD
ENDBRANCH  14  16
ENDBRANCH  13  14
ENDBRANCH  12  13
BRANCH  12  18
HETATM   18  C   UNK N   1      21.205  14.854   8.737  0.00  0.00    -0.049 A 
HETATM   19  C   UNK N   1      20.537  14.129   9.735  0.00  0.00     0.008 A 
HETATM   20  C   UNK N   1      21.070  12.926  10.208  0.00  0.00     0.001 A 
HETATM   21  C   UNK N   1      22.263  12.432   9.676  0.00  0.00     0.000 A 
HETATM   22  C   UNK N   1      22.928  13.139   8.671  0.00  0.00     0.001 A 
HETATM   23  C   UNK N   1      22.407  14.350   8.206  0.00  0.00     0.008 A 
ENDBRANCH  12  18
ENDBRANCH   3  12
BRANCH   4  24
HETATM   24  O   UNK N   1      19.714  14.275   6.381  0.00  0.00    -0.359 OA
HETATM   25  H   UNK N   1      18.931  13.898   6.029  0.00  0.00     0.217 HD
ENDBRANCH   4  24
TORSDOF 6
ENDMDL
