MODEL 1
REMARK VINA RESULT:      -7.0      0.000      0.000
REMARK  3 active torsions:
REMARK  status: ('A' for Active; 'I' for Inactive)
REMARK    1  A    between atoms: C_2  and  O_3 
REMARK    2  A    between atoms: C_9  and  C_15 
REMARK    3  A    between atoms: C_18  and  O_19 
ROOT
HETATM    1  C   UNK N   1      28.227  18.932   6.424  0.00  0.00     0.013 A 
HETATM    2  C   UNK N   1      27.285  19.793   7.021  0.00  0.00     0.075 A 
HETATM    3  C   UNK N   1      26.563  20.691   6.230  0.00  0.00     0.037 A 
HETATM    4  C   UNK N   1      26.764  20.733   4.848  0.00  0.00     0.005 A 
HETATM    5  C   UNK N   1      27.668  19.859   4.241  0.00  0.00     0.037 A 
HETATM    6  C   UNK N   1      28.389  18.948   5.015  0.00  0.00     0.079 A 
HETATM    7  O   UNK N   1      29.233  18.064   4.407  0.00  0.00    -0.340 OA
HETATM    8  C   UNK N   1      29.805  16.978   5.071  0.00  0.00     0.166 C 
HETATM    9  C   UNK N   1      30.255  17.478   6.452  0.00  0.00     0.028 C 
HETATM   10  C   UNK N   1      29.018  17.923   7.220  0.00  0.00     0.031 C 
HETATM   11  C   UNK N   1      29.642  18.339   8.535  0.00  0.00     0.010 C 
HETATM   12  C   UNK N   1      30.680  17.234   8.786  0.00  0.00     0.001 C 
HETATM   13  C   UNK N   1      30.892  16.525   7.439  0.00  0.00     0.008 C 
ENDROOT
BRANCH   8  14
HETATM   14  C   UNK N   1      30.896  16.353   4.232  0.00  0.00    -0.028 A 
HETATM   15  C   UNK N   1      31.980  17.131   3.798  0.00  0.00     0.012 A 
HETATM   16  C   UNK N   1      33.032  16.546   3.087  0.00  0.00     0.037 A 
HETATM   17  C   UNK N   1      33.018  15.176   2.817  0.00  0.00     0.065 A 
HETATM   18  C   UNK N   1      31.943  14.392   3.243  0.00  0.00     0.037 A 
HETATM   19  C   UNK N   1      30.886  14.977   3.946  0.00  0.00     0.012 A 
BRANCH  17  20
HETATM   20  O   UNK N   1      34.040  14.612   2.154  0.00  0.00    -0.361 OA
HETATM   21  H   UNK N   1      33.877  14.019   1.447  0.00  0.00     0.217 HD
ENDBRANCH  17  20
ENDBRANCH   8  14
BRANCH   2  22
HETATM   22  O   UNK N   1      27.069  19.761   8.348  0.00  0.00    -0.360 OA
HETATM   23  H   UNK N   1      26.242  19.477   8.686  0.00  0.00     0.217 HD
ENDBRANCH   2  22
TORSDOF 3
ENDMDL
MODEL 2
REMARK VINA RESULT:      -6.9      2.432      6.175
REMARK  3 active torsions:
REMARK  status: ('A' for Active; 'I' for Inactive)
REMARK    1  A    between atoms: C_2  and  O_3 
REMARK    2  A    between atoms: C_9  and  C_15 
REMARK    3  A    between atoms: C_18  and  O_19 
ROOT
HETATM    1  C   UNK N   1      29.538  17.351   6.847  0.00  0.00     0.013 A 
HETATM    2  C   UNK N   1      30.553  16.942   7.736  0.00  0.00     0.075 A 
HETATM    3  C   UNK N   1      30.636  17.515   9.008  0.00  0.00     0.037 A 
HETATM    4  C   UNK N   1      29.713  18.486   9.407  0.00  0.00     0.005 A 
HETATM    5  C   UNK N   1      28.682  18.871   8.547  0.00  0.00     0.037 A 
HETATM    6  C   UNK N   1      28.577  18.300   7.278  0.00  0.00     0.079 A 
HETATM    7  O   UNK N   1      27.536  18.646   6.464  0.00  0.00    -0.340 OA
HETATM    8  C   UNK N   1      27.227  17.958   5.290  0.00  0.00     0.166 C 
HETATM    9  C   UNK N   1      28.554  17.663   4.576  0.00  0.00     0.028 C 
HETATM   10  C   UNK N   1      29.380  16.751   5.471  0.00  0.00     0.031 C 
HETATM   11  C   UNK N   1      30.605  16.546   4.605  0.00  0.00     0.010 C 
HETATM   12  C   UNK N   1      30.005  16.360   3.203  0.00  0.00     0.001 C 
HETATM   13  C   UNK N   1      28.565  16.893   3.274  0.00  0.00     0.008 C 
ENDROOT
BRANCH   8  14
HETATM   14  C   UNK N   1      26.217  18.730   4.470  0.00  0.00    -0.028 A 
HETATM   15  C   UNK N   1      24.853  18.417   4.562  0.00  0.00     0.012 A 
HETATM   16  C   UNK N   1      23.904  19.174   3.867  0.00  0.00     0.037 A 
HETATM   17  C   UNK N   1      24.310  20.259   3.087  0.00  0.00     0.065 A 
HETATM   18  C   UNK N   1      25.666  20.578   2.987  0.00  0.00     0.037 A 
HETATM   19  C   UNK N   1      26.617  19.816   3.673  0.00  0.00     0.012 A 
BRANCH  17  20
HETATM   20  O   UNK N   1      23.395  20.998   2.439  0.00  0.00    -0.361 OA
HETATM   21  H   UNK N   1      23.460  21.127   1.513  0.00  0.00     0.217 HD
ENDBRANCH  17  20
ENDBRANCH   8  14
BRANCH   2  22
HETATM   22  O   UNK N   1      31.445  16.003   7.375  0.00  0.00    -0.360 OA
HETATM   23  H   UNK N   1      32.364  16.165   7.464  0.00  0.00     0.217 HD
ENDBRANCH   2  22
TORSDOF 3
ENDMDL
MODEL 3
REMARK VINA RESULT:      -6.7     10.767     13.510
REMARK  3 active torsions:
REMARK  status: ('A' for Active; 'I' for Inactive)
REMARK    1  A    between atoms: C_2  and  O_3 
REMARK    2  A    between atoms: C_9  and  C_15 
REMARK    3  A    between atoms: C_18  and  O_19 
ROOT
HETATM    1  C   UNK N   1      29.460  21.697  -6.109  0.00  0.00     0.013 A 
HETATM    2  C   UNK N   1      29.785  20.488  -6.757  0.00  0.00     0.075 A 
HETATM    3  C   UNK N   1      29.009  20.043  -7.830  0.00  0.00     0.037 A 
HETATM    4  C   UNK N   1      27.917  20.795  -8.272  0.00  0.00     0.005 A 
HETATM    5  C   UNK N   1      27.609  22.012  -7.661  0.00  0.00     0.037 A 
HETATM    6  C   UNK N   1      28.381  22.477  -6.595  0.00  0.00     0.079 A 
HETATM    7  O   UNK N   1      28.102  23.693  -6.039  0.00  0.00    -0.340 OA
HETATM    8  C   UNK N   1      28.956  24.331  -5.139  0.00  0.00     0.166 C 
HETATM    9  C   UNK N   1      29.471  23.261  -4.166  0.00  0.00     0.028 C 
HETATM   10  C   UNK N   1      30.274  22.244  -4.963  0.00  0.00     0.031 C 
HETATM   11  C   UNK N   1      30.719  21.311  -3.856  0.00  0.00     0.010 C 
HETATM   12  C   UNK N   1      31.098  22.279  -2.724  0.00  0.00     0.001 C 
HETATM   13  C   UNK N   1      30.453  23.629  -3.076  0.00  0.00     0.008 C 
ENDROOT
BRANCH   8  14
HETATM   14  C   UNK N   1      28.264  25.508  -4.488  0.00  0.00    -0.028 A 
HETATM   15  C   UNK N   1      28.845  26.783  -4.545  0.00  0.00     0.012 A 
HETATM   16  C   UNK N   1      28.177  27.891  -4.014  0.00  0.00     0.037 A 
HETATM   17  C   UNK N   1      26.915  27.735  -3.435  0.00  0.00     0.065 A 
HETATM   18  C   UNK N   1      26.328  26.469  -3.372  0.00  0.00     0.037 A 
HETATM   19  C   UNK N   1      26.999  25.359  -3.894  0.00  0.00     0.012 A 
BRANCH  17  20
HETATM   20  O   UNK N   1      26.265  28.803  -2.946  0.00  0.00    -0.361 OA
HETATM   21  H   UNK N   1      26.704  29.627  -2.861  0.00  0.00     0.217 HD
ENDBRANCH  17  20
ENDBRANCH   8  14
BRANCH   2  22
HETATM   22  O   UNK N   1      30.838  19.754  -6.354  0.00  0.00    -0.360 OA
HETATM   23  H   UNK N   1      31.033  18.939  -6.772  0.00  0.00     0.217 HD
ENDBRANCH   2  22
TORSDOF 3
ENDMDL
MODEL 4
REMARK VINA RESULT:      -6.6     10.669     12.508
REMARK  3 active torsions:
REMARK  status: ('A' for Active; 'I' for Inactive)
REMARK    1  A    between atoms: C_2  and  O_3 
REMARK    2  A    between atoms: C_9  and  C_15 
REMARK    3  A    between atoms: C_18  and  O_19 
ROOT
HETATM    1  C   UNK N   1      27.375  26.850  -4.441  0.00  0.00     0.013 A 
HETATM    2  C   UNK N   1      26.491  27.933  -4.620  0.00  0.00     0.075 A 
HETATM    3  C   UNK N   1      25.226  27.716  -5.172  0.00  0.00     0.037 A 
HETATM    4  C   UNK N   1      24.828  26.428  -5.540  0.00  0.00     0.005 A 
HETATM    5  C   UNK N   1      25.682  25.342  -5.332  0.00  0.00     0.037 A 
HETATM    6  C   UNK N   1      26.945  25.540  -4.771  0.00  0.00     0.079 A 
HETATM    7  O   UNK N   1      27.751  24.466  -4.526  0.00  0.00    -0.340 OA
HETATM    8  C   UNK N   1      28.916  24.548  -3.761  0.00  0.00     0.166 C 
HETATM    9  C   UNK N   1      29.639  25.838  -4.176  0.00  0.00     0.028 C 
HETATM   10  C   UNK N   1      28.743  27.017  -3.827  0.00  0.00     0.031 C 
HETATM   11  C   UNK N   1      29.619  28.171  -4.264  0.00  0.00     0.010 C 
HETATM   12  C   UNK N   1      31.013  27.747  -3.779  0.00  0.00     0.001 C 
HETATM   13  C   UNK N   1      30.934  26.237  -3.501  0.00  0.00     0.008 C 
ENDROOT
BRANCH   8  14
HETATM   14  C   UNK N   1      29.734  23.284  -3.897  0.00  0.00    -0.028 A 
HETATM   15  C   UNK N   1      30.550  22.859  -2.837  0.00  0.00     0.012 A 
HETATM   16  C   UNK N   1      31.251  21.653  -2.922  0.00  0.00     0.037 A 
HETATM   17  C   UNK N   1      31.130  20.852  -4.061  0.00  0.00     0.065 A 
HETATM   18  C   UNK N   1      30.322  21.266  -5.122  0.00  0.00     0.037 A 
HETATM   19  C   UNK N   1      29.628  22.477  -5.042  0.00  0.00     0.012 A 
BRANCH  17  20
HETATM   20  O   UNK N   1      31.786  19.683  -4.131  0.00  0.00    -0.361 OA
HETATM   21  H   UNK N   1      31.898  19.251  -4.956  0.00  0.00     0.217 HD
ENDBRANCH  17  20
ENDBRANCH   8  14
BRANCH   2  22
HETATM   22  O   UNK N   1      26.851  29.180  -4.264  0.00  0.00    -0.360 OA
HETATM   23  H   UNK N   1      26.256  29.725  -3.789  0.00  0.00     0.217 HD
ENDBRANCH   2  22
TORSDOF 3
ENDMDL
MODEL 5
REMARK VINA RESULT:      -6.5     11.809     13.080
REMARK  3 active torsions:
REMARK  status: ('A' for Active; 'I' for Inactive)
REMARK    1  A    between atoms: C_2  and  O_3 
REMARK    2  A    between atoms: C_9  and  C_15 
REMARK    3  A    between atoms: C_18  and  O_19 
ROOT
HETATM    1  C   UNK N   1      35.883  13.509  16.779  0.00  0.00     0.013 A 
HETATM    2  C   UNK N   1      35.874  14.450  17.828  0.00  0.00     0.075 A 
HETATM    3  C   UNK N   1      36.554  15.662  17.682  0.00  0.00     0.037 A 
HETATM    4  C   UNK N   1      37.236  15.951  16.496  0.00  0.00     0.005 A 
HETATM    5  C   UNK N   1      37.220  15.041  15.437  0.00  0.00     0.037 A 
HETATM    6  C   UNK N   1      36.536  13.831  15.563  0.00  0.00     0.079 A 
HETATM    7  O   UNK N   1      36.484  12.971  14.503  0.00  0.00    -0.340 OA
HETATM    8  C   UNK N   1      35.637  11.863  14.463  0.00  0.00     0.166 C 
HETATM    9  C   UNK N   1      35.690  11.203  15.848  0.00  0.00     0.028 C 
HETATM   10  C   UNK N   1      35.147  12.195  16.866  0.00  0.00     0.031 C 
HETATM   11  C   UNK N   1      35.242  11.372  18.134  0.00  0.00     0.010 C 
HETATM   12  C   UNK N   1      34.765   9.985  17.679  0.00  0.00     0.001 C 
HETATM   13  C   UNK N   1      34.848   9.981  16.144  0.00  0.00     0.008 C 
ENDROOT
BRANCH   8  14
HETATM   14  C   UNK N   1      35.998  10.956  13.308  0.00  0.00    -0.028 A 
HETATM   15  C   UNK N   1      37.326  10.538  13.133  0.00  0.00     0.012 A 
HETATM   16  C   UNK N   1      37.658   9.638  12.116  0.00  0.00     0.037 A 
HETATM   17  C   UNK N   1      36.662   9.136  11.274  0.00  0.00     0.065 A 
HETATM   18  C   UNK N   1      35.338   9.547  11.438  0.00  0.00     0.037 A 
HETATM   19  C   UNK N   1      35.006  10.454  12.449  0.00  0.00     0.012 A 
BRANCH  17  20
HETATM   20  O   UNK N   1      36.979   8.256  10.312  0.00  0.00    -0.361 OA
HETATM   21  H   UNK N   1      36.475   7.472  10.202  0.00  0.00     0.217 HD
ENDBRANCH  17  20
ENDBRANCH   8  14
BRANCH   2  22
HETATM   22  O   UNK N   1      35.216  14.196  18.973  0.00  0.00    -0.360 OA
HETATM   23  H   UNK N   1      34.294  14.351  19.033  0.00  0.00     0.217 HD
ENDBRANCH   2  22
TORSDOF 3
ENDMDL
MODEL 6
REMARK VINA RESULT:      -6.5      3.716      5.712
REMARK  3 active torsions:
REMARK  status: ('A' for Active; 'I' for Inactive)
REMARK    1  A    between atoms: C_2  and  O_3 
REMARK    2  A    between atoms: C_9  and  C_15 
REMARK    3  A    between atoms: C_18  and  O_19 
ROOT
HETATM    1  C   UNK N   1      30.734  17.183   6.200  0.00  0.00     0.013 A 
HETATM    2  C   UNK N   1      29.664  17.505   5.342  0.00  0.00     0.075 A 
HETATM    3  C   UNK N   1      28.392  17.736   5.872  0.00  0.00     0.037 A 
HETATM    4  C   UNK N   1      28.177  17.659   7.251  0.00  0.00     0.005 A 
HETATM    5  C   UNK N   1      29.239  17.377   8.113  0.00  0.00     0.037 A 
HETATM    6  C   UNK N   1      30.518  17.155   7.600  0.00  0.00     0.079 A 
HETATM    7  O   UNK N   1      31.559  16.930   8.455  0.00  0.00    -0.340 OA
HETATM    8  C   UNK N   1      32.894  16.934   8.046  0.00  0.00     0.166 C 
HETATM    9  C   UNK N   1      32.960  16.179   6.711  0.00  0.00     0.028 C 
HETATM   10  C   UNK N   1      32.135  16.949   5.690  0.00  0.00     0.031 C 
HETATM   11  C   UNK N   1      32.345  16.092   4.460  0.00  0.00     0.010 C 
HETATM   12  C   UNK N   1      33.839  15.741   4.537  0.00  0.00     0.001 C 
HETATM   13  C   UNK N   1      34.277  16.032   5.982  0.00  0.00     0.008 C 
ENDROOT
BRANCH   8  14
HETATM   14  C   UNK N   1      33.787  16.385   9.136  0.00  0.00    -0.028 A 
HETATM   15  C   UNK N   1      34.868  17.146   9.606  0.00  0.00     0.012 A 
HETATM   16  C   UNK N   1      35.654  16.682  10.665  0.00  0.00     0.037 A 
HETATM   17  C   UNK N   1      35.357  15.461  11.274  0.00  0.00     0.065 A 
HETATM   18  C   UNK N   1      34.284  14.695  10.814  0.00  0.00     0.037 A 
HETATM   19  C   UNK N   1      33.503  15.153   9.748  0.00  0.00     0.012 A 
BRANCH  17  20
HETATM   20  O   UNK N   1      36.098  15.028  12.306  0.00  0.00    -0.361 OA
HETATM   21  H   UNK N   1      37.029  15.140  12.301  0.00  0.00     0.217 HD
ENDBRANCH  17  20
ENDBRANCH   8  14
BRANCH   2  22
HETATM   22  O   UNK N   1      29.851  17.595   4.013  0.00  0.00    -0.360 OA
HETATM   23  H   UNK N   1      30.460  18.214   3.662  0.00  0.00     0.217 HD
ENDBRANCH   2  22
TORSDOF 3
ENDMDL
MODEL 7
REMARK VINA RESULT:      -6.5      2.311      5.767
REMARK  3 active torsions:
REMARK  status: ('A' for Active; 'I' for Inactive)
REMARK    1  A    between atoms: C_2  and  O_3 
REMARK    2  A    between atoms: C_9  and  C_15 
REMARK    3  A    between atoms: C_18  and  O_19 
ROOT
HETATM    1  C   UNK N   1      30.829  16.385   7.154  0.00  0.00     0.013 A 
HETATM    2  C   UNK N   1      31.825  15.629   7.803  0.00  0.00     0.075 A 
HETATM    3  C   UNK N   1      32.478  14.601   7.117  0.00  0.00     0.037 A 
HETATM    4  C   UNK N   1      32.155  14.326   5.786  0.00  0.00     0.005 A 
HETATM    5  C   UNK N   1      31.195  15.093   5.121  0.00  0.00     0.037 A 
HETATM    6  C   UNK N   1      30.543  16.130   5.789  0.00  0.00     0.079 A 
HETATM    7  O   UNK N   1      29.643  16.907   5.116  0.00  0.00    -0.340 OA
HETATM    8  C   UNK N   1      29.128  18.096   5.633  0.00  0.00     0.166 C 
HETATM    9  C   UNK N   1      28.806  17.844   7.113  0.00  0.00     0.028 C 
HETATM   10  C   UNK N   1      30.108  17.523   7.833  0.00  0.00     0.031 C 
HETATM   11  C   UNK N   1      29.606  17.345   9.250  0.00  0.00     0.010 C 
HETATM   12  C   UNK N   1      28.590  18.487   9.400  0.00  0.00     0.001 C 
HETATM   13  C   UNK N   1      28.255  18.959   7.976  0.00  0.00     0.008 C 
ENDROOT
BRANCH   8  14
HETATM   14  C   UNK N   1      27.963  18.581   4.799  0.00  0.00    -0.028 A 
HETATM   15  C   UNK N   1      26.944  17.690   4.434  0.00  0.00     0.012 A 
HETATM   16  C   UNK N   1      25.825  18.143   3.729  0.00  0.00     0.037 A 
HETATM   17  C   UNK N   1      25.708  19.495   3.397  0.00  0.00     0.065 A 
HETATM   18  C   UNK N   1      26.718  20.391   3.755  0.00  0.00     0.037 A 
HETATM   19  C   UNK N   1      27.842  19.937   4.451  0.00  0.00     0.012 A 
BRANCH  17  20
HETATM   20  O   UNK N   1      24.622  19.933   2.740  0.00  0.00    -0.361 OA
HETATM   21  H   UNK N   1      23.828  19.434   2.752  0.00  0.00     0.217 HD
ENDBRANCH  17  20
ENDBRANCH   8  14
BRANCH   2  22
HETATM   22  O   UNK N   1      32.158  15.884   9.081  0.00  0.00    -0.360 OA
HETATM   23  H   UNK N   1      32.845  16.491   9.278  0.00  0.00     0.217 HD
ENDBRANCH   2  22
TORSDOF 3
ENDMDL
MODEL 8
REMARK VINA RESULT:      -6.4     10.514     13.250
REMARK  3 active torsions:
REMARK  status: ('A' for Active; 'I' for Inactive)
REMARK    1  A    between atoms: C_2  and  O_3 
REMARK    2  A    between atoms: C_9  and  C_15 
REMARK    3  A    between atoms: C_18  and  O_19 
ROOT
HETATM    1  C   UNK N   1      35.730  11.434  17.123  0.00  0.00     0.013 A 
HETATM    2  C   UNK N   1      35.737  10.948  18.447  0.00  0.00     0.075 A 
HETATM    3  C   UNK N   1      35.424  11.806  19.504  0.00  0.00     0.037 A 
HETATM    4  C   UNK N   1      35.096  13.142  19.257  0.00  0.00     0.005 A 
HETATM    5  C   UNK N   1      35.050  13.623  17.947  0.00  0.00     0.037 A 
HETATM    6  C   UNK N   1      35.348  12.776  16.878  0.00  0.00     0.079 A 
HETATM    7  O   UNK N   1      35.251  13.244  15.598  0.00  0.00    -0.340 OA
HETATM    8  C   UNK N   1      35.300  12.412  14.479  0.00  0.00     0.166 C 
HETATM    9  C   UNK N   1      36.417  11.387  14.726  0.00  0.00     0.028 C 
HETATM   10  C   UNK N   1      36.033  10.551  15.938  0.00  0.00     0.031 C 
HETATM   11  C   UNK N   1      37.207   9.598  16.001  0.00  0.00     0.010 C 
HETATM   12  C   UNK N   1      37.440   9.242  14.525  0.00  0.00     0.001 C 
HETATM   13  C   UNK N   1      36.706  10.312  13.701  0.00  0.00     0.008 C 
ENDROOT
BRANCH   8  14
HETATM   14  C   UNK N   1      35.449  13.227  13.214  0.00  0.00    -0.028 A 
HETATM   15  C   UNK N   1      34.930  12.744  12.003  0.00  0.00     0.012 A 
HETATM   16  C   UNK N   1      34.993  13.523  10.844  0.00  0.00     0.037 A 
HETATM   17  C   UNK N   1      35.562  14.798  10.888  0.00  0.00     0.065 A 
HETATM   18  C   UNK N   1      36.083  15.288  12.088  0.00  0.00     0.037 A 
HETATM   19  C   UNK N   1      36.029  14.506  13.246  0.00  0.00     0.012 A 
BRANCH  17  20
HETATM   20  O   UNK N   1      35.602  15.553   9.779  0.00  0.00    -0.361 OA
HETATM   21  H   UNK N   1      34.810  15.891   9.407  0.00  0.00     0.217 HD
ENDBRANCH  17  20
ENDBRANCH   8  14
BRANCH   2  22
HETATM   22  O   UNK N   1      36.041   9.664  18.706  0.00  0.00    -0.360 OA
HETATM   23  H   UNK N   1      36.281   9.401  19.572  0.00  0.00     0.217 HD
ENDBRANCH   2  22
TORSDOF 3
ENDMDL
MODEL 9
REMARK VINA RESULT:      -6.4     11.163     13.335
REMARK  3 active torsions:
REMARK  status: ('A' for Active; 'I' for Inactive)
REMARK    1  A    between atoms: C_2  and  O_3 
REMARK    2  A    between atoms: C_9  and  C_15 
REMARK    3  A    between atoms: C_18  and  O_19 
ROOT
HETATM    1  C   UNK N   1      29.816  22.665  -4.199  0.00  0.00     0.013 A 
HETATM    2  C   UNK N   1      30.675  22.716  -3.082  0.00  0.00     0.075 A 
HETATM    3  C   UNK N   1      31.679  21.756  -2.932  0.00  0.00     0.037 A 
HETATM    4  C   UNK N   1      31.843  20.750  -3.888  0.00  0.00     0.005 A 
HETATM    5  C   UNK N   1      31.021  20.712  -5.017  0.00  0.00     0.037 A 
HETATM    6  C   UNK N   1      30.021  21.671  -5.188  0.00  0.00     0.079 A 
HETATM    7  O   UNK N   1      29.257  21.655  -6.320  0.00  0.00    -0.340 OA
HETATM    8  C   UNK N   1      28.405  22.701  -6.677  0.00  0.00     0.166 C 
HETATM    9  C   UNK N   1      27.685  23.155  -5.399  0.00  0.00     0.028 C 
HETATM   10  C   UNK N   1      28.731  23.687  -4.430  0.00  0.00     0.031 C 
HETATM   11  C   UNK N   1      27.849  24.109  -3.274  0.00  0.00     0.010 C 
HETATM   12  C   UNK N   1      26.654  24.769  -3.978  0.00  0.00     0.001 C 
HETATM   13  C   UNK N   1      26.705  24.307  -5.443  0.00  0.00     0.008 C 
ENDROOT
BRANCH   8  14
HETATM   14  C   UNK N   1      27.495  22.285  -7.811  0.00  0.00    -0.028 A 
HETATM   15  C   UNK N   1      27.784  22.682  -9.125  0.00  0.00     0.012 A 
HETATM   16  C   UNK N   1      26.993  22.240 -10.189  0.00  0.00     0.037 A 
HETATM   17  C   UNK N   1      25.915  21.384  -9.951  0.00  0.00     0.065 A 
HETATM   18  C   UNK N   1      25.618  20.983  -8.647  0.00  0.00     0.037 A 
HETATM   19  C   UNK N   1      26.402  21.433  -7.580  0.00  0.00     0.012 A 
BRANCH  17  20
HETATM   20  O   UNK N   1      25.171  20.942 -10.977  0.00  0.00    -0.361 OA
HETATM   21  H   UNK N   1      25.047  20.022 -11.111  0.00  0.00     0.217 HD
ENDBRANCH  17  20
ENDBRANCH   8  14
BRANCH   2  22
HETATM   22  O   UNK N   1      30.540  23.681  -2.155  0.00  0.00    -0.360 OA
HETATM   23  H   UNK N   1      30.220  24.527  -2.398  0.00  0.00     0.217 HD
ENDBRANCH   2  22
TORSDOF 3
ENDMDL
