REMARK  3 active torsions:
REMARK  status: ('A' for Active; 'I' for Inactive)
REMARK    1  A    between atoms: C_2  and  O_3 
REMARK    2  A    between atoms: C_9  and  C_15 
REMARK    3  A    between atoms: C_18  and  O_19 
ROOT
HETATM    1  C   UNK N   1       1.562  -1.779  -0.022  0.00  0.00     0.013 A 
HETATM    2  C   UNK N   1       2.434  -2.886  -0.020  0.00  0.00     0.075 A 
HETATM    3  C   UNK N   1       3.811  -2.688  -0.149  0.00  0.00     0.037 A 
HETATM    4  C   UNK N   1       4.330  -1.396  -0.271  0.00  0.00     0.005 A 
HETATM    5  C   UNK N   1       3.478  -0.290  -0.237  0.00  0.00     0.037 A 
HETATM    6  C   UNK N   1       2.101  -0.470  -0.097  0.00  0.00     0.079 A 
HETATM    7  O   UNK N   1       1.282   0.620  -0.014  0.00  0.00    -0.340 OA
HETATM    8  C   UNK N   1      -0.060   0.536   0.359  0.00  0.00     0.166 C 
HETATM    9  C   UNK N   1      -0.654  -0.684  -0.360  0.00  0.00     0.028 C 
HETATM   10  C   UNK N   1       0.069  -1.926   0.140  0.00  0.00     0.031 C 
HETATM   11  C   UNK N   1      -0.660  -3.003  -0.635  0.00  0.00     0.010 C 
HETATM   12  C   UNK N   1      -2.126  -2.551  -0.554  0.00  0.00     0.001 C 
HETATM   13  C   UNK N   1      -2.100  -1.071  -0.139  0.00  0.00     0.008 C 
ENDROOT
BRANCH   8  14
HETATM   14  C   UNK N   1      -0.771   1.844   0.092  0.00  0.00    -0.028 A 
HETATM   15  C   UNK N   1      -2.131   1.980   0.408  0.00  0.00     0.012 A 
HETATM   16  C   UNK N   1      -2.779   3.207   0.237  0.00  0.00     0.037 A 
HETATM   17  C   UNK N   1      -2.069   4.313  -0.236  0.00  0.00     0.065 A 
HETATM   18  C   UNK N   1      -0.715   4.188  -0.555  0.00  0.00     0.037 A 
HETATM   19  C   UNK N   1      -0.068   2.959  -0.394  0.00  0.00     0.012 A 
BRANCH  17  20
HETATM   20  O   UNK N   1      -2.687   5.496  -0.378  0.00  0.00    -0.361 OA
HETATM   21  H   UNK N   1      -2.187   6.283  -0.478  0.00  0.00     0.217 HD
ENDBRANCH  17  20
ENDBRANCH   8  14
BRANCH   2  22
HETATM   22  O   UNK N   1       1.956  -4.137   0.106  0.00  0.00    -0.360 OA
HETATM   23  H   UNK N   1       1.035  -4.284   0.195  0.00  0.00     0.217 HD
ENDBRANCH   2  22
TORSDOF 3
