REMARK  5 active torsions:
REMARK  status: ('A' for Active; 'I' for Inactive)
REMARK    1  A    between atoms: C_1  and  C_3 
REMARK       I    between atoms: C_1  and  N_23 
REMARK    2  A    between atoms: C_3  and  C_4 
REMARK    3  A    between atoms: C_4  and  N_5 
REMARK    4  A    between atoms: C_7  and  C_17 
REMARK    5  A    between atoms: C_24  and  C_25 
REMARK       I    between atoms: C_25  and  N_30 
ROOT
HETATM    1  N   UNK N   1       0.658   0.974   0.180  0.00  0.00    -0.310 N 
HETATM    2  C   UNK N   1      -0.554   1.639   0.165  0.00  0.00     0.275 A 
HETATM    3  C   UNK N   1      -0.592   3.027  -0.101  0.00  0.00     0.112 A 
HETATM    4  N   UNK N   1       0.581   3.689  -0.293  0.00  0.00    -0.349 N 
ATOM      5  HN  UNK N   1       0.560   4.691  -0.478  1.00  0.00     0.166 HD
HETATM    6  C   UNK N   1       1.779   3.053  -0.244  0.00  0.00     0.060 A 
HETATM    7  C   UNK N   1       2.960   3.773  -0.444  0.00  0.00     0.032 A 
HETATM    8  C   UNK N   1       4.195   3.119  -0.409  0.00  0.00     0.002 A 
HETATM    9  C   UNK N   1       4.251   1.742  -0.178  0.00  0.00     0.002 A 
HETATM   10  C   UNK N   1       3.074   1.015   0.019  0.00  0.00     0.032 A 
HETATM   11  C   UNK N   1       1.825   1.664  -0.010  0.00  0.00     0.064 A 
HETATM   12  O   UNK N   1      -1.585   1.023   0.375  0.00  0.00    -0.265 OA
ENDROOT
BRANCH   1  13
HETATM   13  C   UNK N   1       0.678  -0.479   0.376  0.00  0.00     0.142 C 
BRANCH  13  14
HETATM   14  C   UNK N   1       0.390  -1.196  -0.948  0.00  0.00     0.123 C 
BRANCH  14  15
HETATM   15  C   UNK N   1      -1.065  -1.134  -1.333  0.00  0.00     0.222 C 
HETATM   16  O   UNK N   1      -1.398  -0.341  -2.202  0.00  0.00    -0.273 OA
HETATM   17  N   UNK N   1      -2.009  -1.926  -0.733  0.00  0.00    -0.339 N 
HETATM   18  C   UNK N   1      -1.703  -2.931   0.256  0.00  0.00     0.179 C 
HETATM   19  C   UNK N   1      -3.402  -1.808  -1.054  0.00  0.00     0.127 C 
HETATM   20  C   UNK N   1      -3.042  -3.566   0.602  0.00  0.00     0.037 C 
HETATM   21  C   UNK N   1      -4.115  -2.695  -0.047  0.00  0.00     0.022 C 
BRANCH  18  22
HETATM   22  C   UNK N   1      -0.772  -3.969  -0.344  0.00  0.00     0.242 C 
HETATM   23  O   UNK N   1      -1.148  -4.596  -1.327  0.00  0.00    -0.271 OA
HETATM   24  N   UNK N   1       0.493  -4.157   0.131  0.00  0.00    -0.350 N 
HETATM   25  C   UNK N   1       1.035  -3.430   1.242  0.00  0.00     0.126 C 
HETATM   26  C   UNK N   1       1.433  -5.003  -0.543  0.00  0.00     0.126 C 
HETATM   27  C   UNK N   1       2.509  -3.786   1.269  0.00  0.00     0.021 C 
HETATM   28  C   UNK N   1       2.785  -4.565  -0.014  0.00  0.00     0.021 C 
ENDBRANCH  18  22
ENDBRANCH  14  15
ENDBRANCH  13  14
ENDBRANCH   1  13
BRANCH   3  29
HETATM   29  C   UNK N   1      -1.874   3.784  -0.217  0.00  0.00    -0.004 A 
HETATM   30  C   UNK N   1      -3.122   3.141  -0.134  0.00  0.00     0.014 A 
HETATM   31  C   UNK N   1      -4.309   3.859  -0.287  0.00  0.00     0.001 A 
HETATM   32  C   UNK N   1      -4.264   5.233  -0.527  0.00  0.00     0.000 A 
HETATM   33  C   UNK N   1      -3.032   5.886  -0.613  0.00  0.00     0.001 A 
HETATM   34  C   UNK N   1      -1.844   5.165  -0.463  0.00  0.00     0.014 A 
ENDBRANCH   3  29
TORSDOF 5
