MODEL 1
REMARK VINA RESULT:      -7.8      0.000      0.000
REMARK  5 active torsions:
REMARK  status: ('A' for Active; 'I' for Inactive)
REMARK    1  A    between atoms: C_1  and  C_3 
REMARK       I    between atoms: C_1  and  N_23 
REMARK    2  A    between atoms: C_3  and  C_4 
REMARK    3  A    between atoms: C_4  and  N_5 
REMARK    4  A    between atoms: C_7  and  C_17 
REMARK    5  A    between atoms: C_24  and  C_25 
REMARK       I    between atoms: C_25  and  N_30 
ROOT
HETATM    1  N   UNK N   1      20.589  16.555   5.859  0.00  0.00    -0.310 N 
HETATM    2  C   UNK N   1      21.549  17.504   5.557  0.00  0.00     0.275 A 
HETATM    3  C   UNK N   1      22.082  17.574   4.250  0.00  0.00     0.112 A 
HETATM    4  N   UNK N   1      21.665  16.668   3.324  0.00  0.00    -0.349 N 
ATOM      5  HN  UNK N   1      22.051  16.710   2.381  1.00  0.00     0.166 HD
HETATM    6  C   UNK N   1      20.751  15.710   3.619  0.00  0.00     0.060 A 
HETATM    7  C   UNK N   1      20.354  14.798   2.638  0.00  0.00     0.032 A 
HETATM    8  C   UNK N   1      19.402  13.818   2.934  0.00  0.00     0.002 A 
HETATM    9  C   UNK N   1      18.841  13.752   4.212  0.00  0.00     0.002 A 
HETATM   10  C   UNK N   1      19.230  14.663   5.197  0.00  0.00     0.032 A 
HETATM   11  C   UNK N   1      20.191  15.651   4.911  0.00  0.00     0.064 A 
HETATM   12  O   UNK N   1      21.926  18.279   6.419  0.00  0.00    -0.265 OA
ENDROOT
BRANCH   1  13
HETATM   13  C   UNK N   1      19.985  16.545   7.195  0.00  0.00     0.142 C 
BRANCH  13  14
HETATM   14  C   UNK N   1      20.961  15.943   8.213  0.00  0.00     0.123 C 
BRANCH  14  15
HETATM   15  C   UNK N   1      20.283  15.004   9.176  0.00  0.00     0.222 C 
HETATM   16  O   UNK N   1      19.136  15.256   9.517  0.00  0.00    -0.273 OA
HETATM   17  N   UNK N   1      20.917  13.898   9.679  0.00  0.00    -0.339 N 
HETATM   18  C   UNK N   1      22.244  13.486   9.290  0.00  0.00     0.179 C 
HETATM   19  C   UNK N   1      20.290  13.050  10.652  0.00  0.00     0.127 C 
HETATM   20  C   UNK N   1      22.507  12.208  10.073  0.00  0.00     0.037 C 
HETATM   21  C   UNK N   1      21.376  12.083  11.091  0.00  0.00     0.022 C 
BRANCH  18  22
HETATM   22  C   UNK N   1      22.272  13.202   7.800  0.00  0.00     0.242 C 
HETATM   23  O   UNK N   1      21.354  12.557   7.308  0.00  0.00    -0.271 OA
HETATM   24  N   UNK N   1      23.244  13.714   6.991  0.00  0.00    -0.350 N 
HETATM   25  C   UNK N   1      24.327  14.522   7.471  0.00  0.00     0.126 C 
HETATM   26  C   UNK N   1      23.175  13.598   5.564  0.00  0.00     0.126 C 
HETATM   27  C   UNK N   1      25.012  15.050   6.226  0.00  0.00     0.021 C 
HETATM   28  C   UNK N   1      24.116  14.671   5.050  0.00  0.00     0.021 C 
ENDBRANCH  18  22
ENDBRANCH  14  15
ENDBRANCH  13  14
ENDBRANCH   1  13
BRANCH   3  29
HETATM   29  C   UNK N   1      23.054  18.630   3.839  0.00  0.00    -0.004 A 
HETATM   30  C   UNK N   1      22.636  19.816   3.210  0.00  0.00     0.014 A 
HETATM   31  C   UNK N   1      23.564  20.773   2.795  0.00  0.00     0.001 A 
HETATM   32  C   UNK N   1      24.927  20.554   3.002  0.00  0.00     0.000 A 
HETATM   33  C   UNK N   1      25.358  19.380   3.624  0.00  0.00     0.001 A 
HETATM   34  C   UNK N   1      24.428  18.422   4.036  0.00  0.00     0.014 A 
ENDBRANCH   3  29
TORSDOF 5
ENDMDL
MODEL 2
REMARK VINA RESULT:      -7.6      7.382     10.393
REMARK  5 active torsions:
REMARK  status: ('A' for Active; 'I' for Inactive)
REMARK    1  A    between atoms: C_1  and  C_3 
REMARK       I    between atoms: C_1  and  N_23 
REMARK    2  A    between atoms: C_3  and  C_4 
REMARK    3  A    between atoms: C_4  and  N_5 
REMARK    4  A    between atoms: C_7  and  C_17 
REMARK    5  A    between atoms: C_24  and  C_25 
REMARK       I    between atoms: C_25  and  N_30 
ROOT
HETATM    1  N   UNK N   1      29.347  17.045   5.721  0.00  0.00    -0.310 N 
HETATM    2  C   UNK N   1      28.396  17.562   4.860  0.00  0.00     0.275 A 
HETATM    3  C   UNK N   1      27.455  18.504   5.335  0.00  0.00     0.112 A 
HETATM    4  N   UNK N   1      27.480  18.848   6.651  0.00  0.00    -0.349 N 
ATOM      5  HN  UNK N   1      26.800  19.522   7.000  1.00  0.00     0.166 HD
HETATM    6  C   UNK N   1      28.386  18.319   7.513  0.00  0.00     0.060 A 
HETATM    7  C   UNK N   1      28.373  18.699   8.857  0.00  0.00     0.032 A 
HETATM    8  C   UNK N   1      29.313  18.168   9.745  0.00  0.00     0.002 A 
HETATM    9  C   UNK N   1      30.271  17.258   9.289  0.00  0.00     0.002 A 
HETATM   10  C   UNK N   1      30.292  16.877   7.944  0.00  0.00     0.032 A 
HETATM   11  C   UNK N   1      29.347  17.403   7.042  0.00  0.00     0.064 A 
HETATM   12  O   UNK N   1      28.379  17.207   3.694  0.00  0.00    -0.265 OA
ENDROOT
BRANCH   1  13
HETATM   13  C   UNK N   1      30.368  16.131   5.199  0.00  0.00     0.142 C 
BRANCH  13  14
HETATM   14  C   UNK N   1      31.721  16.845   5.108  0.00  0.00     0.123 C 
BRANCH  14  15
HETATM   15  C   UNK N   1      32.454  16.532   3.830  0.00  0.00     0.222 C 
HETATM   16  O   UNK N   1      32.312  17.292   2.882  0.00  0.00    -0.273 OA
HETATM   17  N   UNK N   1      33.254  15.426   3.704  0.00  0.00    -0.339 N 
HETATM   18  C   UNK N   1      33.530  14.508   4.783  0.00  0.00     0.179 C 
HETATM   19  C   UNK N   1      33.889  15.096   2.461  0.00  0.00     0.127 C 
HETATM   20  C   UNK N   1      34.477  13.475   4.190  0.00  0.00     0.037 C 
HETATM   21  C   UNK N   1      34.501  13.723   2.684  0.00  0.00     0.022 C 
BRANCH  18  22
HETATM   22  C   UNK N   1      34.210  15.248   5.920  0.00  0.00     0.242 C 
HETATM   23  O   UNK N   1      35.013  16.133   5.648  0.00  0.00    -0.271 OA
HETATM   24  N   UNK N   1      33.887  15.010   7.224  0.00  0.00    -0.350 N 
HETATM   25  C   UNK N   1      32.920  14.033   7.632  0.00  0.00     0.126 C 
HETATM   26  C   UNK N   1      34.392  15.829   8.287  0.00  0.00     0.126 C 
HETATM   27  C   UNK N   1      32.717  14.270   9.116  0.00  0.00     0.021 C 
HETATM   28  C   UNK N   1      33.451  15.566   9.447  0.00  0.00     0.021 C 
ENDBRANCH  18  22
ENDBRANCH  14  15
ENDBRANCH  13  14
ENDBRANCH   1  13
BRANCH   3  29
HETATM   29  C   UNK N   1      26.461  19.163   4.436  0.00  0.00    -0.004 A 
HETATM   30  C   UNK N   1      26.835  20.183   3.542  0.00  0.00     0.014 A 
HETATM   31  C   UNK N   1      25.884  20.816   2.740  0.00  0.00     0.001 A 
HETATM   32  C   UNK N   1      24.543  20.439   2.823  0.00  0.00     0.000 A 
HETATM   33  C   UNK N   1      24.156  19.428   3.707  0.00  0.00     0.001 A 
HETATM   34  C   UNK N   1      25.109  18.797   4.511  0.00  0.00     0.014 A 
ENDBRANCH   3  29
TORSDOF 5
ENDMDL
MODEL 3
REMARK VINA RESULT:      -7.5     12.849     16.333
REMARK  5 active torsions:
REMARK  status: ('A' for Active; 'I' for Inactive)
REMARK    1  A    between atoms: C_1  and  C_3 
REMARK       I    between atoms: C_1  and  N_23 
REMARK    2  A    between atoms: C_3  and  C_4 
REMARK    3  A    between atoms: C_4  and  N_5 
REMARK    4  A    between atoms: C_7  and  C_17 
REMARK    5  A    between atoms: C_24  and  C_25 
REMARK       I    between atoms: C_25  and  N_30 
ROOT
HETATM    1  N   UNK N   1      36.858  13.807  11.505  0.00  0.00    -0.310 N 
HETATM    2  C   UNK N   1      36.460  14.200  12.770  0.00  0.00     0.275 A 
HETATM    3  C   UNK N   1      36.536  13.287  13.847  0.00  0.00     0.112 A 
HETATM    4  N   UNK N   1      36.960  12.018  13.601  0.00  0.00    -0.349 N 
ATOM      5  HN  UNK N   1      37.010  11.354  14.372  1.00  0.00     0.166 HD
HETATM    6  C   UNK N   1      37.318  11.611  12.357  0.00  0.00     0.060 A 
HETATM    7  C   UNK N   1      37.745  10.297  12.149  0.00  0.00     0.032 A 
HETATM    8  C   UNK N   1      38.129   9.877  10.872  0.00  0.00     0.002 A 
HETATM    9  C   UNK N   1      38.090  10.774   9.800  0.00  0.00     0.002 A 
HETATM   10  C   UNK N   1      37.668  12.090  10.001  0.00  0.00     0.032 A 
HETATM   11  C   UNK N   1      37.275  12.522  11.283  0.00  0.00     0.064 A 
HETATM   12  O   UNK N   1      36.052  15.335  12.950  0.00  0.00    -0.265 OA
ENDROOT
BRANCH   1  13
HETATM   13  C   UNK N   1      36.852  14.786  10.413  0.00  0.00     0.142 C 
BRANCH  13  14
HETATM   14  C   UNK N   1      35.467  14.841   9.759  0.00  0.00     0.123 C 
BRANCH  14  15
HETATM   15  C   UNK N   1      35.009  16.251   9.496  0.00  0.00     0.222 C 
HETATM   16  O   UNK N   1      35.478  17.147  10.183  0.00  0.00    -0.273 OA
HETATM   17  N   UNK N   1      34.085  16.546   8.528  0.00  0.00    -0.339 N 
HETATM   18  C   UNK N   1      33.523  15.566   7.630  0.00  0.00     0.179 C 
HETATM   19  C   UNK N   1      33.600  17.882   8.334  0.00  0.00     0.127 C 
HETATM   20  C   UNK N   1      32.585  16.352   6.724  0.00  0.00     0.037 C 
HETATM   21  C   UNK N   1      32.467  17.748   7.330  0.00  0.00     0.022 C 
BRANCH  18  22
HETATM   22  C   UNK N   1      34.631  14.931   6.810  0.00  0.00     0.242 C 
HETATM   23  O   UNK N   1      35.443  15.662   6.256  0.00  0.00    -0.271 OA
HETATM   24  N   UNK N   1      34.790  13.578   6.746  0.00  0.00    -0.350 N 
HETATM   25  C   UNK N   1      33.920  12.649   7.406  0.00  0.00     0.126 C 
HETATM   26  C   UNK N   1      35.936  12.983   6.125  0.00  0.00     0.126 C 
HETATM   27  C   UNK N   1      34.595  11.299   7.259  0.00  0.00     0.021 C 
HETATM   28  C   UNK N   1      35.981  11.573   6.682  0.00  0.00     0.021 C 
ENDBRANCH  18  22
ENDBRANCH  14  15
ENDBRANCH  13  14
ENDBRANCH   1  13
BRANCH   3  29
HETATM   29  C   UNK N   1      36.204  13.677  15.250  0.00  0.00    -0.004 A 
HETATM   30  C   UNK N   1      36.934  14.666  15.934  0.00  0.00     0.014 A 
HETATM   31  C   UNK N   1      36.636  14.987  17.259  0.00  0.00     0.001 A 
HETATM   32  C   UNK N   1      35.603  14.321  17.920  0.00  0.00     0.000 A 
HETATM   33  C   UNK N   1      34.870  13.336  17.254  0.00  0.00     0.001 A 
HETATM   34  C   UNK N   1      35.171  13.013  15.928  0.00  0.00     0.014 A 
ENDBRANCH   3  29
TORSDOF 5
ENDMDL
MODEL 4
REMARK VINA RESULT:      -7.2      4.018      6.542
REMARK  5 active torsions:
REMARK  status: ('A' for Active; 'I' for Inactive)
REMARK    1  A    between atoms: C_1  and  C_3 
REMARK       I    between atoms: C_1  and  N_23 
REMARK    2  A    between atoms: C_3  and  C_4 
REMARK    3  A    between atoms: C_4  and  N_5 
REMARK    4  A    between atoms: C_7  and  C_17 
REMARK    5  A    between atoms: C_24  and  C_25 
REMARK       I    between atoms: C_25  and  N_30 
ROOT
HETATM    1  N   UNK N   1      26.805  16.658   4.749  0.00  0.00    -0.310 N 
HETATM    2  C   UNK N   1      28.083  16.426   5.221  0.00  0.00     0.275 A 
HETATM    3  C   UNK N   1      29.038  17.468   5.210  0.00  0.00     0.112 A 
HETATM    4  N   UNK N   1      28.685  18.674   4.687  0.00  0.00    -0.349 N 
ATOM      5  HN  UNK N   1      29.372  19.427   4.670  1.00  0.00     0.166 HD
HETATM    6  C   UNK N   1      27.444  18.902   4.187  0.00  0.00     0.060 A 
HETATM    7  C   UNK N   1      27.125  20.156   3.658  0.00  0.00     0.032 A 
HETATM    8  C   UNK N   1      25.844  20.400   3.155  0.00  0.00     0.002 A 
HETATM    9  C   UNK N   1      24.877  19.391   3.186  0.00  0.00     0.002 A 
HETATM   10  C   UNK N   1      25.188  18.137   3.717  0.00  0.00     0.032 A 
HETATM   11  C   UNK N   1      26.476  17.879   4.222  0.00  0.00     0.064 A 
HETATM   12  O   UNK N   1      28.378  15.324   5.651  0.00  0.00    -0.265 OA
ENDROOT
BRANCH   1  13
HETATM   13  C   UNK N   1      25.800  15.594   4.840  0.00  0.00     0.142 C 
BRANCH  13  14
HETATM   14  C   UNK N   1      24.876  15.840   6.039  0.00  0.00     0.123 C 
BRANCH  14  15
HETATM   15  C   UNK N   1      24.700  14.612   6.893  0.00  0.00     0.222 C 
HETATM   16  O   UNK N   1      25.611  14.298   7.646  0.00  0.00    -0.273 OA
HETATM   17  N   UNK N   1      23.565  13.846   6.837  0.00  0.00    -0.339 N 
HETATM   18  C   UNK N   1      22.416  14.170   6.027  0.00  0.00     0.179 C 
HETATM   19  C   UNK N   1      23.437  12.638   7.600  0.00  0.00     0.127 C 
HETATM   20  C   UNK N   1      21.407  13.067   6.311  0.00  0.00     0.037 C 
HETATM   21  C   UNK N   1      22.149  11.998   7.110  0.00  0.00     0.022 C 
BRANCH  18  22
HETATM   22  C   UNK N   1      21.855  15.515   6.453  0.00  0.00     0.242 C 
HETATM   23  O   UNK N   1      21.730  15.745   7.650  0.00  0.00    -0.271 OA
HETATM   24  N   UNK N   1      21.570  16.493   5.546  0.00  0.00    -0.350 N 
HETATM   25  C   UNK N   1      21.737  16.329   4.131  0.00  0.00     0.126 C 
HETATM   26  C   UNK N   1      21.213  17.819   5.954  0.00  0.00     0.126 C 
HETATM   27  C   UNK N   1      21.528  17.712   3.544  0.00  0.00     0.021 C 
HETATM   28  C   UNK N   1      21.461  18.674   4.727  0.00  0.00     0.021 C 
ENDBRANCH  18  22
ENDBRANCH  14  15
ENDBRANCH  13  14
ENDBRANCH   1  13
BRANCH   3  29
HETATM   29  C   UNK N   1      30.407  17.305   5.785  0.00  0.00    -0.004 A 
HETATM   30  C   UNK N   1      30.627  17.287   7.174  0.00  0.00     0.014 A 
HETATM   31  C   UNK N   1      31.918  17.176   7.693  0.00  0.00     0.001 A 
HETATM   32  C   UNK N   1      33.009  17.083   6.827  0.00  0.00     0.000 A 
HETATM   33  C   UNK N   1      32.806  17.100   5.445  0.00  0.00     0.001 A 
HETATM   34  C   UNK N   1      31.513  17.215   4.927  0.00  0.00     0.014 A 
ENDBRANCH   3  29
TORSDOF 5
ENDMDL
MODEL 5
REMARK VINA RESULT:      -7.1      6.725      9.659
REMARK  5 active torsions:
REMARK  status: ('A' for Active; 'I' for Inactive)
REMARK    1  A    between atoms: C_1  and  C_3 
REMARK       I    between atoms: C_1  and  N_23 
REMARK    2  A    between atoms: C_3  and  C_4 
REMARK    3  A    between atoms: C_4  and  N_5 
REMARK    4  A    between atoms: C_7  and  C_17 
REMARK    5  A    between atoms: C_24  and  C_25 
REMARK       I    between atoms: C_25  and  N_30 
ROOT
HETATM    1  N   UNK N   1      29.040  17.417   5.264  0.00  0.00    -0.310 N 
HETATM    2  C   UNK N   1      27.893  17.793   4.589  0.00  0.00     0.275 A 
HETATM    3  C   UNK N   1      26.897  18.541   5.257  0.00  0.00     0.112 A 
HETATM    4  N   UNK N   1      27.073  18.837   6.573  0.00  0.00    -0.349 N 
ATOM      5  HN  UNK N   1      26.355  19.370   7.062  1.00  0.00     0.166 HD
HETATM    6  C   UNK N   1      28.178  18.441   7.255  0.00  0.00     0.060 A 
HETATM    7  C   UNK N   1      28.316  18.765   8.608  0.00  0.00     0.032 A 
HETATM    8  C   UNK N   1      29.459  18.372   9.310  0.00  0.00     0.002 A 
HETATM    9  C   UNK N   1      30.469  17.658   8.659  0.00  0.00     0.002 A 
HETATM   10  C   UNK N   1      30.339  17.335   7.306  0.00  0.00     0.032 A 
HETATM   11  C   UNK N   1      29.190  17.721   6.590  0.00  0.00     0.064 A 
HETATM   12  O   UNK N   1      27.750  17.482   3.419  0.00  0.00    -0.265 OA
ENDROOT
BRANCH   1  13
HETATM   13  C   UNK N   1      30.102  16.712   4.539  0.00  0.00     0.142 C 
BRANCH  13  14
HETATM   14  C   UNK N   1      30.011  15.204   4.800  0.00  0.00     0.123 C 
BRANCH  14  15
HETATM   15  C   UNK N   1      29.898  14.404   3.529  0.00  0.00     0.222 C 
HETATM   16  O   UNK N   1      28.864  14.492   2.882  0.00  0.00    -0.273 OA
HETATM   17  N   UNK N   1      30.908  13.585   3.095  0.00  0.00    -0.339 N 
HETATM   18  C   UNK N   1      32.184  13.463   3.757  0.00  0.00     0.179 C 
HETATM   19  C   UNK N   1      30.762  12.771   1.923  0.00  0.00     0.127 C 
HETATM   20  C   UNK N   1      32.978  12.482   2.907  0.00  0.00     0.037 C 
HETATM   21  C   UNK N   1      31.995  11.882   1.905  0.00  0.00     0.022 C 
BRANCH  18  22
HETATM   22  C   UNK N   1      32.876  14.814   3.780  0.00  0.00     0.242 C 
HETATM   23  O   UNK N   1      32.915  15.471   2.747  0.00  0.00    -0.271 OA
HETATM   24  N   UNK N   1      33.377  15.343   4.933  0.00  0.00    -0.350 N 
HETATM   25  C   UNK N   1      33.328  14.668   6.198  0.00  0.00     0.126 C 
HETATM   26  C   UNK N   1      33.868  16.688   4.995  0.00  0.00     0.126 C 
HETATM   27  C   UNK N   1      33.776  15.699   7.216  0.00  0.00     0.021 C 
HETATM   28  C   UNK N   1      33.857  17.029   6.472  0.00  0.00     0.021 C 
ENDBRANCH  18  22
ENDBRANCH  14  15
ENDBRANCH  13  14
ENDBRANCH   1  13
BRANCH   3  29
HETATM   29  C   UNK N   1      25.679  19.051   4.560  0.00  0.00    -0.004 A 
HETATM   30  C   UNK N   1      24.426  18.430   4.713  0.00  0.00     0.014 A 
HETATM   31  C   UNK N   1      23.307  18.895   4.020  0.00  0.00     0.001 A 
HETATM   32  C   UNK N   1      23.426  19.990   3.163  0.00  0.00     0.000 A 
HETATM   33  C   UNK N   1      24.664  20.617   3.000  0.00  0.00     0.001 A 
HETATM   34  C   UNK N   1      25.784  20.148   3.692  0.00  0.00     0.014 A 
ENDBRANCH   3  29
TORSDOF 5
ENDMDL
MODEL 6
REMARK VINA RESULT:      -7.1      1.967      2.574
REMARK  5 active torsions:
REMARK  status: ('A' for Active; 'I' for Inactive)
REMARK    1  A    between atoms: C_1  and  C_3 
REMARK       I    between atoms: C_1  and  N_23 
REMARK    2  A    between atoms: C_3  and  C_4 
REMARK    3  A    between atoms: C_4  and  N_5 
REMARK    4  A    between atoms: C_7  and  C_17 
REMARK    5  A    between atoms: C_24  and  C_25 
REMARK       I    between atoms: C_25  and  N_30 
ROOT
HETATM    1  N   UNK N   1      20.754  14.622   6.389  0.00  0.00    -0.310 N 
HETATM    2  C   UNK N   1      20.852  15.857   5.777  0.00  0.00     0.275 A 
HETATM    3  C   UNK N   1      21.087  15.936   4.385  0.00  0.00     0.112 A 
HETATM    4  N   UNK N   1      21.259  14.783   3.684  0.00  0.00    -0.349 N 
ATOM      5  HN  UNK N   1      21.436  14.834   2.682  1.00  0.00     0.166 HD
HETATM    6  C   UNK N   1      21.201  13.565   4.282  0.00  0.00     0.060 A 
HETATM    7  C   UNK N   1      21.387  12.406   3.524  0.00  0.00     0.032 A 
HETATM    8  C   UNK N   1      21.314  11.150   4.133  0.00  0.00     0.002 A 
HETATM    9  C   UNK N   1      21.051  11.051   5.502  0.00  0.00     0.002 A 
HETATM   10  C   UNK N   1      20.861  12.206   6.265  0.00  0.00     0.032 A 
HETATM   11  C   UNK N   1      20.936  13.476   5.663  0.00  0.00     0.064 A 
HETATM   12  O   UNK N   1      20.727  16.873   6.439  0.00  0.00    -0.265 OA
ENDROOT
BRANCH   1  13
HETATM   13  C   UNK N   1      20.428  14.552   7.817  0.00  0.00     0.142 C 
BRANCH  13  14
HETATM   14  C   UNK N   1      21.702  14.324   8.640  0.00  0.00     0.123 C 
BRANCH  14  15
HETATM   15  C   UNK N   1      21.444  13.529   9.894  0.00  0.00     0.222 C 
HETATM   16  O   UNK N   1      20.295  13.459  10.306  0.00  0.00    -0.273 OA
HETATM   17  N   UNK N   1      22.453  12.902  10.576  0.00  0.00    -0.339 N 
HETATM   18  C   UNK N   1      23.827  12.878  10.135  0.00  0.00     0.179 C 
HETATM   19  C   UNK N   1      22.210  12.209  11.808  0.00  0.00     0.127 C 
HETATM   20  C   UNK N   1      24.563  12.051  11.178  0.00  0.00     0.037 C 
HETATM   21  C   UNK N   1      23.587  11.843  12.334  0.00  0.00     0.022 C 
BRANCH  18  22
HETATM   22  C   UNK N   1      23.914  12.204   8.777  0.00  0.00     0.242 C 
HETATM   23  O   UNK N   1      23.345  11.131   8.618  0.00  0.00    -0.271 OA
HETATM   24  N   UNK N   1      24.534  12.802   7.719  0.00  0.00    -0.350 N 
HETATM   25  C   UNK N   1      25.178  14.080   7.801  0.00  0.00     0.126 C 
HETATM   26  C   UNK N   1      24.462  12.254   6.397  0.00  0.00     0.126 C 
HETATM   27  C   UNK N   1      25.515  14.448   6.369  0.00  0.00     0.021 C 
HETATM   28  C   UNK N   1      24.824  13.412   5.487  0.00  0.00     0.021 C 
ENDBRANCH  18  22
ENDBRANCH  14  15
ENDBRANCH  13  14
ENDBRANCH   1  13
BRANCH   3  29
HETATM   29  C   UNK N   1      21.116  17.236   3.651  0.00  0.00    -0.004 A 
HETATM   30  C   UNK N   1      21.878  18.326   4.109  0.00  0.00     0.014 A 
HETATM   31  C   UNK N   1      21.859  19.547   3.433  0.00  0.00     0.001 A 
HETATM   32  C   UNK N   1      21.076  19.695   2.288  0.00  0.00     0.000 A 
HETATM   33  C   UNK N   1      20.313  18.622   1.821  0.00  0.00     0.001 A 
HETATM   34  C   UNK N   1      20.330  17.401   2.501  0.00  0.00     0.014 A 
ENDBRANCH   3  29
TORSDOF 5
ENDMDL
MODEL 7
REMARK VINA RESULT:      -6.9      4.377      7.345
REMARK  5 active torsions:
REMARK  status: ('A' for Active; 'I' for Inactive)
REMARK    1  A    between atoms: C_1  and  C_3 
REMARK       I    between atoms: C_1  and  N_23 
REMARK    2  A    between atoms: C_3  and  C_4 
REMARK    3  A    between atoms: C_4  and  N_5 
REMARK    4  A    between atoms: C_7  and  C_17 
REMARK    5  A    between atoms: C_24  and  C_25 
REMARK       I    between atoms: C_25  and  N_30 
ROOT
HETATM    1  N   UNK N   1      25.853  17.316   5.309  0.00  0.00    -0.310 N 
HETATM    2  C   UNK N   1      27.021  16.962   5.959  0.00  0.00     0.275 A 
HETATM    3  C   UNK N   1      28.172  17.773   5.828  0.00  0.00     0.112 A 
HETATM    4  N   UNK N   1      28.113  18.867   5.022  0.00  0.00    -0.349 N 
ATOM      5  HN  UNK N   1      28.942  19.451   4.918  1.00  0.00     0.166 HD
HETATM    6  C   UNK N   1      26.983  19.203   4.350  0.00  0.00     0.060 A 
HETATM    7  C   UNK N   1      26.968  20.334   3.530  0.00  0.00     0.032 A 
HETATM    8  C   UNK N   1      25.801  20.692   2.848  0.00  0.00     0.002 A 
HETATM    9  C   UNK N   1      24.645  19.921   2.989  0.00  0.00     0.002 A 
HETATM   10  C   UNK N   1      24.651  18.790   3.811  0.00  0.00     0.032 A 
HETATM   11  C   UNK N   1      25.821  18.418   4.499  0.00  0.00     0.064 A 
HETATM   12  O   UNK N   1      27.050  15.956   6.647  0.00  0.00    -0.265 OA
ENDROOT
BRANCH   1  13
HETATM   13  C   UNK N   1      24.643  16.513   5.518  0.00  0.00     0.142 C 
BRANCH  13  14
HETATM   14  C   UNK N   1      24.653  15.291   4.593  0.00  0.00     0.123 C 
BRANCH  14  15
HETATM   15  C   UNK N   1      23.555  15.338   3.563  0.00  0.00     0.222 C 
HETATM   16  O   UNK N   1      22.601  16.074   3.770  0.00  0.00    -0.273 OA
HETATM   17  N   UNK N   1      23.596  14.578   2.423  0.00  0.00    -0.339 N 
HETATM   18  C   UNK N   1      24.705  13.728   2.064  0.00  0.00     0.179 C 
HETATM   19  C   UNK N   1      22.511  14.574   1.484  0.00  0.00     0.127 C 
HETATM   20  C   UNK N   1      24.319  13.120   0.723  0.00  0.00     0.037 C 
HETATM   21  C   UNK N   1      22.852  13.474   0.493  0.00  0.00     0.022 C 
BRANCH  18  22
HETATM   22  C   UNK N   1      25.962  14.567   1.915  0.00  0.00     0.242 C 
HETATM   23  O   UNK N   1      25.906  15.596   1.253  0.00  0.00    -0.271 OA
HETATM   24  N   UNK N   1      27.117  14.247   2.566  0.00  0.00    -0.350 N 
HETATM   25  C   UNK N   1      27.258  13.091   3.404  0.00  0.00     0.126 C 
HETATM   26  C   UNK N   1      28.247  15.129   2.573  0.00  0.00     0.126 C 
HETATM   27  C   UNK N   1      28.601  13.258   4.088  0.00  0.00     0.021 C 
HETATM   28  C   UNK N   1      29.082  14.666   3.752  0.00  0.00     0.021 C 
ENDBRANCH  18  22
ENDBRANCH  14  15
ENDBRANCH  13  14
ENDBRANCH   1  13
BRANCH   3  29
HETATM   29  C   UNK N   1      29.436  17.493   6.573  0.00  0.00    -0.004 A 
HETATM   30  C   UNK N   1      29.539  17.706   7.959  0.00  0.00     0.014 A 
HETATM   31  C   UNK N   1      30.742  17.479   8.630  0.00  0.00     0.001 A 
HETATM   32  C   UNK N   1      31.860  17.035   7.923  0.00  0.00     0.000 A 
HETATM   33  C   UNK N   1      31.773  16.820   6.545  0.00  0.00     0.001 A 
HETATM   34  C   UNK N   1      30.569  17.052   5.873  0.00  0.00     0.014 A 
ENDBRANCH   3  29
TORSDOF 5
ENDMDL
MODEL 8
REMARK VINA RESULT:      -6.8      6.295      9.202
REMARK  5 active torsions:
REMARK  status: ('A' for Active; 'I' for Inactive)
REMARK    1  A    between atoms: C_1  and  C_3 
REMARK       I    between atoms: C_1  and  N_23 
REMARK    2  A    between atoms: C_3  and  C_4 
REMARK    3  A    between atoms: C_4  and  N_5 
REMARK    4  A    between atoms: C_7  and  C_17 
REMARK    5  A    between atoms: C_24  and  C_25 
REMARK       I    between atoms: C_25  and  N_30 
ROOT
HETATM    1  N   UNK N   1      29.482  17.350   5.623  0.00  0.00    -0.310 N 
HETATM    2  C   UNK N   1      28.471  17.801   4.794  0.00  0.00     0.275 A 
HETATM    3  C   UNK N   1      27.426  18.592   5.325  0.00  0.00     0.112 A 
HETATM    4  N   UNK N   1      27.418  18.854   6.660  0.00  0.00    -0.349 N 
ATOM      5  HN  UNK N   1      26.663  19.418   7.050  1.00  0.00     0.166 HD
HETATM    6  C   UNK N   1      28.385  18.386   7.489  0.00  0.00     0.060 A 
HETATM    7  C   UNK N   1      28.335  18.676   8.855  0.00  0.00     0.032 A 
HETATM    8  C   UNK N   1      29.338  18.208   9.709  0.00  0.00     0.002 A 
HETATM    9  C   UNK N   1      30.395  17.450   9.198  0.00  0.00     0.002 A 
HETATM   10  C   UNK N   1      30.453  17.159   7.833  0.00  0.00     0.032 A 
HETATM   11  C   UNK N   1      29.447  17.622   6.964  0.00  0.00     0.064 A 
HETATM   12  O   UNK N   1      28.489  17.520   3.608  0.00  0.00    -0.265 OA
ENDROOT
BRANCH   1  13
HETATM   13  C   UNK N   1      30.602  16.600   5.046  0.00  0.00     0.142 C 
BRANCH  13  14
HETATM   14  C   UNK N   1      30.354  15.093   5.178  0.00  0.00     0.123 C 
BRANCH  14  15
HETATM   15  C   UNK N   1      31.628  14.292   5.121  0.00  0.00     0.222 C 
HETATM   16  O   UNK N   1      32.346  14.279   6.111  0.00  0.00    -0.273 OA
HETATM   17  N   UNK N   1      32.000  13.597   3.999  0.00  0.00    -0.339 N 
HETATM   18  C   UNK N   1      31.191  13.505   2.808  0.00  0.00     0.179 C 
HETATM   19  C   UNK N   1      33.250  12.898   3.929  0.00  0.00     0.127 C 
HETATM   20  C   UNK N   1      31.985  12.619   1.859  0.00  0.00     0.037 C 
HETATM   21  C   UNK N   1      33.368  12.446   2.483  0.00  0.00     0.022 C 
BRANCH  18  22
HETATM   22  C   UNK N   1      29.863  12.851   3.145  0.00  0.00     0.242 C 
HETATM   23  O   UNK N   1      29.860  11.871   3.879  0.00  0.00    -0.271 OA
HETATM   24  N   UNK N   1      28.677  13.376   2.719  0.00  0.00    -0.350 N 
HETATM   25  C   UNK N   1      28.583  14.550   1.902  0.00  0.00     0.126 C 
HETATM   26  C   UNK N   1      27.419  12.869   3.182  0.00  0.00     0.126 C 
HETATM   27  C   UNK N   1      27.106  14.895   1.870  0.00  0.00     0.021 C 
HETATM   28  C   UNK N   1      26.432  13.982   2.890  0.00  0.00     0.021 C 
ENDBRANCH  18  22
ENDBRANCH  14  15
ENDBRANCH  13  14
ENDBRANCH   1  13
BRANCH   3  29
HETATM   29  C   UNK N   1      26.355  19.182   4.468  0.00  0.00    -0.004 A 
HETATM   30  C   UNK N   1      26.623  20.222   3.561  0.00  0.00     0.014 A 
HETATM   31  C   UNK N   1      25.600  20.789   2.799  0.00  0.00     0.001 A 
HETATM   32  C   UNK N   1      24.292  20.323   2.935  0.00  0.00     0.000 A 
HETATM   33  C   UNK N   1      24.010  19.291   3.833  0.00  0.00     0.001 A 
HETATM   34  C   UNK N   1      25.034  18.726   4.598  0.00  0.00     0.014 A 
ENDBRANCH   3  29
TORSDOF 5
ENDMDL
MODEL 9
REMARK VINA RESULT:      -6.7     15.304     16.704
REMARK  5 active torsions:
REMARK  status: ('A' for Active; 'I' for Inactive)
REMARK    1  A    between atoms: C_1  and  C_3 
REMARK       I    between atoms: C_1  and  N_23 
REMARK    2  A    between atoms: C_3  and  C_4 
REMARK    3  A    between atoms: C_4  and  N_5 
REMARK    4  A    between atoms: C_7  and  C_17 
REMARK    5  A    between atoms: C_24  and  C_25 
REMARK       I    between atoms: C_25  and  N_30 
ROOT
HETATM    1  N   UNK N   1      27.936  23.714  -7.667  0.00  0.00    -0.310 N 
HETATM    2  C   UNK N   1      27.663  24.821  -6.886  0.00  0.00     0.275 A 
HETATM    3  C   UNK N   1      26.486  24.857  -6.104  0.00  0.00     0.112 A 
HETATM    4  N   UNK N   1      25.620  23.810  -6.175  0.00  0.00    -0.349 N 
ATOM      5  HN  UNK N   1      24.766  23.835  -5.619  1.00  0.00     0.166 HD
HETATM    6  C   UNK N   1      25.860  22.735  -6.967  0.00  0.00     0.060 A 
HETATM    7  C   UNK N   1      24.941  21.683  -7.013  0.00  0.00     0.032 A 
HETATM    8  C   UNK N   1      25.192  20.566  -7.816  0.00  0.00     0.002 A 
HETATM    9  C   UNK N   1      26.365  20.498  -8.572  0.00  0.00     0.002 A 
HETATM   10  C   UNK N   1      27.290  21.545  -8.529  0.00  0.00     0.032 A 
HETATM   11  C   UNK N   1      27.046  22.676  -7.727  0.00  0.00     0.064 A 
HETATM   12  O   UNK N   1      28.443  25.758  -6.870  0.00  0.00    -0.265 OA
ENDROOT
BRANCH   1  13
HETATM   13  C   UNK N   1      29.199  23.652  -8.410  0.00  0.00     0.142 C 
BRANCH  13  14
HETATM   14  C   UNK N   1      30.379  23.531  -7.439  0.00  0.00     0.123 C 
BRANCH  14  15
HETATM   15  C   UNK N   1      30.892  22.118  -7.328  0.00  0.00     0.222 C 
HETATM   16  O   UNK N   1      31.030  21.473  -8.357  0.00  0.00    -0.273 OA
HETATM   17  N   UNK N   1      31.190  21.548  -6.118  0.00  0.00    -0.339 N 
HETATM   18  C   UNK N   1      31.116  22.249  -4.859  0.00  0.00     0.179 C 
HETATM   19  C   UNK N   1      31.607  20.179  -6.016  0.00  0.00     0.127 C 
HETATM   20  C   UNK N   1      31.564  21.236  -3.815  0.00  0.00     0.037 C 
HETATM   21  C   UNK N   1      31.638  19.886  -4.525  0.00  0.00     0.022 C 
BRANCH  18  22
HETATM   22  C   UNK N   1      32.066  23.433  -4.879  0.00  0.00     0.242 C 
HETATM   23  O   UNK N   1      33.186  23.279  -5.352  0.00  0.00    -0.271 OA
HETATM   24  N   UNK N   1      31.674  24.673  -4.465  0.00  0.00    -0.350 N 
HETATM   25  C   UNK N   1      30.367  24.956  -3.950  0.00  0.00     0.126 C 
HETATM   26  C   UNK N   1      32.505  25.826  -4.651  0.00  0.00     0.126 C 
HETATM   27  C   UNK N   1      30.302  26.467  -3.839  0.00  0.00     0.021 C 
HETATM   28  C   UNK N   1      31.554  27.001  -4.529  0.00  0.00     0.021 C 
ENDBRANCH  18  22
ENDBRANCH  14  15
ENDBRANCH  13  14
ENDBRANCH   1  13
BRANCH   3  29
HETATM   29  C   UNK N   1      26.178  25.985  -5.174  0.00  0.00    -0.004 A 
HETATM   30  C   UNK N   1      25.507  27.141  -5.611  0.00  0.00     0.014 A 
HETATM   31  C   UNK N   1      25.266  28.202  -4.737  0.00  0.00     0.001 A 
HETATM   32  C   UNK N   1      25.695  28.122  -3.411  0.00  0.00     0.000 A 
HETATM   33  C   UNK N   1      26.363  26.980  -2.962  0.00  0.00     0.001 A 
HETATM   34  C   UNK N   1      26.607  25.920  -3.840  0.00  0.00     0.014 A 
ENDBRANCH   3  29
TORSDOF 5
ENDMDL
