REMARK  4 active torsions:
REMARK  status: ('A' for Active; 'I' for Inactive)
REMARK    1  A    between atoms: C_1  and  C_3 
REMARK       I    between atoms: C_1  and  N_16 
REMARK    2  A    between atoms: C_4  and  C_3 
REMARK    3  A    between atoms: C_4  and  N_5 
REMARK    4  A    between atoms: C_18  and  C_21 
REMARK       I    between atoms: C_21  and  N_25 
ROOT
HETATM    1  C   UNK N   1       0.283   0.102   0.663  0.00  0.00     0.222 C 
HETATM    2  O   UNK N   1       1.218   0.166   1.449  0.00  0.00    -0.273 OA
HETATM    3  N   UNK N   1      -0.492  -1.019   0.630  0.00  0.00    -0.333 N 
HETATM    4  C   UNK N   1      -0.102  -2.220   1.310  0.00  0.00     0.205 C 
HETATM    5  C   UNK N   1      -1.693  -1.175  -0.168  0.00  0.00     0.185 C 
HETATM    6  C   UNK N   1      -2.017  -2.662  -0.007  0.00  0.00     0.115 C 
HETATM    7  C   UNK N   1      -0.693  -3.283   0.410  0.00  0.00     0.261 C 
HETATM    8  F   UNK N   1       0.113  -3.452  -0.705  0.00  0.00    -0.204 F 
HETATM    9  F   UNK N   1      -0.863  -4.486   1.064  0.00  0.00    -0.204 F 
ENDROOT
BRANCH   1  10
HETATM   10  C   UNK N   1       0.068   1.210  -0.345  0.00  0.00     0.123 C 
BRANCH  10  11
HETATM   11  C   UNK N   1       1.131   2.325  -0.363  0.00  0.00     0.145 C 
BRANCH  11  12
HETATM   12  N   UNK N   1       2.535   1.911  -0.346  0.00  0.00    -0.279 N 
HETATM   13  C   UNK N   1       3.081   0.692  -0.625  0.00  0.00     0.261 A 
HETATM   14  C   UNK N   1       4.520   0.734  -0.370  0.00  0.00     0.048 A 
HETATM   15  O   UNK N   1       2.461  -0.285  -1.015  0.00  0.00    -0.267 OA
HETATM   16  C   UNK N   1       4.807   2.021   0.020  0.00  0.00     0.048 A 
HETATM   17  C   UNK N   1       5.503  -0.250  -0.431  0.00  0.00     0.018 A 
HETATM   18  C   UNK N   1       3.539   2.746   0.015  0.00  0.00     0.261 A 
HETATM   19  C   UNK N   1       6.098   2.413   0.362  0.00  0.00     0.018 A 
HETATM   20  O   UNK N   1       3.383   3.919   0.314  0.00  0.00    -0.267 OA
HETATM   21  C   UNK N   1       7.115   1.441   0.304  0.00  0.00     0.001 A 
HETATM   22  C   UNK N   1       6.818   0.115  -0.086  0.00  0.00     0.001 A 
ENDBRANCH  11  12
ENDBRANCH  10  11
ENDBRANCH   1  10
BRANCH   5  23
HETATM   23  C   UNK N   1      -2.834  -0.331   0.396  0.00  0.00     0.243 C 
HETATM   24  O   UNK N   1      -2.603   0.430   1.327  0.00  0.00    -0.271 OA
HETATM   25  N   UNK N   1      -4.109  -0.428  -0.082  0.00  0.00    -0.350 N 
HETATM   26  C   UNK N   1      -4.488  -1.312  -1.145  0.00  0.00     0.126 C 
HETATM   27  C   UNK N   1      -5.187   0.327   0.490  0.00  0.00     0.126 C 
HETATM   28  C   UNK N   1      -6.002  -1.210  -1.225  0.00  0.00     0.021 C 
HETATM   29  C   UNK N   1      -6.422  -0.078  -0.291  0.00  0.00     0.021 C 
ENDBRANCH   5  23
TORSDOF 4
