MODEL 1
REMARK VINA RESULT:      -7.2      0.000      0.000
REMARK  4 active torsions:
REMARK  status: ('A' for Active; 'I' for Inactive)
REMARK    1  A    between atoms: C_1  and  C_3 
REMARK       I    between atoms: C_1  and  N_16 
REMARK    2  A    between atoms: C_4  and  C_3 
REMARK    3  A    between atoms: C_4  and  N_5 
REMARK    4  A    between atoms: C_18  and  C_21 
REMARK       I    between atoms: C_21  and  N_25 
ROOT
HETATM    1  C   UNK N   1      20.473  14.378   9.363  0.00  0.00     0.222 C 
HETATM    2  O   UNK N   1      19.437  14.131   9.965  0.00  0.00    -0.273 OA
HETATM    3  N   UNK N   1      21.446  13.426   9.280  0.00  0.00    -0.333 N 
HETATM    4  C   UNK N   1      21.399  12.235  10.078  0.00  0.00     0.205 C 
HETATM    5  C   UNK N   1      22.664  13.550   8.503  0.00  0.00     0.185 C 
HETATM    6  C   UNK N   1      23.474  12.329   8.945  0.00  0.00     0.115 C 
HETATM    7  C   UNK N   1      22.871  11.956  10.290  0.00  0.00     0.261 C 
HETATM    8  F   UNK N   1      23.369  12.797  11.273  0.00  0.00    -0.204 F 
HETATM    9  F   UNK N   1      23.110  10.638  10.622  0.00  0.00    -0.204 F 
ENDROOT
BRANCH   1  10
HETATM   10  C   UNK N   1      20.718  15.770   8.824  0.00  0.00     0.123 C 
BRANCH  10  11
HETATM   11  C   UNK N   1      19.610  16.354   7.926  0.00  0.00     0.145 C 
BRANCH  11  12
HETATM   12  N   UNK N   1      19.990  16.758   6.572  0.00  0.00    -0.279 N 
HETATM   13  C   UNK N   1      20.770  17.803   6.168  0.00  0.00     0.261 A 
HETATM   14  C   UNK N   1      20.778  17.866   4.707  0.00  0.00     0.048 A 
HETATM   15  O   UNK N   1      21.358  18.572   6.912  0.00  0.00    -0.267 OA
HETATM   16  C   UNK N   1      20.022  16.805   4.269  0.00  0.00     0.048 A 
HETATM   17  C   UNK N   1      21.353  18.772   3.820  0.00  0.00     0.018 A 
HETATM   18  C   UNK N   1      19.547  16.115   5.465  0.00  0.00     0.261 A 
HETATM   19  C   UNK N   1      19.802  16.571   2.914  0.00  0.00     0.018 A 
HETATM   20  O   UNK N   1      18.835  15.123   5.486  0.00  0.00    -0.267 OA
HETATM   21  C   UNK N   1      20.377  17.467   1.993  0.00  0.00     0.001 A 
HETATM   22  C   UNK N   1      21.144  18.565   2.444  0.00  0.00     0.001 A 
ENDBRANCH  11  12
ENDBRANCH  10  11
ENDBRANCH   1  10
BRANCH   5  23
HETATM   23  C   UNK N   1      22.367  13.462   7.008  0.00  0.00     0.243 C 
HETATM   24  O   UNK N   1      21.700  12.524   6.591  0.00  0.00    -0.271 OA
HETATM   25  N   UNK N   1      22.854  14.378   6.119  0.00  0.00    -0.350 N 
HETATM   26  C   UNK N   1      23.670  15.492   6.502  0.00  0.00     0.126 C 
HETATM   27  C   UNK N   1      22.617  14.258   4.709  0.00  0.00     0.126 C 
HETATM   28  C   UNK N   1      24.110  16.129   5.195  0.00  0.00     0.021 C 
HETATM   29  C   UNK N   1      23.335  15.435   4.078  0.00  0.00     0.021 C 
ENDBRANCH   5  23
TORSDOF 4
ENDMDL
MODEL 2
REMARK VINA RESULT:      -7.1     15.714     17.997
REMARK  4 active torsions:
REMARK  status: ('A' for Active; 'I' for Inactive)
REMARK    1  A    between atoms: C_1  and  C_3 
REMARK       I    between atoms: C_1  and  N_16 
REMARK    2  A    between atoms: C_4  and  C_3 
REMARK    3  A    between atoms: C_4  and  N_5 
REMARK    4  A    between atoms: C_18  and  C_21 
REMARK       I    between atoms: C_21  and  N_25 
ROOT
HETATM    1  C   UNK N   1      28.802  25.997  -4.446  0.00  0.00     0.222 C 
HETATM    2  O   UNK N   1      29.802  26.310  -3.814  0.00  0.00    -0.273 OA
HETATM    3  N   UNK N   1      27.775  26.885  -4.562  0.00  0.00    -0.333 N 
HETATM    4  C   UNK N   1      27.721  28.078  -3.768  0.00  0.00     0.205 C 
HETATM    5  C   UNK N   1      26.590  26.682  -5.375  0.00  0.00     0.185 C 
HETATM    6  C   UNK N   1      25.692  27.850  -4.962  0.00  0.00     0.115 C 
HETATM    7  C   UNK N   1      26.229  28.264  -3.601  0.00  0.00     0.261 C 
HETATM    8  F   UNK N   1      25.755  27.395  -2.631  0.00  0.00    -0.204 F 
HETATM    9  F   UNK N   1      25.897  29.564  -3.281  0.00  0.00    -0.204 F 
ENDROOT
BRANCH   1  10
HETATM   10  C   UNK N   1      28.662  24.590  -4.987  0.00  0.00     0.123 C 
BRANCH  10  11
HETATM   11  C   UNK N   1      28.646  23.460  -3.940  0.00  0.00     0.145 C 
BRANCH  11  12
HETATM   12  N   UNK N   1      29.831  22.603  -3.863  0.00  0.00    -0.279 N 
HETATM   13  C   UNK N   1      30.778  22.523  -2.885  0.00  0.00     0.261 A 
HETATM   14  C   UNK N   1      31.829  21.595  -3.301  0.00  0.00     0.048 A 
HETATM   15  O   UNK N   1      30.758  23.140  -1.831  0.00  0.00    -0.267 OA
HETATM   16  C   UNK N   1      31.447  21.101  -4.525  0.00  0.00     0.048 A 
HETATM   17  C   UNK N   1      33.031  21.225  -2.703  0.00  0.00     0.018 A 
HETATM   18  C   UNK N   1      30.177  21.744  -4.852  0.00  0.00     0.261 A 
HETATM   19  C   UNK N   1      32.234  20.193  -5.228  0.00  0.00     0.018 A 
HETATM   20  O   UNK N   1      29.524  21.567  -5.868  0.00  0.00    -0.267 OA
HETATM   21  C   UNK N   1      33.453  19.795  -4.647  0.00  0.00     0.001 A 
HETATM   22  C   UNK N   1      33.852  20.312  -3.392  0.00  0.00     0.001 A 
ENDBRANCH  11  12
ENDBRANCH  10  11
ENDBRANCH   1  10
BRANCH   5  23
HETATM   23  C   UNK N   1      26.927  26.786  -6.861  0.00  0.00     0.243 C 
HETATM   24  O   UNK N   1      27.546  27.763  -7.261  0.00  0.00    -0.271 OA
HETATM   25  N   UNK N   1      26.525  25.841  -7.760  0.00  0.00    -0.350 N 
HETATM   26  C   UNK N   1      25.768  24.678  -7.398  0.00  0.00     0.126 C 
HETATM   27  C   UNK N   1      26.796  25.972  -9.163  0.00  0.00     0.126 C 
HETATM   28  C   UNK N   1      25.408  24.012  -8.716  0.00  0.00     0.021 C 
HETATM   29  C   UNK N   1      26.172  24.752  -9.811  0.00  0.00     0.021 C 
ENDBRANCH   5  23
TORSDOF 4
ENDMDL
MODEL 3
REMARK VINA RESULT:      -7.1     16.353     17.925
REMARK  4 active torsions:
REMARK  status: ('A' for Active; 'I' for Inactive)
REMARK    1  A    between atoms: C_1  and  C_3 
REMARK       I    between atoms: C_1  and  N_16 
REMARK    2  A    between atoms: C_4  and  C_3 
REMARK    3  A    between atoms: C_4  and  N_5 
REMARK    4  A    between atoms: C_18  and  C_21 
REMARK       I    between atoms: C_21  and  N_25 
ROOT
HETATM    1  C   UNK N   1      27.201  22.138  -8.694  0.00  0.00     0.222 C 
HETATM    2  O   UNK N   1      26.846  21.987  -9.855  0.00  0.00    -0.273 OA
HETATM    3  N   UNK N   1      28.336  21.526  -8.252  0.00  0.00    -0.333 N 
HETATM    4  C   UNK N   1      28.994  20.517  -9.030  0.00  0.00     0.205 C 
HETATM    5  C   UNK N   1      28.925  21.716  -6.941  0.00  0.00     0.185 C 
HETATM    6  C   UNK N   1      30.016  20.643  -6.900  0.00  0.00     0.115 C 
HETATM    7  C   UNK N   1      29.576  19.633  -7.948  0.00  0.00     0.261 C 
HETATM    8  F   UNK N   1      28.583  18.821  -7.424  0.00  0.00    -0.204 F 
HETATM    9  F   UNK N   1      30.628  18.867  -8.409  0.00  0.00    -0.204 F 
ENDROOT
BRANCH   1  10
HETATM   10  C   UNK N   1      26.318  22.900  -7.729  0.00  0.00     0.123 C 
BRANCH  10  11
HETATM   11  C   UNK N   1      25.889  24.311  -8.174  0.00  0.00     0.145 C 
BRANCH  11  12
HETATM   12  N   UNK N   1      26.096  25.404  -7.221  0.00  0.00    -0.279 N 
HETATM   13  C   UNK N   1      25.551  25.588  -5.984  0.00  0.00     0.261 A 
HETATM   14  C   UNK N   1      25.977  26.882  -5.453  0.00  0.00     0.048 A 
HETATM   15  O   UNK N   1      24.813  24.799  -5.415  0.00  0.00    -0.267 OA
HETATM   16  C   UNK N   1      26.821  27.427  -6.392  0.00  0.00     0.048 A 
HETATM   17  C   UNK N   1      25.647  27.559  -4.282  0.00  0.00     0.018 A 
HETATM   18  C   UNK N   1      26.888  26.469  -7.492  0.00  0.00     0.261 A 
HETATM   19  C   UNK N   1      27.402  28.680  -6.215  0.00  0.00     0.018 A 
HETATM   20  O   UNK N   1      27.534  26.602  -8.519  0.00  0.00    -0.267 OA
HETATM   21  C   UNK N   1      27.093  29.386  -5.037  0.00  0.00     0.001 A 
HETATM   22  C   UNK N   1      26.216  28.830  -4.078  0.00  0.00     0.001 A 
ENDBRANCH  11  12
ENDBRANCH  10  11
ENDBRANCH   1  10
BRANCH   5  23
HETATM   23  C   UNK N   1      29.556  23.102  -6.824  0.00  0.00     0.243 C 
HETATM   24  O   UNK N   1      30.370  23.455  -7.667  0.00  0.00    -0.271 OA
HETATM   25  N   UNK N   1      29.266  23.942  -5.787  0.00  0.00    -0.350 N 
HETATM   26  C   UNK N   1      28.354  23.609  -4.733  0.00  0.00     0.126 C 
HETATM   27  C   UNK N   1      29.905  25.220  -5.653  0.00  0.00     0.126 C 
HETATM   28  C   UNK N   1      28.470  24.747  -3.733  0.00  0.00     0.021 C 
HETATM   29  C   UNK N   1      29.341  25.821  -4.380  0.00  0.00     0.021 C 
ENDBRANCH   5  23
TORSDOF 4
ENDMDL
MODEL 4
REMARK VINA RESULT:      -7.0      3.817      7.196
REMARK  4 active torsions:
REMARK  status: ('A' for Active; 'I' for Inactive)
REMARK    1  A    between atoms: C_1  and  C_3 
REMARK       I    between atoms: C_1  and  N_16 
REMARK    2  A    between atoms: C_4  and  C_3 
REMARK    3  A    between atoms: C_4  and  N_5 
REMARK    4  A    between atoms: C_18  and  C_21 
REMARK       I    between atoms: C_21  and  N_25 
ROOT
HETATM    1  C   UNK N   1      20.920  17.415   5.357  0.00  0.00     0.222 C 
HETATM    2  O   UNK N   1      21.445  18.159   6.174  0.00  0.00    -0.273 OA
HETATM    3  N   UNK N   1      20.840  17.799   4.052  0.00  0.00    -0.333 N 
HETATM    4  C   UNK N   1      21.127  19.144   3.647  0.00  0.00     0.205 C 
HETATM    5  C   UNK N   1      20.350  16.966   2.970  0.00  0.00     0.185 C 
HETATM    6  C   UNK N   1      20.262  17.947   1.799  0.00  0.00     0.115 C 
HETATM    7  C   UNK N   1      20.195  19.312   2.467  0.00  0.00     0.261 C 
HETATM    8  F   UNK N   1      18.906  19.544   2.920  0.00  0.00    -0.204 F 
HETATM    9  F   UNK N   1      20.596  20.327   1.624  0.00  0.00    -0.204 F 
ENDROOT
BRANCH   1  10
HETATM   10  C   UNK N   1      20.259  16.134   5.820  0.00  0.00     0.123 C 
BRANCH  10  11
HETATM   11  C   UNK N   1      19.929  16.047   7.322  0.00  0.00     0.145 C 
BRANCH  11  12
HETATM   12  N   UNK N   1      20.727  15.122   8.129  0.00  0.00    -0.279 N 
HETATM   13  C   UNK N   1      22.022  14.723   7.962  0.00  0.00     0.261 A 
HETATM   14  C   UNK N   1      22.350  13.706   8.959  0.00  0.00     0.048 A 
HETATM   15  O   UNK N   1      22.782  15.142   7.104  0.00  0.00    -0.267 OA
HETATM   16  C   UNK N   1      21.229  13.556   9.742  0.00  0.00     0.048 A 
HETATM   17  C   UNK N   1      23.496  12.944   9.166  0.00  0.00     0.018 A 
HETATM   18  C   UNK N   1      20.225  14.470   9.205  0.00  0.00     0.261 A 
HETATM   19  C   UNK N   1      21.186  12.643  10.792  0.00  0.00     0.018 A 
HETATM   20  O   UNK N   1      19.090  14.617   9.629  0.00  0.00    -0.267 OA
HETATM   21  C   UNK N   1      22.333  11.862  11.030  0.00  0.00     0.001 A 
HETATM   22  C   UNK N   1      23.481  12.008  10.218  0.00  0.00     0.001 A 
ENDBRANCH  11  12
ENDBRANCH  10  11
ENDBRANCH   1  10
BRANCH   5  23
HETATM   23  C   UNK N   1      21.346  15.856   2.644  0.00  0.00     0.243 C 
HETATM   24  O   UNK N   1      22.518  15.998   2.969  0.00  0.00    -0.271 OA
HETATM   25  N   UNK N   1      20.977  14.729   1.968  0.00  0.00    -0.350 N 
HETATM   26  C   UNK N   1      19.639  14.483   1.515  0.00  0.00     0.126 C 
HETATM   27  C   UNK N   1      21.930  13.715   1.616  0.00  0.00     0.126 C 
HETATM   28  C   UNK N   1      19.728  13.215   0.683  0.00  0.00     0.021 C 
HETATM   29  C   UNK N   1      21.140  12.662   0.864  0.00  0.00     0.021 C 
ENDBRANCH   5  23
TORSDOF 4
ENDMDL
MODEL 5
REMARK VINA RESULT:      -7.0      3.580      7.189
REMARK  4 active torsions:
REMARK  status: ('A' for Active; 'I' for Inactive)
REMARK    1  A    between atoms: C_1  and  C_3 
REMARK       I    between atoms: C_1  and  N_16 
REMARK    2  A    between atoms: C_4  and  C_3 
REMARK    3  A    between atoms: C_4  and  N_5 
REMARK    4  A    between atoms: C_18  and  C_21 
REMARK       I    between atoms: C_21  and  N_25 
ROOT
HETATM    1  C   UNK N   1      22.293  16.830   6.172  0.00  0.00     0.222 C 
HETATM    2  O   UNK N   1      21.613  16.895   7.187  0.00  0.00    -0.273 OA
HETATM    3  N   UNK N   1      22.240  17.844   5.262  0.00  0.00    -0.333 N 
HETATM    4  C   UNK N   1      21.236  18.865   5.335  0.00  0.00     0.205 C 
HETATM    5  C   UNK N   1      23.077  17.944   4.082  0.00  0.00     0.185 C 
HETATM    6  C   UNK N   1      22.452  19.116   3.321  0.00  0.00     0.115 C 
HETATM    7  C   UNK N   1      21.038  19.199   3.873  0.00  0.00     0.261 C 
HETATM    8  F   UNK N   1      20.248  18.229   3.275  0.00  0.00    -0.204 F 
HETATM    9  F   UNK N   1      20.479  20.448   3.693  0.00  0.00    -0.204 F 
ENDROOT
BRANCH   1  10
HETATM   10  C   UNK N   1      23.088  15.577   5.876  0.00  0.00     0.123 C 
BRANCH  10  11
HETATM   11  C   UNK N   1      22.404  14.242   6.225  0.00  0.00     0.145 C 
BRANCH  11  12
HETATM   12  N   UNK N   1      22.547  13.756   7.599  0.00  0.00    -0.279 N 
HETATM   13  C   UNK N   1      23.676  13.395   8.276  0.00  0.00     0.261 A 
HETATM   14  C   UNK N   1      23.308  12.874   9.591  0.00  0.00     0.048 A 
HETATM   15  O   UNK N   1      24.815  13.483   7.844  0.00  0.00    -0.267 OA
HETATM   16  C   UNK N   1      21.940  12.983   9.682  0.00  0.00     0.048 A 
HETATM   17  C   UNK N   1      24.069  12.320  10.617  0.00  0.00     0.018 A 
HETATM   18  C   UNK N   1      21.486  13.554   8.417  0.00  0.00     0.261 A 
HETATM   19  C   UNK N   1      21.244  12.558  10.810  0.00  0.00     0.018 A 
HETATM   20  O   UNK N   1      20.329  13.794   8.113  0.00  0.00    -0.267 OA
HETATM   21  C   UNK N   1      21.987  11.998  11.867  0.00  0.00     0.001 A 
HETATM   22  C   UNK N   1      23.392  11.875  11.768  0.00  0.00     0.001 A 
ENDBRANCH  11  12
ENDBRANCH  10  11
ENDBRANCH   1  10
BRANCH   5  23
HETATM   23  C   UNK N   1      24.517  18.280   4.462  0.00  0.00     0.243 C 
HETATM   24  O   UNK N   1      24.731  19.266   5.157  0.00  0.00    -0.271 OA
HETATM   25  N   UNK N   1      25.574  17.537   4.021  0.00  0.00    -0.350 N 
HETATM   26  C   UNK N   1      25.431  16.386   3.178  0.00  0.00     0.126 C 
HETATM   27  C   UNK N   1      26.928  17.891   4.337  0.00  0.00     0.126 C 
HETATM   28  C   UNK N   1      26.850  15.987   2.809  0.00  0.00     0.021 C 
HETATM   29  C   UNK N   1      27.788  16.850   3.649  0.00  0.00     0.021 C 
ENDBRANCH   5  23
TORSDOF 4
ENDMDL
MODEL 6
REMARK VINA RESULT:      -7.0     12.749     15.636
REMARK  4 active torsions:
REMARK  status: ('A' for Active; 'I' for Inactive)
REMARK    1  A    between atoms: C_1  and  C_3 
REMARK       I    between atoms: C_1  and  N_16 
REMARK    2  A    between atoms: C_4  and  C_3 
REMARK    3  A    between atoms: C_4  and  N_5 
REMARK    4  A    between atoms: C_18  and  C_21 
REMARK       I    between atoms: C_21  and  N_25 
ROOT
HETATM    1  C   UNK N   1      34.969  16.432  10.062  0.00  0.00     0.222 C 
HETATM    2  O   UNK N   1      35.567  17.411  10.487  0.00  0.00    -0.273 OA
HETATM    3  N   UNK N   1      34.531  16.421   8.771  0.00  0.00    -0.333 N 
HETATM    4  C   UNK N   1      34.530  17.610   7.969  0.00  0.00     0.205 C 
HETATM    5  C   UNK N   1      33.916  15.284   8.113  0.00  0.00     0.185 C 
HETATM    6  C   UNK N   1      33.422  15.882   6.793  0.00  0.00     0.115 C 
HETATM    7  C   UNK N   1      33.331  17.373   7.077  0.00  0.00     0.261 C 
HETATM    8  F   UNK N   1      32.166  17.643   7.779  0.00  0.00    -0.204 F 
HETATM    9  F   UNK N   1      33.380  18.128   5.924  0.00  0.00    -0.204 F 
ENDROOT
BRANCH   1  10
HETATM   10  C   UNK N   1      34.616  15.298  10.999  0.00  0.00     0.123 C 
BRANCH  10  11
HETATM   11  C   UNK N   1      35.759  14.326  11.347  0.00  0.00     0.145 C 
BRANCH  11  12
HETATM   12  N   UNK N   1      35.596  13.504  12.548  0.00  0.00    -0.279 N 
HETATM   13  C   UNK N   1      35.028  12.271  12.681  0.00  0.00     0.261 A 
HETATM   14  C   UNK N   1      35.002  11.898  14.095  0.00  0.00     0.048 A 
HETATM   15  O   UNK N   1      34.598  11.590  11.763  0.00  0.00    -0.267 OA
HETATM   16  C   UNK N   1      35.611  12.925  14.777  0.00  0.00     0.048 A 
HETATM   17  C   UNK N   1      34.473  10.792  14.754  0.00  0.00     0.018 A 
HETATM   18  C   UNK N   1      35.987  13.920  13.776  0.00  0.00     0.261 A 
HETATM   19  C   UNK N   1      35.743  12.907  16.163  0.00  0.00     0.018 A 
HETATM   20  O   UNK N   1      36.545  14.983  13.997  0.00  0.00    -0.267 OA
HETATM   21  C   UNK N   1      35.223  11.798  16.857  0.00  0.00     0.001 A 
HETATM   22  C   UNK N   1      34.587  10.748  16.156  0.00  0.00     0.001 A 
ENDBRANCH  11  12
ENDBRANCH  10  11
ENDBRANCH   1  10
BRANCH   5  23
HETATM   23  C   UNK N   1      34.948  14.193   7.835  0.00  0.00     0.243 C 
HETATM   24  O   UNK N   1      36.033  14.511   7.366  0.00  0.00    -0.271 OA
HETATM   25  N   UNK N   1      34.681  12.873   8.058  0.00  0.00    -0.350 N 
HETATM   26  C   UNK N   1      33.431  12.396   8.573  0.00  0.00     0.126 C 
HETATM   27  C   UNK N   1      35.635  11.848   7.742  0.00  0.00     0.126 C 
HETATM   28  C   UNK N   1      33.523  10.881   8.498  0.00  0.00     0.021 C 
HETATM   29  C   UNK N   1      34.959  10.541   8.106  0.00  0.00     0.021 C 
ENDBRANCH   5  23
TORSDOF 4
ENDMDL
MODEL 7
REMARK VINA RESULT:      -6.9     15.735     17.719
REMARK  4 active torsions:
REMARK  status: ('A' for Active; 'I' for Inactive)
REMARK    1  A    between atoms: C_1  and  C_3 
REMARK       I    between atoms: C_1  and  N_16 
REMARK    2  A    between atoms: C_4  and  C_3 
REMARK    3  A    between atoms: C_4  and  N_5 
REMARK    4  A    between atoms: C_18  and  C_21 
REMARK       I    between atoms: C_21  and  N_25 
ROOT
HETATM    1  C   UNK N   1      26.973  24.359  -3.965  0.00  0.00     0.222 C 
HETATM    2  O   UNK N   1      26.660  24.383  -2.783  0.00  0.00    -0.273 OA
HETATM    3  N   UNK N   1      28.285  24.481  -4.315  0.00  0.00    -0.333 N 
HETATM    4  C   UNK N   1      29.281  24.881  -3.363  0.00  0.00     0.205 C 
HETATM    5  C   UNK N   1      28.799  24.353  -5.665  0.00  0.00     0.185 C 
HETATM    6  C   UNK N   1      30.255  24.802  -5.518  0.00  0.00     0.115 C 
HETATM    7  C   UNK N   1      30.256  25.632  -4.243  0.00  0.00     0.261 C 
HETATM    8  F   UNK N   1      29.763  26.899  -4.513  0.00  0.00    -0.204 F 
HETATM    9  F   UNK N   1      31.511  25.718  -3.677  0.00  0.00    -0.204 F 
ENDROOT
BRANCH   1  10
HETATM   10  C   UNK N   1      25.898  24.317  -5.029  0.00  0.00     0.123 C 
BRANCH  10  11
HETATM   11  C   UNK N   1      25.176  25.647  -5.316  0.00  0.00     0.145 C 
BRANCH  11  12
HETATM   12  N   UNK N   1      25.964  26.875  -5.200  0.00  0.00    -0.279 N 
HETATM   13  C   UNK N   1      26.011  27.780  -4.180  0.00  0.00     0.261 A 
HETATM   14  C   UNK N   1      26.866  28.901  -4.564  0.00  0.00     0.048 A 
HETATM   15  O   UNK N   1      25.420  27.674  -3.116  0.00  0.00    -0.267 OA
HETATM   16  C   UNK N   1      27.354  28.606  -5.815  0.00  0.00     0.048 A 
HETATM   17  C   UNK N   1      27.179  30.094  -3.918  0.00  0.00     0.018 A 
HETATM   18  C   UNK N   1      26.779  27.316  -6.188  0.00  0.00     0.261 A 
HETATM   19  C   UNK N   1      28.198  29.477  -6.497  0.00  0.00     0.018 A 
HETATM   20  O   UNK N   1      26.970  26.723  -7.237  0.00  0.00    -0.267 OA
HETATM   21  C   UNK N   1      28.537  30.690  -5.867  0.00  0.00     0.001 A 
HETATM   22  C   UNK N   1      28.027  30.998  -4.585  0.00  0.00     0.001 A 
ENDBRANCH  11  12
ENDBRANCH  10  11
ENDBRANCH   1  10
BRANCH   5  23
HETATM   23  C   UNK N   1      28.749  22.900  -6.131  0.00  0.00     0.243 C 
HETATM   24  O   UNK N   1      29.296  22.041  -5.451  0.00  0.00    -0.271 OA
HETATM   25  N   UNK N   1      28.146  22.536  -7.300  0.00  0.00    -0.350 N 
HETATM   26  C   UNK N   1      27.508  23.469  -8.182  0.00  0.00     0.126 C 
HETATM   27  C   UNK N   1      28.151  21.177  -7.759  0.00  0.00     0.126 C 
HETATM   28  C   UNK N   1      27.134  22.660  -9.413  0.00  0.00     0.021 C 
HETATM   29  C   UNK N   1      27.415  21.196  -9.085  0.00  0.00     0.021 C 
ENDBRANCH   5  23
TORSDOF 4
ENDMDL
MODEL 8
REMARK VINA RESULT:      -6.9     11.518     13.396
REMARK  4 active torsions:
REMARK  status: ('A' for Active; 'I' for Inactive)
REMARK    1  A    between atoms: C_1  and  C_3 
REMARK       I    between atoms: C_1  and  N_16 
REMARK    2  A    between atoms: C_4  and  C_3 
REMARK    3  A    between atoms: C_4  and  N_5 
REMARK    4  A    between atoms: C_18  and  C_21 
REMARK       I    between atoms: C_21  and  N_25 
ROOT
HETATM    1  C   UNK N   1      35.886  12.822   9.426  0.00  0.00     0.222 C 
HETATM    2  O   UNK N   1      36.736  12.017   9.073  0.00  0.00    -0.273 OA
HETATM    3  N   UNK N   1      36.002  13.435  10.638  0.00  0.00    -0.333 N 
HETATM    4  C   UNK N   1      36.953  12.989  11.616  0.00  0.00     0.205 C 
HETATM    5  C   UNK N   1      35.131  14.489  11.124  0.00  0.00     0.185 C 
HETATM    6  C   UNK N   1      35.560  14.638  12.585  0.00  0.00     0.115 C 
HETATM    7  C   UNK N   1      36.234  13.313  12.907  0.00  0.00     0.261 C 
HETATM    8  F   UNK N   1      35.269  12.350  13.158  0.00  0.00    -0.204 F 
HETATM    9  F   UNK N   1      37.100  13.413  13.976  0.00  0.00    -0.204 F 
ENDROOT
BRANCH   1  10
HETATM   10  C   UNK N   1      34.654  13.041   8.575  0.00  0.00     0.123 C 
BRANCH  10  11
HETATM   11  C   UNK N   1      34.880  13.069   7.051  0.00  0.00     0.145 C 
BRANCH  11  12
HETATM   12  N   UNK N   1      34.135  14.067   6.282  0.00  0.00    -0.279 N 
HETATM   13  C   UNK N   1      34.549  15.276   5.803  0.00  0.00     0.261 A 
HETATM   14  C   UNK N   1      33.419  15.968   5.186  0.00  0.00     0.048 A 
HETATM   15  O   UNK N   1      35.685  15.716   5.888  0.00  0.00    -0.267 OA
HETATM   16  C   UNK N   1      32.346  15.113   5.276  0.00  0.00     0.048 A 
HETATM   17  C   UNK N   1      33.301  17.235   4.623  0.00  0.00     0.018 A 
HETATM   18  C   UNK N   1      32.828  13.916   5.961  0.00  0.00     0.261 A 
HETATM   19  C   UNK N   1      31.087  15.463   4.797  0.00  0.00     0.018 A 
HETATM   20  O   UNK N   1      32.162  12.930   6.236  0.00  0.00    -0.267 OA
HETATM   21  C   UNK N   1      30.938  16.737   4.217  0.00  0.00     0.001 A 
HETATM   22  C   UNK N   1      32.038  17.621   4.135  0.00  0.00     0.001 A 
ENDBRANCH  11  12
ENDBRANCH  10  11
ENDBRANCH   1  10
BRANCH   5  23
HETATM   23  C   UNK N   1      35.385  15.794  10.372  0.00  0.00     0.243 C 
HETATM   24  O   UNK N   1      36.464  16.357  10.512  0.00  0.00    -0.271 OA
HETATM   25  N   UNK N   1      34.433  16.369   9.581  0.00  0.00    -0.350 N 
HETATM   26  C   UNK N   1      33.130  15.808   9.380  0.00  0.00     0.126 C 
HETATM   27  C   UNK N   1      34.659  17.624   8.923  0.00  0.00     0.126 C 
HETATM   28  C   UNK N   1      32.367  16.851   8.581  0.00  0.00     0.021 C 
HETATM   29  C   UNK N   1      33.373  17.927   8.179  0.00  0.00     0.021 C 
ENDBRANCH   5  23
TORSDOF 4
ENDMDL
MODEL 9
REMARK VINA RESULT:      -6.8     12.868     15.775
REMARK  4 active torsions:
REMARK  status: ('A' for Active; 'I' for Inactive)
REMARK    1  A    between atoms: C_1  and  C_3 
REMARK       I    between atoms: C_1  and  N_16 
REMARK    2  A    between atoms: C_4  and  C_3 
REMARK    3  A    between atoms: C_4  and  N_5 
REMARK    4  A    between atoms: C_18  and  C_21 
REMARK       I    between atoms: C_21  and  N_25 
ROOT
HETATM    1  C   UNK N   1      35.167  16.554  10.132  0.00  0.00     0.222 C 
HETATM    2  O   UNK N   1      35.790  17.549  10.474  0.00  0.00    -0.273 OA
HETATM    3  N   UNK N   1      34.661  16.479   8.868  0.00  0.00    -0.333 N 
HETATM    4  C   UNK N   1      34.622  17.625   8.007  0.00  0.00     0.205 C 
HETATM    5  C   UNK N   1      34.008  15.313   8.303  0.00  0.00     0.185 C 
HETATM    6  C   UNK N   1      33.447  15.845   6.982  0.00  0.00     0.115 C 
HETATM    7  C   UNK N   1      33.376  17.350   7.193  0.00  0.00     0.261 C 
HETATM    8  F   UNK N   1      32.251  17.662   7.940  0.00  0.00    -0.204 F 
HETATM    9  F   UNK N   1      33.367  18.045   6.001  0.00  0.00    -0.204 F 
ENDROOT
BRANCH   1  10
HETATM   10  C   UNK N   1      34.860  15.471  11.144  0.00  0.00     0.123 C 
BRANCH  10  11
HETATM   11  C   UNK N   1      36.031  15.035  12.045  0.00  0.00     0.145 C 
BRANCH  11  12
HETATM   12  N   UNK N   1      36.288  13.598  12.159  0.00  0.00    -0.279 N 
HETATM   13  C   UNK N   1      37.267  12.845  11.578  0.00  0.00     0.261 A 
HETATM   14  C   UNK N   1      37.055  11.436  11.905  0.00  0.00     0.048 A 
HETATM   15  O   UNK N   1      38.171  13.281  10.883  0.00  0.00    -0.267 OA
HETATM   16  C   UNK N   1      35.955  11.391  12.729  0.00  0.00     0.048 A 
HETATM   17  C   UNK N   1      37.721  10.280  11.508  0.00  0.00     0.018 A 
HETATM   18  C   UNK N   1      35.498  12.770  12.883  0.00  0.00     0.261 A 
HETATM   19  C   UNK N   1      35.456  10.188  13.222  0.00  0.00     0.018 A 
HETATM   20  O   UNK N   1      34.535  13.137  13.538  0.00  0.00    -0.267 OA
HETATM   21  C   UNK N   1      36.113   9.002  12.842  0.00  0.00     0.001 A 
HETATM   22  C   UNK N   1      37.237   9.048  11.986  0.00  0.00     0.001 A 
ENDBRANCH  11  12
ENDBRANCH  10  11
ENDBRANCH   1  10
BRANCH   5  23
HETATM   23  C   UNK N   1      35.020  14.203   8.027  0.00  0.00     0.243 C 
HETATM   24  O   UNK N   1      35.979  14.442   7.303  0.00  0.00    -0.271 OA
HETATM   25  N   UNK N   1      34.868  12.945   8.533  0.00  0.00    -0.350 N 
HETATM   26  C   UNK N   1      33.765  12.556   9.362  0.00  0.00     0.126 C 
HETATM   27  C   UNK N   1      35.793  11.892   8.224  0.00  0.00     0.126 C 
HETATM   28  C   UNK N   1      33.916  11.055   9.545  0.00  0.00     0.021 C 
HETATM   29  C   UNK N   1      35.265  10.667   8.945  0.00  0.00     0.021 C 
ENDBRANCH   5  23
TORSDOF 4
ENDMDL
