REMARK  9 active torsions:
REMARK  status: ('A' for Active; 'I' for Inactive)
REMARK    1  A    between atoms: C_1  and  N_2 
REMARK    2  A    between atoms: C_1  and  C_3 
REMARK    3  A    between atoms: C_1  and  C_11 
REMARK    4  A    between atoms: C_3  and  O_4 
REMARK    5  A    between atoms: C_3  and  C_5 
REMARK    6  A    between atoms: C_5  and  O_6 
REMARK    7  A    between atoms: C_5  and  C_7 
REMARK    8  A    between atoms: C_7  and  C_8 
REMARK    9  A    between atoms: C_11  and  C_12 
ROOT
HETATM    1  C   UNK N   1       0.374  -0.441   0.381  0.00  0.00     0.105 C 
ENDROOT
BRANCH   1   2
HETATM    2  N   UNK N   1       0.401  -1.580  -0.524  0.00  0.00    -0.424 N 
HETATM    3  H   UNK N   1      -0.281  -1.996  -1.158  0.00  0.00     0.150 HD
HETATM    4  H   UNK N   1       1.296  -2.069  -0.524  0.00  0.00     0.150 HD
ENDBRANCH   1   2
BRANCH   1   5
HETATM    5  C   UNK N   1      -0.664   0.615  -0.062  0.00  0.00     0.168 C 
BRANCH   5   6
HETATM    6  O   UNK N   1      -0.392   1.063  -1.362  0.00  0.00    -0.391 OA
HETATM    7  H   UNK N   1      -0.030   1.055  -2.261  0.00  0.00     0.210 HD
ENDBRANCH   5   6
BRANCH   5   8
HETATM    8  C   UNK N   1      -2.104   0.069   0.030  0.00  0.00     0.149 C 
BRANCH   8   9
HETATM    9  O   UNK N   1      -2.289  -0.990  -0.861  0.00  0.00    -0.393 OA
HETATM   10  H   UNK N   1      -2.990  -1.247  -1.480  0.00  0.00     0.210 HD
ENDBRANCH   8   9
BRANCH   8  11
HETATM   11  C   UNK N   1      -3.127   1.171  -0.260  0.00  0.00     0.038 C 
BRANCH  11  12
HETATM   12  C   UNK N   1      -4.535   0.810   0.214  0.00  0.00    -0.020 C 
HETATM   13  C   UNK N   1      -5.441   2.013   0.062  0.00  0.00     0.009 C 
HETATM   14  C   UNK N   1      -5.122  -0.352  -0.567  0.00  0.00     0.009 C 
ENDBRANCH  11  12
ENDBRANCH   8  11
ENDBRANCH   5   8
ENDBRANCH   1   5
BRANCH   1  15
HETATM   15  C   UNK N   1       1.781   0.144   0.567  0.00  0.00     0.031 C 
BRANCH  15  16
HETATM   16  C   UNK N   1       2.533   0.538  -0.708  0.00  0.00    -0.013 C 
HETATM   17  C   UNK N   1       3.723   1.436  -0.346  0.00  0.00     0.005 C 
HETATM   18  C   UNK N   1       4.971   0.680   0.146  0.00  0.00     0.000 C 
HETATM   19  C   UNK N   1       4.690  -0.783   0.483  0.00  0.00     0.000 C 
HETATM   20  C   UNK N   1       4.083  -1.516  -0.717  0.00  0.00     0.000 C 
HETATM   21  C   UNK N   1       3.033  -0.689  -1.482  0.00  0.00     0.005 C 
ENDBRANCH  15  16
ENDBRANCH   1  15
TORSDOF 9
