MODEL 1
REMARK VINA RESULT:      -5.5      0.000      0.000
REMARK  9 active torsions:
REMARK  status: ('A' for Active; 'I' for Inactive)
REMARK    1  A    between atoms: C_1  and  N_2 
REMARK    2  A    between atoms: C_1  and  C_3 
REMARK    3  A    between atoms: C_1  and  C_11 
REMARK    4  A    between atoms: C_3  and  O_4 
REMARK    5  A    between atoms: C_3  and  C_5 
REMARK    6  A    between atoms: C_5  and  O_6 
REMARK    7  A    between atoms: C_5  and  C_7 
REMARK    8  A    between atoms: C_7  and  C_8 
REMARK    9  A    between atoms: C_11  and  C_12 
ROOT
HETATM    1  C   UNK N   1      29.638  18.439   9.344  0.00  0.00     0.105 C 
ENDROOT
BRANCH   1   2
HETATM    2  N   UNK N   1      29.651  17.787  10.645  0.00  0.00    -0.424 N 
HETATM    3  H   UNK N   1      30.205  17.912  11.493  0.00  0.00     0.150 HD
HETATM    4  H   UNK N   1      28.957  17.045  10.728  0.00  0.00     0.150 HD
ENDBRANCH   1   2
BRANCH   1   5
HETATM    5  C   UNK N   1      28.444  17.967   8.483  0.00  0.00     0.168 C 
BRANCH   5   6
HETATM    6  O   UNK N   1      27.357  17.611   9.293  0.00  0.00    -0.391 OA
HETATM    7  H   UNK N   1      26.485  17.261   9.529  0.00  0.00     0.210 HD
ENDBRANCH   5   6
BRANCH   5   8
HETATM    8  C   UNK N   1      28.025  19.040   7.458  0.00  0.00     0.149 C 
BRANCH   8   9
HETATM    9  O   UNK N   1      27.027  19.864   7.984  0.00  0.00    -0.393 OA
HETATM   10  H   UNK N   1      26.853  20.818   7.974  0.00  0.00     0.210 HD
ENDBRANCH   8   9
BRANCH   8  11
HETATM   11  C   UNK N   1      27.528  18.395   6.161  0.00  0.00     0.038 C 
BRANCH  11  12
HETATM   12  C   UNK N   1      28.336  18.829   4.938  0.00  0.00    -0.020 C 
HETATM   13  C   UNK N   1      28.644  17.618   4.083  0.00  0.00     0.009 C 
HETATM   14  C   UNK N   1      27.595  19.852   4.096  0.00  0.00     0.009 C 
ENDBRANCH  11  12
ENDBRANCH   8  11
ENDBRANCH   5   8
ENDBRANCH   1   5
BRANCH   1  15
HETATM   15  C   UNK N   1      30.989  18.275   8.636  0.00  0.00     0.031 C 
BRANCH  15  16
HETATM   16  C   UNK N   1      31.260  16.916   7.983  0.00  0.00    -0.013 C 
HETATM   17  C   UNK N   1      31.640  17.119   6.511  0.00  0.00     0.005 C 
HETATM   18  C   UNK N   1      33.109  17.515   6.275  0.00  0.00     0.000 C 
HETATM   19  C   UNK N   1      33.827  17.939   7.555  0.00  0.00     0.000 C 
HETATM   20  C   UNK N   1      33.753  16.838   8.617  0.00  0.00     0.000 C 
HETATM   21  C   UNK N   1      32.379  16.148   8.700  0.00  0.00     0.005 C 
ENDBRANCH  15  16
ENDBRANCH   1  15
TORSDOF 9
ENDMDL
MODEL 2
REMARK VINA RESULT:      -5.4      6.597      8.913
REMARK  9 active torsions:
REMARK  status: ('A' for Active; 'I' for Inactive)
REMARK    1  A    between atoms: C_1  and  N_2 
REMARK    2  A    between atoms: C_1  and  C_3 
REMARK    3  A    between atoms: C_1  and  C_11 
REMARK    4  A    between atoms: C_3  and  O_4 
REMARK    5  A    between atoms: C_3  and  C_5 
REMARK    6  A    between atoms: C_5  and  O_6 
REMARK    7  A    between atoms: C_5  and  C_7 
REMARK    8  A    between atoms: C_7  and  C_8 
REMARK    9  A    between atoms: C_11  and  C_12 
ROOT
HETATM    1  C   UNK N   1      36.040  14.043  12.023  0.00  0.00     0.105 C 
ENDROOT
BRANCH   1   2
HETATM    2  N   UNK N   1      37.405  13.619  11.752  0.00  0.00    -0.424 N 
HETATM    3  H   UNK N   1      38.313  13.858  12.151  0.00  0.00     0.150 HD
HETATM    4  H   UNK N   1      37.469  12.934  10.999  0.00  0.00     0.150 HD
ENDBRANCH   1   2
BRANCH   1   5
HETATM    5  C   UNK N   1      35.813  15.520  11.627  0.00  0.00     0.168 C 
BRANCH   5   6
HETATM    6  O   UNK N   1      36.960  16.054  11.024  0.00  0.00    -0.391 OA
HETATM    7  H   UNK N   1      37.687  16.142  10.390  0.00  0.00     0.210 HD
ENDBRANCH   5   6
BRANCH   5   8
HETATM    8  C   UNK N   1      34.592  15.676  10.696  0.00  0.00     0.149 C 
BRANCH   8   9
HETATM    9  O   UNK N   1      33.487  14.995  11.211  0.00  0.00    -0.393 OA
HETATM   10  H   UNK N   1      32.873  14.329  10.865  0.00  0.00     0.210 HD
ENDBRANCH   8   9
BRANCH   8  11
HETATM   11  C   UNK N   1      34.907  15.158   9.289  0.00  0.00     0.038 C 
BRANCH  11  12
HETATM   12  C   UNK N   1      34.481  16.133   8.191  0.00  0.00    -0.020 C 
HETATM   13  C   UNK N   1      33.117  15.738   7.669  0.00  0.00     0.009 C 
HETATM   14  C   UNK N   1      34.423  17.566   8.689  0.00  0.00     0.009 C 
ENDBRANCH  11  12
ENDBRANCH   8  11
ENDBRANCH   5   8
ENDBRANCH   1   5
BRANCH   1  15
HETATM   15  C   UNK N   1      35.654  13.748  13.479  0.00  0.00     0.031 C 
BRANCH  15  16
HETATM   16  C   UNK N   1      36.778  13.267  14.402  0.00  0.00    -0.013 C 
HETATM   17  C   UNK N   1      36.861  14.182  15.631  0.00  0.00     0.005 C 
HETATM   18  C   UNK N   1      35.834  13.869  16.734  0.00  0.00     0.000 C 
HETATM   19  C   UNK N   1      34.727  12.924  16.270  0.00  0.00     0.000 C 
HETATM   20  C   UNK N   1      35.312  11.618  15.726  0.00  0.00     0.000 C 
HETATM   21  C   UNK N   1      36.567  11.816  14.855  0.00  0.00     0.005 C 
ENDBRANCH  15  16
ENDBRANCH   1  15
TORSDOF 9
ENDMDL
MODEL 3
REMARK VINA RESULT:      -5.3      6.077      8.341
REMARK  9 active torsions:
REMARK  status: ('A' for Active; 'I' for Inactive)
REMARK    1  A    between atoms: C_1  and  N_2 
REMARK    2  A    between atoms: C_1  and  C_3 
REMARK    3  A    between atoms: C_1  and  C_11 
REMARK    4  A    between atoms: C_3  and  O_4 
REMARK    5  A    between atoms: C_3  and  C_5 
REMARK    6  A    between atoms: C_5  and  O_6 
REMARK    7  A    between atoms: C_5  and  C_7 
REMARK    8  A    between atoms: C_7  and  C_8 
REMARK    9  A    between atoms: C_11  and  C_12 
ROOT
HETATM    1  C   UNK N   1      35.680  14.006  11.857  0.00  0.00     0.105 C 
ENDROOT
BRANCH   1   2
HETATM    2  N   UNK N   1      36.427  15.030  12.571  0.00  0.00    -0.424 N 
HETATM    3  H   UNK N   1      37.405  15.319  12.574  0.00  0.00     0.150 HD
HETATM    4  H   UNK N   1      35.847  15.577  13.207  0.00  0.00     0.150 HD
ENDBRANCH   1   2
BRANCH   1   5
HETATM    5  C   UNK N   1      34.735  14.621  10.800  0.00  0.00     0.168 C 
BRANCH   5   6
HETATM    6  O   UNK N   1      33.466  14.857  11.347  0.00  0.00    -0.391 OA
HETATM    7  H   UNK N   1      32.500  14.915  11.390  0.00  0.00     0.210 HD
ENDBRANCH   5   6
BRANCH   5   8
HETATM    8  C   UNK N   1      35.317  15.921  10.207  0.00  0.00     0.149 C 
BRANCH   8   9
HETATM    9  O   UNK N   1      35.045  17.009  11.038  0.00  0.00    -0.393 OA
HETATM   10  H   UNK N   1      34.452  17.775  10.989  0.00  0.00     0.210 HD
ENDBRANCH   8   9
BRANCH   8  11
HETATM   11  C   UNK N   1      34.751  16.186   8.809  0.00  0.00     0.038 C 
BRANCH  11  12
HETATM   12  C   UNK N   1      33.632  17.228   8.813  0.00  0.00    -0.020 C 
HETATM   13  C   UNK N   1      33.999  18.364   7.882  0.00  0.00     0.009 C 
HETATM   14  C   UNK N   1      32.302  16.642   8.375  0.00  0.00     0.009 C 
ENDBRANCH  11  12
ENDBRANCH   8  11
ENDBRANCH   5   8
ENDBRANCH   1   5
BRANCH   1  15
HETATM   15  C   UNK N   1      34.955  13.073  12.838  0.00  0.00     0.031 C 
BRANCH  15  16
HETATM   16  C   UNK N   1      35.478  11.636  12.930  0.00  0.00    -0.013 C 
HETATM   17  C   UNK N   1      36.560  11.552  14.015  0.00  0.00     0.005 C 
HETATM   18  C   UNK N   1      36.020  11.439  15.452  0.00  0.00     0.000 C 
HETATM   19  C   UNK N   1      34.528  11.751  15.557  0.00  0.00     0.000 C 
HETATM   20  C   UNK N   1      33.712  10.848  14.628  0.00  0.00     0.000 C 
HETATM   21  C   UNK N   1      34.357  10.637  13.245  0.00  0.00     0.005 C 
ENDBRANCH  15  16
ENDBRANCH   1  15
TORSDOF 9
ENDMDL
MODEL 4
REMARK VINA RESULT:      -5.2      1.594      5.368
REMARK  9 active torsions:
REMARK  status: ('A' for Active; 'I' for Inactive)
REMARK    1  A    between atoms: C_1  and  N_2 
REMARK    2  A    between atoms: C_1  and  C_3 
REMARK    3  A    between atoms: C_1  and  C_11 
REMARK    4  A    between atoms: C_3  and  O_4 
REMARK    5  A    between atoms: C_3  and  C_5 
REMARK    6  A    between atoms: C_5  and  O_6 
REMARK    7  A    between atoms: C_5  and  C_7 
REMARK    8  A    between atoms: C_7  and  C_8 
REMARK    9  A    between atoms: C_11  and  C_12 
ROOT
HETATM    1  C   UNK N   1      28.030  17.764   7.145  0.00  0.00     0.105 C 
ENDROOT
BRANCH   1   2
HETATM    2  N   UNK N   1      27.034  16.708   7.256  0.00  0.00    -0.424 N 
HETATM    3  H   UNK N   1      26.890  15.819   6.779  0.00  0.00     0.150 HD
HETATM    4  H   UNK N   1      26.326  16.900   7.965  0.00  0.00     0.150 HD
ENDBRANCH   1   2
BRANCH   1   5
HETATM    5  C   UNK N   1      28.508  18.245   8.534  0.00  0.00     0.168 C 
BRANCH   5   6
HETATM    6  O   UNK N   1      27.463  18.186   9.466  0.00  0.00    -0.391 OA
HETATM    7  H   UNK N   1      27.027  18.149  10.331  0.00  0.00     0.210 HD
ENDBRANCH   5   6
BRANCH   5   8
HETATM    8  C   UNK N   1      29.720  17.430   9.031  0.00  0.00     0.149 C 
BRANCH   8   9
HETATM    9  O   UNK N   1      29.641  17.216  10.409  0.00  0.00    -0.393 OA
HETATM   10  H   UNK N   1      29.796  16.457  10.992  0.00  0.00     0.210 HD
ENDBRANCH   8   9
BRANCH   8  11
HETATM   11  C   UNK N   1      31.033  18.142   8.695  0.00  0.00     0.038 C 
BRANCH  11  12
HETATM   12  C   UNK N   1      31.979  17.276   7.862  0.00  0.00    -0.020 C 
HETATM   13  C   UNK N   1      32.102  15.909   8.501  0.00  0.00     0.009 C 
HETATM   14  C   UNK N   1      31.496  17.111   6.433  0.00  0.00     0.009 C 
ENDBRANCH  11  12
ENDBRANCH   8  11
ENDBRANCH   5   8
ENDBRANCH   1   5
BRANCH   1  15
HETATM   15  C   UNK N   1      27.519  18.908   6.259  0.00  0.00     0.031 C 
BRANCH  15  16
HETATM   16  C   UNK N   1      28.208  19.083   4.902  0.00  0.00    -0.013 C 
HETATM   17  C   UNK N   1      28.452  17.708   4.268  0.00  0.00     0.005 C 
HETATM   18  C   UNK N   1      27.228  17.102   3.558  0.00  0.00     0.000 C 
HETATM   19  C   UNK N   1      25.925  17.828   3.888  0.00  0.00     0.000 C 
HETATM   20  C   UNK N   1      26.029  19.319   3.554  0.00  0.00     0.000 C 
HETATM   21  C   UNK N   1      27.379  19.949   3.945  0.00  0.00     0.005 C 
ENDBRANCH  15  16
ENDBRANCH   1  15
TORSDOF 9
ENDMDL
MODEL 5
REMARK VINA RESULT:      -5.1      6.733      9.053
REMARK  9 active torsions:
REMARK  status: ('A' for Active; 'I' for Inactive)
REMARK    1  A    between atoms: C_1  and  N_2 
REMARK    2  A    between atoms: C_1  and  C_3 
REMARK    3  A    between atoms: C_1  and  C_11 
REMARK    4  A    between atoms: C_3  and  O_4 
REMARK    5  A    between atoms: C_3  and  C_5 
REMARK    6  A    between atoms: C_5  and  O_6 
REMARK    7  A    between atoms: C_5  and  C_7 
REMARK    8  A    between atoms: C_7  and  C_8 
REMARK    9  A    between atoms: C_11  and  C_12 
ROOT
HETATM    1  C   UNK N   1      36.399  13.927  12.413  0.00  0.00     0.105 C 
ENDROOT
BRANCH   1   2
HETATM    2  N   UNK N   1      36.399  15.005  13.390  0.00  0.00    -0.424 N 
HETATM    3  H   UNK N   1      36.614  16.001  13.345  0.00  0.00     0.150 HD
HETATM    4  H   UNK N   1      36.126  14.698  14.324  0.00  0.00     0.150 HD
ENDBRANCH   1   2
BRANCH   1   5
HETATM    5  C   UNK N   1      35.429  14.217  11.245  0.00  0.00     0.168 C 
BRANCH   5   6
HETATM    6  O   UNK N   1      34.152  14.532  11.727  0.00  0.00    -0.391 OA
HETATM    7  H   UNK N   1      33.475  14.955  12.277  0.00  0.00     0.210 HD
ENDBRANCH   5   6
BRANCH   5   8
HETATM    8  C   UNK N   1      35.956  15.346  10.336  0.00  0.00     0.149 C 
BRANCH   8   9
HETATM    9  O   UNK N   1      37.162  15.853  10.826  0.00  0.00    -0.393 OA
HETATM   10  H   UNK N   1      38.062  15.504  10.919  0.00  0.00     0.210 HD
ENDBRANCH   8   9
BRANCH   8  11
HETATM   11  C   UNK N   1      34.931  16.478  10.218  0.00  0.00     0.038 C 
BRANCH  11  12
HETATM   12  C   UNK N   1      34.406  16.653   8.793  0.00  0.00    -0.020 C 
HETATM   13  C   UNK N   1      32.971  16.176   8.724  0.00  0.00     0.009 C 
HETATM   14  C   UNK N   1      34.468  18.099   8.333  0.00  0.00     0.009 C 
ENDBRANCH  11  12
ENDBRANCH   8  11
ENDBRANCH   5   8
ENDBRANCH   1   5
BRANCH   1  15
HETATM   15  C   UNK N   1      36.135  12.575  13.089  0.00  0.00     0.031 C 
BRANCH  15  16
HETATM   16  C   UNK N   1      35.613  12.619  14.528  0.00  0.00    -0.013 C 
HETATM   17  C   UNK N   1      34.237  11.945  14.596  0.00  0.00     0.005 C 
HETATM   18  C   UNK N   1      34.278  10.407  14.668  0.00  0.00     0.000 C 
HETATM   19  C   UNK N   1      35.654   9.830  14.339  0.00  0.00     0.000 C 
HETATM   20  C   UNK N   1      36.730  10.418  15.257  0.00  0.00     0.000 C 
HETATM   21  C   UNK N   1      36.571  11.929  15.508  0.00  0.00     0.005 C 
ENDBRANCH  15  16
ENDBRANCH   1  15
TORSDOF 9
ENDMDL
MODEL 6
REMARK VINA RESULT:      -5.1      4.921      8.297
REMARK  9 active torsions:
REMARK  status: ('A' for Active; 'I' for Inactive)
REMARK    1  A    between atoms: C_1  and  N_2 
REMARK    2  A    between atoms: C_1  and  C_3 
REMARK    3  A    between atoms: C_1  and  C_11 
REMARK    4  A    between atoms: C_3  and  O_4 
REMARK    5  A    between atoms: C_3  and  C_5 
REMARK    6  A    between atoms: C_5  and  O_6 
REMARK    7  A    between atoms: C_5  and  C_7 
REMARK    8  A    between atoms: C_7  and  C_8 
REMARK    9  A    between atoms: C_11  and  C_12 
ROOT
HETATM    1  C   UNK N   1      34.766  16.019   9.900  0.00  0.00     0.105 C 
ENDROOT
BRANCH   1   2
HETATM    2  N   UNK N   1      35.072  17.253  10.608  0.00  0.00    -0.424 N 
HETATM    3  H   UNK N   1      35.851  17.910  10.580  0.00  0.00     0.150 HD
HETATM    4  H   UNK N   1      34.350  17.519  11.277  0.00  0.00     0.150 HD
ENDBRANCH   1   2
BRANCH   1   5
HETATM    5  C   UNK N   1      35.823  14.926  10.178  0.00  0.00     0.168 C 
BRANCH   5   6
HETATM    6  O   UNK N   1      37.058  15.502  10.506  0.00  0.00    -0.391 OA
HETATM    7  H   UNK N   1      37.735  16.188  10.603  0.00  0.00     0.210 HD
ENDBRANCH   5   6
BRANCH   5   8
HETATM    8  C   UNK N   1      35.364  13.963  11.292  0.00  0.00     0.149 C 
BRANCH   8   9
HETATM    9  O   UNK N   1      34.135  14.365  11.818  0.00  0.00    -0.393 OA
HETATM   10  H   UNK N   1      33.322  14.741  11.445  0.00  0.00     0.210 HD
ENDBRANCH   8   9
BRANCH   8  11
HETATM   11  C   UNK N   1      36.404  13.886  12.413  0.00  0.00     0.038 C 
BRANCH  11  12
HETATM   12  C   UNK N   1      35.779  13.623  13.783  0.00  0.00    -0.020 C 
HETATM   13  C   UNK N   1      35.574  12.135  13.965  0.00  0.00     0.009 C 
HETATM   14  C   UNK N   1      36.643  14.145  14.917  0.00  0.00     0.009 C 
ENDBRANCH  11  12
ENDBRANCH   8  11
ENDBRANCH   5   8
ENDBRANCH   1   5
BRANCH   1  15
HETATM   15  C   UNK N   1      34.558  16.284   8.403  0.00  0.00     0.031 C 
BRANCH  15  16
HETATM   16  C   UNK N   1      33.790  17.557   8.033  0.00  0.00    -0.013 C 
HETATM   17  C   UNK N   1      33.806  17.743   6.510  0.00  0.00     0.005 C 
HETATM   18  C   UNK N   1      32.763  16.902   5.750  0.00  0.00     0.000 C 
HETATM   19  C   UNK N   1      32.129  15.813   6.612  0.00  0.00     0.000 C 
HETATM   20  C   UNK N   1      31.491  16.411   7.870  0.00  0.00     0.000 C 
HETATM   21  C   UNK N   1      32.338  17.516   8.529  0.00  0.00     0.005 C 
ENDBRANCH  15  16
ENDBRANCH   1  15
TORSDOF 9
ENDMDL
MODEL 7
REMARK VINA RESULT:      -5.0      9.423     11.366
REMARK  9 active torsions:
REMARK  status: ('A' for Active; 'I' for Inactive)
REMARK    1  A    between atoms: C_1  and  N_2 
REMARK    2  A    between atoms: C_1  and  C_3 
REMARK    3  A    between atoms: C_1  and  C_11 
REMARK    4  A    between atoms: C_3  and  O_4 
REMARK    5  A    between atoms: C_3  and  C_5 
REMARK    6  A    between atoms: C_5  and  O_6 
REMARK    7  A    between atoms: C_5  and  C_7 
REMARK    8  A    between atoms: C_7  and  C_8 
REMARK    9  A    between atoms: C_11  and  C_12 
ROOT
HETATM    1  C   UNK N   1      37.111  13.801  14.708  0.00  0.00     0.105 C 
ENDROOT
BRANCH   1   2
HETATM    2  N   UNK N   1      37.273  14.988  15.535  0.00  0.00    -0.424 N 
HETATM    3  H   UNK N   1      36.984  15.961  15.439  0.00  0.00     0.150 HD
HETATM    4  H   UNK N   1      37.787  14.807  16.397  0.00  0.00     0.150 HD
ENDBRANCH   1   2
BRANCH   1   5
HETATM    5  C   UNK N   1      36.259  14.093  13.452  0.00  0.00     0.168 C 
BRANCH   5   6
HETATM    6  O   UNK N   1      36.444  15.415  13.024  0.00  0.00    -0.391 OA
HETATM    7  H   UNK N   1      36.373  16.382  13.026  0.00  0.00     0.210 HD
ENDBRANCH   5   6
BRANCH   5   8
HETATM    8  C   UNK N   1      36.577  13.107  12.309  0.00  0.00     0.149 C 
BRANCH   8   9
HETATM    9  O   UNK N   1      37.272  13.748  11.282  0.00  0.00    -0.393 OA
HETATM   10  H   UNK N   1      38.209  13.853  11.054  0.00  0.00     0.210 HD
ENDBRANCH   8   9
BRANCH   8  11
HETATM   11  C   UNK N   1      35.294  12.483  11.752  0.00  0.00     0.038 C 
BRANCH  11  12
HETATM   12  C   UNK N   1      35.380  10.962  11.632  0.00  0.00    -0.020 C 
HETATM   13  C   UNK N   1      36.478  10.447  12.538  0.00  0.00     0.009 C 
HETATM   14  C   UNK N   1      34.074  10.283  12.004  0.00  0.00     0.009 C 
ENDBRANCH  11  12
ENDBRANCH   8  11
ENDBRANCH   5   8
ENDBRANCH   1   5
BRANCH   1  15
HETATM   15  C   UNK N   1      36.573  12.626  15.536  0.00  0.00     0.031 C 
BRANCH  15  16
HETATM   16  C   UNK N   1      35.117  12.726  16.002  0.00  0.00    -0.013 C 
HETATM   17  C   UNK N   1      34.299  11.587  15.378  0.00  0.00     0.005 C 
HETATM   18  C   UNK N   1      34.428  10.234  16.102  0.00  0.00     0.000 C 
HETATM   19  C   UNK N   1      35.582  10.199  17.103  0.00  0.00     0.000 C 
HETATM   20  C   UNK N   1      35.449  11.324  18.133  0.00  0.00     0.000 C 
HETATM   21  C   UNK N   1      34.997  12.667  17.530  0.00  0.00     0.005 C 
ENDBRANCH  15  16
ENDBRANCH   1  15
TORSDOF 9
ENDMDL
MODEL 8
REMARK VINA RESULT:      -5.0      5.571      8.892
REMARK  9 active torsions:
REMARK  status: ('A' for Active; 'I' for Inactive)
REMARK    1  A    between atoms: C_1  and  N_2 
REMARK    2  A    between atoms: C_1  and  C_3 
REMARK    3  A    between atoms: C_1  and  C_11 
REMARK    4  A    between atoms: C_3  and  O_4 
REMARK    5  A    between atoms: C_3  and  C_5 
REMARK    6  A    between atoms: C_5  and  O_6 
REMARK    7  A    between atoms: C_5  and  C_7 
REMARK    8  A    between atoms: C_7  and  C_8 
REMARK    9  A    between atoms: C_11  and  C_12 
ROOT
HETATM    1  C   UNK N   1      35.701  14.902  10.204  0.00  0.00     0.105 C 
ENDROOT
BRANCH   1   2
HETATM    2  N   UNK N   1      35.556  13.572   9.633  0.00  0.00    -0.424 N 
HETATM    3  H   UNK N   1      35.059  13.199   8.824  0.00  0.00     0.150 HD
HETATM    4  H   UNK N   1      36.060  12.856  10.156  0.00  0.00     0.150 HD
ENDBRANCH   1   2
BRANCH   1   5
HETATM    5  C   UNK N   1      35.185  14.958  11.659  0.00  0.00     0.168 C 
BRANCH   5   6
HETATM    6  O   UNK N   1      33.956  14.295  11.776  0.00  0.00    -0.391 OA
HETATM    7  H   UNK N   1      33.039  14.054  11.574  0.00  0.00     0.210 HD
ENDBRANCH   5   6
BRANCH   5   8
HETATM    8  C   UNK N   1      36.211  14.369  12.649  0.00  0.00     0.149 C 
BRANCH   8   9
HETATM    9  O   UNK N   1      37.282  13.791  11.964  0.00  0.00    -0.393 OA
HETATM   10  H   UNK N   1      38.175  13.503  12.211  0.00  0.00     0.210 HD
ENDBRANCH   8   9
BRANCH   8  11
HETATM   11  C   UNK N   1      35.558  13.324  13.558  0.00  0.00     0.038 C 
BRANCH  11  12
HETATM   12  C   UNK N   1      36.181  13.283  14.954  0.00  0.00    -0.020 C 
HETATM   13  C   UNK N   1      36.895  14.590  15.225  0.00  0.00     0.009 C 
HETATM   14  C   UNK N   1      35.143  13.054  16.038  0.00  0.00     0.009 C 
ENDBRANCH  11  12
ENDBRANCH   8  11
ENDBRANCH   5   8
ENDBRANCH   1   5
BRANCH   1  15
HETATM   15  C   UNK N   1      35.054  15.960   9.298  0.00  0.00     0.031 C 
BRANCH  15  16
HETATM   16  C   UNK N   1      33.995  15.460   8.310  0.00  0.00    -0.013 C 
HETATM   17  C   UNK N   1      32.599  15.845   8.816  0.00  0.00     0.005 C 
HETATM   18  C   UNK N   1      32.184  17.296   8.513  0.00  0.00     0.000 C 
HETATM   19  C   UNK N   1      33.351  18.169   8.054  0.00  0.00     0.000 C 
HETATM   20  C   UNK N   1      34.040  17.563   6.828  0.00  0.00     0.000 C 
HETATM   21  C   UNK N   1      34.207  16.034   6.903  0.00  0.00     0.005 C 
ENDBRANCH  15  16
ENDBRANCH   1  15
TORSDOF 9
ENDMDL
MODEL 9
REMARK VINA RESULT:      -5.0     11.505     14.470
REMARK  9 active torsions:
REMARK  status: ('A' for Active; 'I' for Inactive)
REMARK    1  A    between atoms: C_1  and  N_2 
REMARK    2  A    between atoms: C_1  and  C_3 
REMARK    3  A    between atoms: C_1  and  C_11 
REMARK    4  A    between atoms: C_3  and  O_4 
REMARK    5  A    between atoms: C_3  and  C_5 
REMARK    6  A    between atoms: C_5  and  O_6 
REMARK    7  A    between atoms: C_5  and  C_7 
REMARK    8  A    between atoms: C_7  and  C_8 
REMARK    9  A    between atoms: C_11  and  C_12 
ROOT
HETATM    1  C   UNK N   1      28.152  24.170  -3.780  0.00  0.00     0.105 C 
ENDROOT
BRANCH   1   2
HETATM    2  N   UNK N   1      27.405  23.751  -2.604  0.00  0.00    -0.424 N 
HETATM    3  H   UNK N   1      26.601  24.131  -2.104  0.00  0.00     0.150 HD
HETATM    4  H   UNK N   1      27.764  22.892  -2.187  0.00  0.00     0.150 HD
ENDBRANCH   1   2
BRANCH   1   5
HETATM    5  C   UNK N   1      29.671  23.945  -3.602  0.00  0.00     0.168 C 
BRANCH   5   6
HETATM    6  O   UNK N   1      30.286  25.096  -3.092  0.00  0.00    -0.391 OA
HETATM    7  H   UNK N   1      30.629  26.002  -3.074  0.00  0.00     0.210 HD
ENDBRANCH   5   6
BRANCH   5   8
HETATM    8  C   UNK N   1      29.962  22.731  -2.695  0.00  0.00     0.149 C 
BRANCH   8   9
HETATM    9  O   UNK N   1      30.306  23.147  -1.407  0.00  0.00    -0.393 OA
HETATM   10  H   UNK N   1      30.832  23.876  -1.043  0.00  0.00     0.210 HD
ENDBRANCH   8   9
BRANCH   8  11
HETATM   11  C   UNK N   1      31.088  21.871  -3.276  0.00  0.00     0.038 C 
BRANCH  11  12
HETATM   12  C   UNK N   1      31.219  22.015  -4.792  0.00  0.00    -0.020 C 
HETATM   13  C   UNK N   1      32.675  22.216  -5.155  0.00  0.00     0.009 C 
HETATM   14  C   UNK N   1      30.690  20.798  -5.531  0.00  0.00     0.009 C 
ENDBRANCH  11  12
ENDBRANCH   8  11
ENDBRANCH   5   8
ENDBRANCH   1   5
BRANCH   1  15
HETATM   15  C   UNK N   1      27.802  25.614  -4.166  0.00  0.00     0.031 C 
BRANCH  15  16
HETATM   16  C   UNK N   1      26.337  26.030  -4.002  0.00  0.00    -0.013 C 
HETATM   17  C   UNK N   1      26.269  27.470  -3.477  0.00  0.00     0.005 C 
HETATM   18  C   UNK N   1      26.448  28.556  -4.555  0.00  0.00     0.000 C 
HETATM   19  C   UNK N   1      26.974  28.004  -5.878  0.00  0.00     0.000 C 
HETATM   20  C   UNK N   1      26.063  26.894  -6.411  0.00  0.00     0.000 C 
HETATM   21  C   UNK N   1      25.561  25.928  -5.322  0.00  0.00     0.005 C 
ENDBRANCH  15  16
ENDBRANCH   1  15
TORSDOF 9
ENDMDL
