REMARK  6 active torsions:
REMARK  status: ('A' for Active; 'I' for Inactive)
REMARK       I    between atoms: N_1  and  C_2 
REMARK    1  A    between atoms: C_8  and  C_11 
REMARK    2  A    between atoms: C_9  and  N_10 
REMARK    3  A    between atoms: C_11  and  C_12 
REMARK    4  A    between atoms: C_16  and  C_17 
REMARK    5  A    between atoms: C_22  and  O_23 
REMARK    6  A    between atoms: C_25  and  O_27 
ROOT
HETATM    1  C   UNK N   1      -0.428   0.397  -0.132  0.00  0.00    -0.038 A 
HETATM    2  C   UNK N   1       0.810  -0.267  -0.138  0.00  0.00     0.007 A 
HETATM    3  C   UNK N   1       2.095   0.469  -0.253  0.00  0.00     0.013 C 
HETATM    4  C   UNK N   1       3.247  -0.193  -0.066  0.00  0.00     0.007 C 
HETATM    5  C   UNK N   1       3.183  -1.600   0.483  0.00  0.00     0.156 C 
HETATM    6  O   UNK N   1       2.084  -2.283  -0.030  0.00  0.00    -0.338 OA
HETATM    7  C   UNK N   1       0.866  -1.676  -0.066  0.00  0.00     0.116 A 
HETATM    8  C   UNK N   1      -0.309  -2.440  -0.018  0.00  0.00     0.136 A 
HETATM    9  C   UNK N   1      -1.563  -1.773  -0.010  0.00  0.00     0.104 A 
HETATM   10  C   UNK N   1      -1.596  -0.369  -0.060  0.00  0.00     0.048 A 
ENDROOT
BRANCH   1  11
HETATM   11  C   UNK N   1      -0.459   1.914  -0.175  0.00  0.00     0.083 C 
BRANCH  11  12
HETATM   12  C   UNK N   1      -1.763   2.689  -0.105  0.00  0.00     0.006 A 
HETATM   13  C   UNK N   1      -3.017   2.070  -0.090  0.00  0.00     0.117 A 
HETATM   14  N   UNK N   1      -4.152   2.814  -0.029  0.00  0.00    -0.202 N 
HETATM   15  C   UNK N   1      -4.092   4.168   0.017  0.00  0.00     0.677 A 
ATOM     16  HN  UNK N   1      -5.060   2.349  -0.019  1.00  0.00     0.183 HD
HETATM   17  N   UNK N   1      -5.281   4.923   0.076  0.00  0.00    -0.234 N 
HETATM   18  N   UNK N   1      -2.890   4.798   0.007  0.00  0.00    -0.177 N 
HETATM   19  H   UNK N   1      -5.239   5.905   0.116  0.00  0.00     0.174 HD
HETATM   20  H   UNK N   1      -6.153   4.467   0.076  0.00  0.00     0.174 HD
HETATM   21  C   UNK N   1      -1.729   4.091  -0.053  0.00  0.00     0.122 A 
ATOM     22  HN  UNK N   1      -2.857   5.817   0.044  1.00  0.00     0.185 HD
BRANCH  21  23
HETATM   23  N   UNK N   1      -0.498   4.781  -0.060  0.00  0.00    -0.385 N 
HETATM   24  H   UNK N   1       0.348   4.278  -0.064  0.00  0.00     0.157 HD
HETATM   25  H   UNK N   1      -0.486   5.766  -0.060  0.00  0.00     0.157 HD
ENDBRANCH  21  23
ENDBRANCH  11  12
ENDBRANCH   1  11
BRANCH   9  26
HETATM   26  O   UNK N   1      -2.720  -2.478   0.060  0.00  0.00    -0.353 OA
HETATM   27  C   UNK N   1      -3.967  -1.892   0.102  0.00  0.00     0.210 C 
ENDBRANCH   9  26
BRANCH   8  28
HETATM   28  O   UNK N   1      -0.185  -3.795   0.035  0.00  0.00    -0.351 OA
HETATM   29  C   UNK N   1      -1.223  -4.697   0.072  0.00  0.00     0.210 C 
ENDBRANCH   8  28
BRANCH   5  30
HETATM   30  C   UNK N   1       4.511  -2.381   0.415  0.00  0.00     0.019 A 
HETATM   31  C   UNK N   1       5.207  -2.229  -0.931  0.00  0.00     0.008 A 
HETATM   32  C   UNK N   1       4.471  -3.502  -0.618  0.00  0.00     0.008 A 
ENDBRANCH   5  30
TORSDOF 6
