MODEL 1
REMARK VINA RESULT:      -6.7      0.000      0.000
REMARK  6 active torsions:
REMARK  status: ('A' for Active; 'I' for Inactive)
REMARK       I    between atoms: N_1  and  C_2 
REMARK    1  A    between atoms: C_8  and  C_11 
REMARK    2  A    between atoms: C_9  and  N_10 
REMARK    3  A    between atoms: C_11  and  C_12 
REMARK    4  A    between atoms: C_16  and  C_17 
REMARK    5  A    between atoms: C_22  and  O_23 
REMARK    6  A    between atoms: C_25  and  O_27 
ROOT
HETATM    1  C   UNK N   1      21.919  16.448   5.139  0.00  0.00    -0.038 A 
HETATM    2  C   UNK N   1      21.998  15.833   6.399  0.00  0.00     0.007 A 
HETATM    3  C   UNK N   1      20.929  15.989   7.418  0.00  0.00     0.013 C 
HETATM    4  C   UNK N   1      20.965  15.234   8.526  0.00  0.00     0.007 C 
HETATM    5  C   UNK N   1      21.956  14.094   8.583  0.00  0.00     0.156 C 
HETATM    6  O   UNK N   1      23.152  14.445   7.962  0.00  0.00    -0.338 OA
HETATM    7  C   UNK N   1      23.129  15.062   6.749  0.00  0.00     0.116 A 
HETATM    8  C   UNK N   1      24.205  14.922   5.861  0.00  0.00     0.136 A 
HETATM    9  C   UNK N   1      24.129  15.541   4.585  0.00  0.00     0.104 A 
HETATM   10  C   UNK N   1      22.985  16.285   4.248  0.00  0.00     0.048 A 
ENDROOT
BRANCH   1  11
HETATM   11  C   UNK N   1      20.678  17.242   4.775  0.00  0.00     0.083 C 
BRANCH  11  12
HETATM   12  C   UNK N   1      20.673  18.236   3.627  0.00  0.00     0.006 A 
HETATM   13  C   UNK N   1      21.139  19.548   3.754  0.00  0.00     0.117 A 
HETATM   14  N   UNK N   1      21.108  20.396   2.693  0.00  0.00    -0.202 N 
HETATM   15  C   UNK N   1      20.625  19.989   1.493  0.00  0.00     0.677 A 
ATOM     16  HN  UNK N   1      21.451  21.351   2.801  1.00  0.00     0.183 HD
HETATM   17  N   UNK N   1      20.597  20.885   0.405  0.00  0.00    -0.234 N 
HETATM   18  N   UNK N   1      20.168  18.720   1.337  0.00  0.00    -0.177 N 
HETATM   19  H   UNK N   1      20.253  20.589  -0.467  0.00  0.00     0.174 HD
HETATM   20  H   UNK N   1      20.922  21.807   0.520  0.00  0.00     0.174 HD
HETATM   21  C   UNK N   1      20.181  17.839   2.374  0.00  0.00     0.122 A 
ATOM     22  HN  UNK N   1      19.809  18.424   0.430  1.00  0.00     0.185 HD
BRANCH  21  23
HETATM   23  N   UNK N   1      19.699  16.528   2.173  0.00  0.00    -0.385 N 
HETATM   24  H   UNK N   1      20.308  15.760   2.266  0.00  0.00     0.157 HD
HETATM   25  H   UNK N   1      18.754  16.381   1.939  0.00  0.00     0.157 HD
ENDBRANCH  21  23
ENDBRANCH  11  12
ENDBRANCH   1  11
BRANCH   9  26
HETATM   26  O   UNK N   1      25.140  15.407   3.691  0.00  0.00    -0.353 OA
HETATM   27  C   UNK N   1      25.838  16.473   3.166  0.00  0.00     0.210 C 
ENDBRANCH   9  26
BRANCH   8  28
HETATM   28  O   UNK N   1      25.271  14.178   6.266  0.00  0.00    -0.351 OA
HETATM   29  C   UNK N   1      25.447  12.833   6.039  0.00  0.00     0.210 C 
ENDBRANCH   8  28
BRANCH   5  30
HETATM   30  C   UNK N   1      22.122  13.451   9.975  0.00  0.00     0.019 A 
HETATM   31  C   UNK N   1      23.487  12.800  10.156  0.00  0.00     0.008 A 
HETATM   32  C   UNK N   1      22.284  11.937   9.897  0.00  0.00     0.008 A 
ENDBRANCH   5  30
TORSDOF 6
ENDMDL
MODEL 2
REMARK VINA RESULT:      -6.6      8.824     11.468
REMARK  6 active torsions:
REMARK  status: ('A' for Active; 'I' for Inactive)
REMARK       I    between atoms: N_1  and  C_2 
REMARK    1  A    between atoms: C_8  and  C_11 
REMARK    2  A    between atoms: C_9  and  N_10 
REMARK    3  A    between atoms: C_11  and  C_12 
REMARK    4  A    between atoms: C_16  and  C_17 
REMARK    5  A    between atoms: C_22  and  O_23 
REMARK    6  A    between atoms: C_25  and  O_27 
ROOT
HETATM    1  C   UNK N   1      31.359  16.681   7.243  0.00  0.00    -0.038 A 
HETATM    2  C   UNK N   1      30.156  17.372   7.022  0.00  0.00     0.007 A 
HETATM    3  C   UNK N   1      29.403  18.011   8.132  0.00  0.00     0.013 C 
HETATM    4  C   UNK N   1      28.366  18.812   7.842  0.00  0.00     0.007 C 
HETATM    5  C   UNK N   1      28.154  19.217   6.401  0.00  0.00     0.156 C 
HETATM    6  O   UNK N   1      28.460  18.166   5.541  0.00  0.00    -0.338 OA
HETATM    7  C   UNK N   1      29.604  17.451   5.725  0.00  0.00     0.116 A 
HETATM    8  C   UNK N   1      30.228  16.819   4.640  0.00  0.00     0.136 A 
HETATM    9  C   UNK N   1      31.445  16.121   4.858  0.00  0.00     0.104 A 
HETATM   10  C   UNK N   1      31.989  16.073   6.153  0.00  0.00     0.048 A 
ENDROOT
BRANCH   1  11
HETATM   11  C   UNK N   1      31.948  16.641   8.641  0.00  0.00     0.083 C 
BRANCH  11  12
HETATM   12  C   UNK N   1      32.834  15.498   9.103  0.00  0.00     0.006 A 
HETATM   13  C   UNK N   1      32.477  14.153   8.961  0.00  0.00     0.117 A 
HETATM   14  N   UNK N   1      33.309  13.170   9.395  0.00  0.00    -0.202 N 
HETATM   15  C   UNK N   1      34.498  13.472   9.973  0.00  0.00     0.677 A 
ATOM     16  HN  UNK N   1      33.036  12.193   9.286  1.00  0.00     0.183 HD
HETATM   17  N   UNK N   1      35.346  12.439  10.420  0.00  0.00    -0.234 N 
HETATM   18  N   UNK N   1      34.874  14.768  10.121  0.00  0.00    -0.177 N 
HETATM   19  H   UNK N   1      36.211  12.656  10.834  0.00  0.00     0.174 HD
HETATM   20  H   UNK N   1      35.070  11.499  10.319  0.00  0.00     0.174 HD
HETATM   21  C   UNK N   1      34.071  15.783   9.701  0.00  0.00     0.122 A 
ATOM     22  HN  UNK N   1      35.772  14.983  10.556  1.00  0.00     0.185 HD
BRANCH  21  23
HETATM   23  N   UNK N   1      34.497  17.118   9.871  0.00  0.00    -0.385 N 
HETATM   24  H   UNK N   1      34.421  17.757   9.126  0.00  0.00     0.157 HD
HETATM   25  H   UNK N   1      34.870  17.409  10.735  0.00  0.00     0.157 HD
ENDBRANCH  21  23
ENDBRANCH  11  12
ENDBRANCH   1  11
BRANCH   9  26
HETATM   26  O   UNK N   1      32.090  15.517   3.828  0.00  0.00    -0.353 OA
HETATM   27  C   UNK N   1      33.094  16.120   3.101  0.00  0.00     0.210 C 
ENDBRANCH   9  26
BRANCH   8  28
HETATM   28  O   UNK N   1      29.636  16.921   3.418  0.00  0.00    -0.351 OA
HETATM   29  C   UNK N   1      28.812  15.982   2.842  0.00  0.00     0.210 C 
ENDBRANCH   8  28
BRANCH   5  30
HETATM   30  C   UNK N   1      26.805  19.906   6.115  0.00  0.00     0.019 A 
HETATM   31  C   UNK N   1      26.748  20.517   4.721  0.00  0.00     0.008 A 
HETATM   32  C   UNK N   1      26.955  21.410   5.913  0.00  0.00     0.008 A 
ENDBRANCH   5  30
TORSDOF 6
ENDMDL
MODEL 3
REMARK VINA RESULT:      -6.6      9.265     12.193
REMARK  6 active torsions:
REMARK  status: ('A' for Active; 'I' for Inactive)
REMARK       I    between atoms: N_1  and  C_2 
REMARK    1  A    between atoms: C_8  and  C_11 
REMARK    2  A    between atoms: C_9  and  N_10 
REMARK    3  A    between atoms: C_11  and  C_12 
REMARK    4  A    between atoms: C_16  and  C_17 
REMARK    5  A    between atoms: C_22  and  O_23 
REMARK    6  A    between atoms: C_25  and  O_27 
ROOT
HETATM    1  C   UNK N   1      32.350  17.579   7.359  0.00  0.00    -0.038 A 
HETATM    2  C   UNK N   1      31.709  17.360   6.128  0.00  0.00     0.007 A 
HETATM    3  C   UNK N   1      32.472  17.173   4.868  0.00  0.00     0.013 C 
HETATM    4  C   UNK N   1      31.822  16.783   3.761  0.00  0.00     0.007 C 
HETATM    5  C   UNK N   1      30.388  16.325   3.897  0.00  0.00     0.156 C 
HETATM    6  O   UNK N   1      29.713  17.085   4.848  0.00  0.00    -0.338 OA
HETATM    7  C   UNK N   1      30.299  17.343   6.049  0.00  0.00     0.116 A 
HETATM    8  C   UNK N   1      29.513  17.574   7.187  0.00  0.00     0.136 A 
HETATM    9  C   UNK N   1      30.156  17.795   8.434  0.00  0.00     0.104 A 
HETATM   10  C   UNK N   1      31.560  17.785   8.495  0.00  0.00     0.048 A 
ENDROOT
BRANCH   1  11
HETATM   11  C   UNK N   1      33.866  17.557   7.423  0.00  0.00     0.083 C 
BRANCH  11  12
HETATM   12  C   UNK N   1      34.630  16.313   7.842  0.00  0.00     0.006 A 
HETATM   13  C   UNK N   1      34.992  15.303   6.945  0.00  0.00     0.117 A 
HETATM   14  N   UNK N   1      35.674  14.210   7.377  0.00  0.00    -0.202 N 
HETATM   15  C   UNK N   1      36.015  14.077   8.683  0.00  0.00     0.677 A 
ATOM     16  HN  UNK N   1      35.932  13.481   6.712  1.00  0.00     0.183 HD
HETATM   17  N   UNK N   1      36.720  12.934   9.113  0.00  0.00    -0.234 N 
HETATM   18  N   UNK N   1      35.681  15.042   9.577  0.00  0.00    -0.177 N 
HETATM   19  H   UNK N   1      36.973  12.839  10.058  0.00  0.00     0.174 HD
HETATM   20  H   UNK N   1      36.956  12.231   8.466  0.00  0.00     0.174 HD
HETATM   21  C   UNK N   1      34.999  16.152   9.187  0.00  0.00     0.122 A 
ATOM     22  HN  UNK N   1      35.945  14.932  10.556  1.00  0.00     0.185 HD
BRANCH  21  23
HETATM   23  N   UNK N   1      34.670  17.135  10.145  0.00  0.00    -0.385 N 
HETATM   24  H   UNK N   1      35.317  17.843  10.366  0.00  0.00     0.157 HD
HETATM   25  H   UNK N   1      33.793  17.112  10.593  0.00  0.00     0.157 HD
ENDBRANCH  21  23
ENDBRANCH  11  12
ENDBRANCH   1  11
BRANCH   9  26
HETATM   26  O   UNK N   1      29.428  17.998   9.560  0.00  0.00    -0.353 OA
HETATM   27  C   UNK N   1      29.067  16.987  10.426  0.00  0.00     0.210 C 
ENDBRANCH   9  26
BRANCH   8  28
HETATM   28  O   UNK N   1      28.159  17.560   7.039  0.00  0.00    -0.351 OA
HETATM   29  C   UNK N   1      27.356  16.445   7.097  0.00  0.00     0.210 C 
ENDBRANCH   8  28
BRANCH   5  30
HETATM   30  C   UNK N   1      29.635  16.153   2.562  0.00  0.00     0.019 A 
HETATM   31  C   UNK N   1      28.163  15.820   2.763  0.00  0.00     0.008 A 
HETATM   32  C   UNK N   1      29.121  14.731   2.366  0.00  0.00     0.008 A 
ENDBRANCH   5  30
TORSDOF 6
ENDMDL
MODEL 4
REMARK VINA RESULT:      -6.5      3.544      5.438
REMARK  6 active torsions:
REMARK  status: ('A' for Active; 'I' for Inactive)
REMARK       I    between atoms: N_1  and  C_2 
REMARK    1  A    between atoms: C_8  and  C_11 
REMARK    2  A    between atoms: C_9  and  N_10 
REMARK    3  A    between atoms: C_11  and  C_12 
REMARK    4  A    between atoms: C_16  and  C_17 
REMARK    5  A    between atoms: C_22  and  O_23 
REMARK    6  A    between atoms: C_25  and  O_27 
ROOT
HETATM    1  C   UNK N   1      24.441  15.154   6.437  0.00  0.00    -0.038 A 
HETATM    2  C   UNK N   1      23.986  14.185   7.346  0.00  0.00     0.007 A 
HETATM    3  C   UNK N   1      24.868  13.099   7.843  0.00  0.00     0.013 C 
HETATM    4  C   UNK N   1      24.441  12.317   8.846  0.00  0.00     0.007 C 
HETATM    5  C   UNK N   1      23.185  12.721   9.584  0.00  0.00     0.156 C 
HETATM    6  O   UNK N   1      22.252  13.272   8.710  0.00  0.00    -0.338 OA
HETATM    7  C   UNK N   1      22.647  14.199   7.795  0.00  0.00     0.116 A 
HETATM    8  C   UNK N   1      21.741  15.159   7.321  0.00  0.00     0.136 A 
HETATM    9  C   UNK N   1      22.197  16.141   6.403  0.00  0.00     0.104 A 
HETATM   10  C   UNK N   1      23.539  16.123   5.986  0.00  0.00     0.048 A 
ENDROOT
BRANCH   1  11
HETATM   11  C   UNK N   1      25.894  15.138   5.997  0.00  0.00     0.083 C 
BRANCH  11  12
HETATM   12  C   UNK N   1      26.591  16.389   5.493  0.00  0.00     0.006 A 
HETATM   13  C   UNK N   1      26.586  16.774   4.148  0.00  0.00     0.117 A 
HETATM   14  N   UNK N   1      27.228  17.904   3.753  0.00  0.00    -0.202 N 
HETATM   15  C   UNK N   1      27.888  18.677   4.651  0.00  0.00     0.677 A 
ATOM     16  HN  UNK N   1      27.216  18.173   2.769  1.00  0.00     0.183 HD
HETATM   17  N   UNK N   1      28.552  19.843   4.220  0.00  0.00    -0.234 N 
HETATM   18  N   UNK N   1      27.909  18.332   5.963  0.00  0.00    -0.177 N 
HETATM   19  H   UNK N   1      29.026  20.409   4.871  0.00  0.00     0.174 HD
HETATM   20  H   UNK N   1      28.544  20.091   3.268  0.00  0.00     0.174 HD
HETATM   21  C   UNK N   1      27.278  17.209   6.402  0.00  0.00     0.122 A 
ATOM     22  HN  UNK N   1      28.406  18.922   6.630  1.00  0.00     0.185 HD
BRANCH  21  23
HETATM   23  N   UNK N   1      27.320  16.883   7.774  0.00  0.00    -0.385 N 
HETATM   24  H   UNK N   1      27.510  17.582   8.440  0.00  0.00     0.157 HD
HETATM   25  H   UNK N   1      27.160  15.955   8.064  0.00  0.00     0.157 HD
ENDBRANCH  21  23
ENDBRANCH  11  12
ENDBRANCH   1  11
BRANCH   9  26
HETATM   26  O   UNK N   1      21.355  17.100   5.941  0.00  0.00    -0.353 OA
HETATM   27  C   UNK N   1      20.640  16.983   4.768  0.00  0.00     0.210 C 
ENDBRANCH   9  26
BRANCH   8  28
HETATM   28  O   UNK N   1      20.461  15.107   7.783  0.00  0.00    -0.351 OA
HETATM   29  C   UNK N   1      19.958  15.826   8.842  0.00  0.00     0.210 C 
ENDBRANCH   8  28
BRANCH   5  30
HETATM   30  C   UNK N   1      22.617  11.644  10.530  0.00  0.00     0.019 A 
HETATM   31  C   UNK N   1      21.431  12.149  11.341  0.00  0.00     0.008 A 
HETATM   32  C   UNK N   1      22.777  12.021  11.999  0.00  0.00     0.008 A 
ENDBRANCH   5  30
TORSDOF 6
ENDMDL
MODEL 5
REMARK VINA RESULT:      -6.4     10.271     12.825
REMARK  6 active torsions:
REMARK  status: ('A' for Active; 'I' for Inactive)
REMARK       I    between atoms: N_1  and  C_2 
REMARK    1  A    between atoms: C_8  and  C_11 
REMARK    2  A    between atoms: C_9  and  N_10 
REMARK    3  A    between atoms: C_11  and  C_12 
REMARK    4  A    between atoms: C_16  and  C_17 
REMARK    5  A    between atoms: C_22  and  O_23 
REMARK    6  A    between atoms: C_25  and  O_27 
ROOT
HETATM    1  C   UNK N   1      33.511  16.710   7.899  0.00  0.00    -0.038 A 
HETATM    2  C   UNK N   1      32.166  16.902   7.538  0.00  0.00     0.007 A 
HETATM    3  C   UNK N   1      31.164  17.431   8.498  0.00  0.00     0.013 C 
HETATM    4  C   UNK N   1      29.945  17.770   8.050  0.00  0.00     0.007 C 
HETATM    5  C   UNK N   1      29.719  17.820   6.557  0.00  0.00     0.156 C 
HETATM    6  O   UNK N   1      30.419  16.802   5.915  0.00  0.00    -0.338 OA
HETATM    7  C   UNK N   1      31.718  16.562   6.243  0.00  0.00     0.116 A 
HETATM    8  C   UNK N   1      32.595  15.999   5.304  0.00  0.00     0.136 A 
HETATM    9  C   UNK N   1      33.955  15.805   5.664  0.00  0.00     0.104 A 
HETATM   10  C   UNK N   1      34.386  16.171   6.950  0.00  0.00     0.048 A 
ENDROOT
BRANCH   1  11
HETATM   11  C   UNK N   1      33.974  17.117   9.285  0.00  0.00     0.083 C 
BRANCH  11  12
HETATM   12  C   UNK N   1      34.670  16.138  10.215  0.00  0.00     0.006 A 
HETATM   13  C   UNK N   1      36.015  16.257  10.577  0.00  0.00     0.117 A 
HETATM   14  N   UNK N   1      36.587  15.350  11.411  0.00  0.00    -0.202 N 
HETATM   15  C   UNK N   1      35.867  14.313  11.906  0.00  0.00     0.677 A 
ATOM     16  HN  UNK N   1      37.569  15.448  11.667  1.00  0.00     0.183 HD
HETATM   17  N   UNK N   1      36.478  13.379  12.767  0.00  0.00    -0.234 N 
HETATM   18  N   UNK N   1      34.558  14.172  11.576  0.00  0.00    -0.177 N 
HETATM   19  H   UNK N   1      35.956  12.630  13.132  0.00  0.00     0.174 HD
HETATM   20  H   UNK N   1      37.429  13.476  13.002  0.00  0.00     0.174 HD
HETATM   21  C   UNK N   1      33.946  15.058  10.744  0.00  0.00     0.122 A 
ATOM     22  HN  UNK N   1      34.025  13.389  11.956  1.00  0.00     0.185 HD
BRANCH  21  23
HETATM   23  N   UNK N   1      32.584  14.880  10.424  0.00  0.00    -0.385 N 
HETATM   24  H   UNK N   1      32.049  15.643  10.106  0.00  0.00     0.157 HD
HETATM   25  H   UNK N   1      32.167  13.993  10.519  0.00  0.00     0.157 HD
ENDBRANCH  21  23
ENDBRANCH  11  12
ENDBRANCH   1  11
BRANCH   9  26
HETATM   26  O   UNK N   1      34.837  15.286   4.774  0.00  0.00    -0.353 OA
HETATM   27  C   UNK N   1      35.519  14.105   4.978  0.00  0.00     0.210 C 
ENDBRANCH   9  26
BRANCH   8  28
HETATM   28  O   UNK N   1      32.094  15.680   4.079  0.00  0.00    -0.351 OA
HETATM   29  C   UNK N   1      32.158  16.468   2.953  0.00  0.00     0.210 C 
ENDBRANCH   8  28
BRANCH   5  30
HETATM   30  C   UNK N   1      28.243  17.950   6.130  0.00  0.00     0.019 A 
HETATM   31  C   UNK N   1      28.093  18.413   4.687  0.00  0.00     0.008 A 
HETATM   32  C   UNK N   1      27.858  19.389   5.806  0.00  0.00     0.008 A 
ENDBRANCH   5  30
TORSDOF 6
ENDMDL
MODEL 6
REMARK VINA RESULT:      -6.3      7.139      9.749
REMARK  6 active torsions:
REMARK  status: ('A' for Active; 'I' for Inactive)
REMARK       I    between atoms: N_1  and  C_2 
REMARK    1  A    between atoms: C_8  and  C_11 
REMARK    2  A    between atoms: C_9  and  N_10 
REMARK    3  A    between atoms: C_11  and  C_12 
REMARK    4  A    between atoms: C_16  and  C_17 
REMARK    5  A    between atoms: C_22  and  O_23 
REMARK    6  A    between atoms: C_25  and  O_27 
ROOT
HETATM    1  C   UNK N   1      29.965  16.810   4.415  0.00  0.00    -0.038 A 
HETATM    2  C   UNK N   1      28.822  17.625   4.458  0.00  0.00     0.007 A 
HETATM    3  C   UNK N   1      28.762  18.850   5.296  0.00  0.00     0.013 C 
HETATM    4  C   UNK N   1      27.724  19.688   5.157  0.00  0.00     0.007 C 
HETATM    5  C   UNK N   1      26.783  19.475   3.993  0.00  0.00     0.156 C 
HETATM    6  O   UNK N   1      26.596  18.117   3.749  0.00  0.00    -0.338 OA
HETATM    7  C   UNK N   1      27.670  17.281   3.718  0.00  0.00     0.116 A 
HETATM    8  C   UNK N   1      27.632  16.106   2.953  0.00  0.00     0.136 A 
HETATM    9  C   UNK N   1      28.786  15.279   2.905  0.00  0.00     0.104 A 
HETATM   10  C   UNK N   1      29.930  15.652   3.631  0.00  0.00     0.048 A 
ENDROOT
BRANCH   1  11
HETATM   11  C   UNK N   1      31.203  17.222   5.192  0.00  0.00     0.083 C 
BRANCH  11  12
HETATM   12  C   UNK N   1      31.498  16.670   6.575  0.00  0.00     0.006 A 
HETATM   13  C   UNK N   1      30.960  17.218   7.744  0.00  0.00     0.117 A 
HETATM   14  N   UNK N   1      31.261  16.685   8.957  0.00  0.00    -0.202 N 
HETATM   15  C   UNK N   1      32.088  15.615   9.058  0.00  0.00     0.677 A 
ATOM     16  HN  UNK N   1      30.862  17.095   9.802  1.00  0.00     0.183 HD
HETATM   17  N   UNK N   1      32.391  15.078  10.326  0.00  0.00    -0.234 N 
HETATM   18  N   UNK N   1      32.623  15.058   7.942  0.00  0.00    -0.177 N 
HETATM   19  H   UNK N   1      32.985  14.297  10.401  0.00  0.00     0.174 HD
HETATM   20  H   UNK N   1      32.009  15.485  11.136  0.00  0.00     0.174 HD
HETATM   21  C   UNK N   1      32.347  15.561   6.708  0.00  0.00     0.122 A 
ATOM     22  HN  UNK N   1      33.242  14.252   8.030  1.00  0.00     0.185 HD
BRANCH  21  23
HETATM   23  N   UNK N   1      32.921  14.955   5.570  0.00  0.00    -0.385 N 
HETATM   24  H   UNK N   1      33.660  14.313   5.674  0.00  0.00     0.157 HD
HETATM   25  H   UNK N   1      32.583  15.176   4.672  0.00  0.00     0.157 HD
ENDBRANCH  21  23
ENDBRANCH  11  12
ENDBRANCH   1  11
BRANCH   9  26
HETATM   26  O   UNK N   1      28.795  14.148   2.157  0.00  0.00    -0.353 OA
HETATM   27  C   UNK N   1      28.526  12.896   2.667  0.00  0.00     0.210 C 
ENDBRANCH   9  26
BRANCH   8  28
HETATM   28  O   UNK N   1      26.485  15.825   2.276  0.00  0.00    -0.351 OA
HETATM   29  C   UNK N   1      25.443  15.058   2.743  0.00  0.00     0.210 C 
ENDBRANCH   8  28
BRANCH   5  30
HETATM   30  C   UNK N   1      25.482  20.299   4.055  0.00  0.00     0.019 A 
HETATM   31  C   UNK N   1      24.275  19.521   3.546  0.00  0.00     0.008 A 
HETATM   32  C   UNK N   1      24.902  20.571   2.671  0.00  0.00     0.008 A 
ENDBRANCH   5  30
TORSDOF 6
ENDMDL
MODEL 7
REMARK VINA RESULT:      -6.2      6.235      9.010
REMARK  6 active torsions:
REMARK  status: ('A' for Active; 'I' for Inactive)
REMARK       I    between atoms: N_1  and  C_2 
REMARK    1  A    between atoms: C_8  and  C_11 
REMARK    2  A    between atoms: C_9  and  N_10 
REMARK    3  A    between atoms: C_11  and  C_12 
REMARK    4  A    between atoms: C_16  and  C_17 
REMARK    5  A    between atoms: C_22  and  O_23 
REMARK    6  A    between atoms: C_25  and  O_27 
ROOT
HETATM    1  C   UNK N   1      28.551  17.921   4.300  0.00  0.00    -0.038 A 
HETATM    2  C   UNK N   1      27.447  17.228   3.777  0.00  0.00     0.007 A 
HETATM    3  C   UNK N   1      27.568  15.850   3.237  0.00  0.00     0.013 C 
HETATM    4  C   UNK N   1      26.454  15.170   2.925  0.00  0.00     0.007 C 
HETATM    5  C   UNK N   1      25.122  15.741   3.354  0.00  0.00     0.156 C 
HETATM    6  O   UNK N   1      25.121  17.129   3.248  0.00  0.00    -0.338 OA
HETATM    7  C   UNK N   1      26.178  17.845   3.721  0.00  0.00     0.116 A 
HETATM    8  C   UNK N   1      26.002  19.167   4.155  0.00  0.00     0.136 A 
HETATM    9  C   UNK N   1      27.115  19.870   4.686  0.00  0.00     0.104 A 
HETATM   10  C   UNK N   1      28.365  19.230   4.754  0.00  0.00     0.048 A 
ENDROOT
BRANCH   1  11
HETATM   11  C   UNK N   1      29.897  17.222   4.382  0.00  0.00     0.083 C 
BRANCH  11  12
HETATM   12  C   UNK N   1      30.692  17.169   5.674  0.00  0.00     0.006 A 
HETATM   13  C   UNK N   1      30.103  16.942   6.922  0.00  0.00     0.117 A 
HETATM   14  N   UNK N   1      30.864  16.907   8.047  0.00  0.00    -0.202 N 
HETATM   15  C   UNK N   1      32.206  17.092   7.983  0.00  0.00     0.677 A 
ATOM     16  HN  UNK N   1      30.421  16.740   8.951  1.00  0.00     0.183 HD
HETATM   17  N   UNK N   1      32.979  17.057   9.161  0.00  0.00    -0.234 N 
HETATM   18  N   UNK N   1      32.807  17.312   6.786  0.00  0.00    -0.177 N 
HETATM   19  H   UNK N   1      33.953  17.184   9.116  0.00  0.00     0.174 HD
HETATM   20  H   UNK N   1      32.542  16.905  10.030  0.00  0.00     0.174 HD
HETATM   21  C   UNK N   1      32.083  17.354   5.635  0.00  0.00     0.122 A 
ATOM     22  HN  UNK N   1      33.818  17.448   6.749  1.00  0.00     0.185 HD
BRANCH  21  23
HETATM   23  N   UNK N   1      32.743  17.583   4.409  0.00  0.00    -0.385 N 
HETATM   24  H   UNK N   1      33.660  17.941   4.404  0.00  0.00     0.157 HD
HETATM   25  H   UNK N   1      32.286  17.386   3.559  0.00  0.00     0.157 HD
ENDBRANCH  21  23
ENDBRANCH  11  12
ENDBRANCH   1  11
BRANCH   9  26
HETATM   26  O   UNK N   1      26.978  21.142   5.139  0.00  0.00    -0.353 OA
HETATM   27  C   UNK N   1      26.647  21.455   6.440  0.00  0.00     0.210 C 
ENDBRANCH   9  26
BRANCH   8  28
HETATM   28  O   UNK N   1      24.755  19.707   4.059  0.00  0.00    -0.351 OA
HETATM   29  C   UNK N   1      24.302  20.506   3.035  0.00  0.00     0.210 C 
ENDBRANCH   8  28
BRANCH   5  30
HETATM   30  C   UNK N   1      23.892  15.050   2.732  0.00  0.00     0.019 A 
HETATM   31  C   UNK N   1      22.581  15.679   3.184  0.00  0.00     0.008 A 
HETATM   32  C   UNK N   1      23.018  14.369   3.780  0.00  0.00     0.008 A 
ENDBRANCH   5  30
TORSDOF 6
ENDMDL
MODEL 8
REMARK VINA RESULT:      -6.2     13.974     15.986
REMARK  6 active torsions:
REMARK  status: ('A' for Active; 'I' for Inactive)
REMARK       I    between atoms: N_1  and  C_2 
REMARK    1  A    between atoms: C_8  and  C_11 
REMARK    2  A    between atoms: C_9  and  N_10 
REMARK    3  A    between atoms: C_11  and  C_12 
REMARK    4  A    between atoms: C_16  and  C_17 
REMARK    5  A    between atoms: C_22  and  O_23 
REMARK    6  A    between atoms: C_25  and  O_27 
ROOT
HETATM    1  C   UNK N   1      27.056  24.146  -5.280  0.00  0.00    -0.038 A 
HETATM    2  C   UNK N   1      27.101  25.550  -5.312  0.00  0.00     0.007 A 
HETATM    3  C   UNK N   1      26.056  26.353  -5.998  0.00  0.00     0.013 C 
HETATM    4  C   UNK N   1      26.047  27.685  -5.839  0.00  0.00     0.007 C 
HETATM    5  C   UNK N   1      26.950  28.287  -4.788  0.00  0.00     0.156 C 
HETATM    6  O   UNK N   1      28.162  27.606  -4.726  0.00  0.00    -0.338 OA
HETATM    7  C   UNK N   1      28.174  26.245  -4.713  0.00  0.00     0.116 A 
HETATM    8  C   UNK N   1      29.228  25.550  -4.102  0.00  0.00     0.136 A 
HETATM    9  C   UNK N   1      29.186  24.131  -4.065  0.00  0.00     0.104 A 
HETATM   10  C   UNK N   1      28.098  23.459  -4.648  0.00  0.00     0.048 A 
ENDROOT
BRANCH   1  11
HETATM   11  C   UNK N   1      25.874  23.425  -5.901  0.00  0.00     0.083 C 
BRANCH  11  12
HETATM   12  C   UNK N   1      25.961  22.783  -7.274  0.00  0.00     0.006 A 
HETATM   13  C   UNK N   1      26.940  23.124  -8.214  0.00  0.00     0.117 A 
HETATM   14  N   UNK N   1      26.969  22.518  -9.429  0.00  0.00    -0.202 N 
HETATM   15  C   UNK N   1      26.051  21.574  -9.756  0.00  0.00     0.677 A 
ATOM     16  HN  UNK N   1      27.688  22.777 -10.105  1.00  0.00     0.183 HD
HETATM   17  N   UNK N   1      26.095  20.960 -11.024  0.00  0.00    -0.234 N 
HETATM   18  N   UNK N   1      25.091  21.219  -8.865  0.00  0.00    -0.177 N 
HETATM   19  H   UNK N   1      25.434  20.270 -11.260  0.00  0.00     0.174 HD
HETATM   20  H   UNK N   1      26.787  21.222 -11.673  0.00  0.00     0.174 HD
HETATM   21  C   UNK N   1      25.026  21.801  -7.636  0.00  0.00     0.122 A 
ATOM     22  HN  UNK N   1      24.407  20.507  -9.121  1.00  0.00     0.185 HD
BRANCH  21  23
HETATM   23  N   UNK N   1      24.014  21.405  -6.736  0.00  0.00    -0.385 N 
HETATM   24  H   UNK N   1      23.089  21.295  -7.053  0.00  0.00     0.157 HD
HETATM   25  H   UNK N   1      24.235  21.239  -5.790  0.00  0.00     0.157 HD
ENDBRANCH  21  23
ENDBRANCH  11  12
ENDBRANCH   1  11
BRANCH   9  26
HETATM   26  O   UNK N   1      30.175  23.426  -3.461  0.00  0.00    -0.353 OA
HETATM   27  C   UNK N   1      31.201  22.812  -4.148  0.00  0.00     0.210 C 
ENDBRANCH   9  26
BRANCH   8  28
HETATM   28  O   UNK N   1      30.239  26.280  -3.556  0.00  0.00    -0.351 OA
HETATM   29  C   UNK N   1      31.438  26.574  -4.163  0.00  0.00     0.210 C 
ENDBRANCH   8  28
BRANCH   5  30
HETATM   30  C   UNK N   1      27.081  29.823  -4.851  0.00  0.00     0.019 A 
HETATM   31  C   UNK N   1      27.953  30.379  -3.733  0.00  0.00     0.008 A 
HETATM   32  C   UNK N   1      26.458  30.507  -3.639  0.00  0.00     0.008 A 
ENDBRANCH   5  30
TORSDOF 6
ENDMDL
MODEL 9
REMARK VINA RESULT:      -6.1     13.229     16.052
REMARK  6 active torsions:
REMARK  status: ('A' for Active; 'I' for Inactive)
REMARK       I    between atoms: N_1  and  C_2 
REMARK    1  A    between atoms: C_8  and  C_11 
REMARK    2  A    between atoms: C_9  and  N_10 
REMARK    3  A    between atoms: C_11  and  C_12 
REMARK    4  A    between atoms: C_16  and  C_17 
REMARK    5  A    between atoms: C_22  and  O_23 
REMARK    6  A    between atoms: C_25  and  O_27 
ROOT
HETATM    1  C   UNK N   1      35.655  13.035  11.436  0.00  0.00    -0.038 A 
HETATM    2  C   UNK N   1      35.199  14.232  10.859  0.00  0.00     0.007 A 
HETATM    3  C   UNK N   1      35.619  15.560  11.375  0.00  0.00     0.013 C 
HETATM    4  C   UNK N   1      35.306  16.662  10.676  0.00  0.00     0.007 C 
HETATM    5  C   UNK N   1      34.748  16.490   9.281  0.00  0.00     0.156 C 
HETATM    6  O   UNK N   1      33.906  15.384   9.217  0.00  0.00    -0.338 OA
HETATM    7  C   UNK N   1      34.292  14.205   9.778  0.00  0.00     0.116 A 
HETATM    8  C   UNK N   1      33.804  12.989   9.279  0.00  0.00     0.136 A 
HETATM    9  C   UNK N   1      34.263  11.775   9.858  0.00  0.00     0.104 A 
HETATM   10  C   UNK N   1      35.184  11.823  10.918  0.00  0.00     0.048 A 
ENDROOT
BRANCH   1  11
HETATM   11  C   UNK N   1      36.657  13.091  12.574  0.00  0.00     0.083 C 
BRANCH  11  12
HETATM   12  C   UNK N   1      36.239  12.880  14.018  0.00  0.00     0.006 A 
HETATM   13  C   UNK N   1      35.610  11.714  14.467  0.00  0.00     0.117 A 
HETATM   14  N   UNK N   1      35.255  11.580  15.771  0.00  0.00    -0.202 N 
HETATM   15  C   UNK N   1      35.502  12.573  16.662  0.00  0.00     0.677 A 
ATOM     16  HN  UNK N   1      34.797  10.724  16.084  1.00  0.00     0.183 HD
HETATM   17  N   UNK N   1      35.123  12.417  18.011  0.00  0.00    -0.234 N 
HETATM   18  N   UNK N   1      36.113  13.715  16.258  0.00  0.00    -0.177 N 
HETATM   19  H   UNK N   1      35.307  13.133  18.660  0.00  0.00     0.174 HD
HETATM   20  H   UNK N   1      34.673  11.592  18.303  0.00  0.00     0.174 HD
HETATM   21  C   UNK N   1      36.486  13.890  14.961  0.00  0.00     0.122 A 
ATOM     22  HN  UNK N   1      36.296  14.454  16.938  1.00  0.00     0.185 HD
BRANCH  21  23
HETATM   23  N   UNK N   1      37.121  15.090  14.579  0.00  0.00    -0.385 N 
HETATM   24  H   UNK N   1      36.714  15.665  13.891  0.00  0.00     0.157 HD
HETATM   25  H   UNK N   1      37.972  15.353  15.000  0.00  0.00     0.157 HD
ENDBRANCH  21  23
ENDBRANCH  11  12
ENDBRANCH   1  11
BRANCH   9  26
HETATM   26  O   UNK N   1      33.832  10.579   9.385  0.00  0.00    -0.353 OA
HETATM   27  C   UNK N   1      34.569   9.417   9.470  0.00  0.00     0.210 C 
ENDBRANCH   9  26
BRANCH   8  28
HETATM   28  O   UNK N   1      32.920  13.034   8.245  0.00  0.00    -0.351 OA
HETATM   29  C   UNK N   1      33.238  12.946   6.910  0.00  0.00     0.210 C 
ENDBRANCH   8  28
BRANCH   5  30
HETATM   30  C   UNK N   1      34.168  17.774   8.655  0.00  0.00     0.019 A 
HETATM   31  C   UNK N   1      32.849  17.525   7.934  0.00  0.00     0.008 A 
HETATM   32  C   UNK N   1      34.109  17.700   7.133  0.00  0.00     0.008 A 
ENDBRANCH   5  30
TORSDOF 6
ENDMDL
