MODEL 1
REMARK VINA RESULT:      -8.6      0.000      0.000
REMARK  7 active torsions:
REMARK  status: ('A' for Active; 'I' for Inactive)
REMARK    1  A    between atoms: C_2  and  O_11 
REMARK    2  A    between atoms: C_4  and  O_12 
REMARK    3  A    between atoms: C_7  and  C_8 
REMARK    4  A    between atoms: C_20  and  C_21 
REMARK    5  A    between atoms: C_22  and  C_23 
REMARK    6  A    between atoms: C_24  and  C_25 
REMARK    7  A    between atoms: C_25  and  O_27 
ROOT
HETATM    1  C   UNK N   1      24.721  18.658   3.845  0.00  0.00     0.004 C 
HETATM    2  C   UNK N   1      25.842  19.125   4.359  0.00  0.00    -0.075 C 
HETATM    3  C   UNK N   1      26.417  18.158   5.341  0.00  0.00     0.024 C 
HETATM    4  C   UNK N   1      27.729  18.568   5.933  0.00  0.00    -0.022 C 
HETATM    5  C   UNK N   1      27.639  19.992   6.491  0.00  0.00     0.011 C 
HETATM    6  C   UNK N   1      27.275  20.959   5.352  0.00  0.00     0.005 C 
HETATM    7  C   UNK N   1      25.925  20.593   4.723  0.00  0.00     0.034 C 
HETATM    8  C   UNK N   1      26.608  16.678   5.009  0.00  0.00     0.011 C 
HETATM    9  C   UNK N   1      27.523  16.186   6.152  0.00  0.00     0.019 C 
HETATM   10  C   UNK N   1      27.831  17.447   6.973  0.00  0.00     0.074 C 
HETATM   11  C   UNK N   1      28.867  18.507   4.887  0.00  0.00     0.017 C 
ENDROOT
BRANCH   1  12
HETATM   12  C   UNK N   1      23.518  19.427   3.594  0.00  0.00     0.008 C 
HETATM   13  C   UNK N   1      22.335  18.837   3.849  0.00  0.00    -0.048 C 
HETATM   14  C   UNK N   1      21.088  19.550   3.482  0.00  0.00     0.071 C 
HETATM   15  C   UNK N   1      22.148  17.429   4.370  0.00  0.00    -0.033 C 
HETATM   16  C   UNK N   1      20.361  18.728   2.417  0.00  0.00     0.125 C 
HETATM   17  C   UNK N   1      20.425  17.191   2.633  0.00  0.00     0.068 C 
HETATM   18  C   UNK N   1      20.826  16.776   4.055  0.00  0.00     0.153 C 
HETATM   19  C   UNK N   1      23.135  16.697   4.907  0.00  0.00     0.022 C 
BRANCH  16  20
HETATM   20  O   UNK N   1      19.032  19.138   2.360  0.00  0.00    -0.395 OA
HETATM   21  H   UNK N   1      18.401  19.161   3.096  0.00  0.00     0.210 HD
ENDBRANCH  16  20
BRANCH  18  22
HETATM   22  O   UNK N   1      20.925  15.380   4.114  0.00  0.00    -0.391 OA
HETATM   23  H   UNK N   1      20.448  14.846   4.768  0.00  0.00     0.210 HD
ENDBRANCH  18  22
ENDBRANCH   1  12
BRANCH  10  24
HETATM   24  C   UNK N   1      29.128  17.463   7.602  0.00  0.00    -0.087 C 
HETATM   25  C   UNK N   1      30.195  17.607   8.107  0.00  0.00    -0.015 C 
BRANCH  25  26
HETATM   26  C   UNK N   1      31.517  17.932   8.377  0.00  0.00    -0.012 C 
HETATM   27  C   UNK N   1      32.709  18.001   8.375  0.00  0.00    -0.055 C 
BRANCH  27  28
HETATM   28  C   UNK N   1      34.142  17.828   8.243  0.00  0.00     0.114 C 
HETATM   29  C   UNK N   1      34.681  16.976   9.368  0.00  0.00     0.060 C 
HETATM   30  C   UNK N   1      34.414  17.176   6.905  0.00  0.00     0.060 C 
BRANCH  28  31
HETATM   31  O   UNK N   1      34.743  19.087   8.271  0.00  0.00    -0.378 OA
HETATM   32  H   UNK N   1      34.485  19.832   7.707  0.00  0.00     0.211 HD
ENDBRANCH  28  31
ENDBRANCH  27  28
ENDBRANCH  25  26
ENDBRANCH  10  24
TORSDOF 7
ENDMDL
MODEL 2
REMARK VINA RESULT:      -8.0      1.841     10.769
REMARK  7 active torsions:
REMARK  status: ('A' for Active; 'I' for Inactive)
REMARK    1  A    between atoms: C_2  and  O_11 
REMARK    2  A    between atoms: C_4  and  O_12 
REMARK    3  A    between atoms: C_7  and  C_8 
REMARK    4  A    between atoms: C_20  and  C_21 
REMARK    5  A    between atoms: C_22  and  C_23 
REMARK    6  A    between atoms: C_24  and  C_25 
REMARK    7  A    between atoms: C_25  and  O_27 
ROOT
HETATM    1  C   UNK N   1      31.488  17.161   7.426  0.00  0.00     0.004 C 
HETATM    2  C   UNK N   1      30.204  17.445   7.521  0.00  0.00    -0.075 C 
HETATM    3  C   UNK N   1      29.613  17.679   6.170  0.00  0.00     0.024 C 
HETATM    4  C   UNK N   1      28.140  17.944   6.166  0.00  0.00    -0.022 C 
HETATM    5  C   UNK N   1      27.797  19.058   7.160  0.00  0.00     0.011 C 
HETATM    6  C   UNK N   1      28.227  18.624   8.572  0.00  0.00     0.005 C 
HETATM    7  C   UNK N   1      29.736  18.359   8.634  0.00  0.00     0.034 C 
HETATM    8  C   UNK N   1      29.815  16.700   5.012  0.00  0.00     0.011 C 
HETATM    9  C   UNK N   1      28.765  17.169   3.980  0.00  0.00     0.019 C 
HETATM   10  C   UNK N   1      28.013  18.310   4.682  0.00  0.00     0.074 C 
HETATM   11  C   UNK N   1      27.333  16.675   6.530  0.00  0.00     0.017 C 
ENDROOT
BRANCH   1  12
HETATM   12  C   UNK N   1      32.534  17.658   8.299  0.00  0.00     0.008 C 
HETATM   13  C   UNK N   1      33.732  17.048   8.249  0.00  0.00    -0.048 C 
HETATM   14  C   UNK N   1      34.779  17.448   9.219  0.00  0.00     0.071 C 
HETATM   15  C   UNK N   1      34.085  15.874   7.361  0.00  0.00    -0.033 C 
HETATM   16  C   UNK N   1      35.099  16.244  10.106  0.00  0.00     0.125 C 
HETATM   17  C   UNK N   1      35.112  14.881   9.362  0.00  0.00     0.068 C 
HETATM   18  C   UNK N   1      35.220  15.002   7.835  0.00  0.00     0.153 C 
HETATM   19  C   UNK N   1      33.341  15.480   6.318  0.00  0.00     0.022 C 
BRANCH  16  20
HETATM   20  O   UNK N   1      36.328  16.452  10.724  0.00  0.00    -0.395 OA
HETATM   21  H   UNK N   1      36.721  17.308  10.957  0.00  0.00     0.210 HD
ENDBRANCH  16  20
BRANCH  18  22
HETATM   22  O   UNK N   1      35.147  13.724   7.268  0.00  0.00    -0.391 OA
HETATM   23  H   UNK N   1      34.372  13.411   6.775  0.00  0.00     0.210 HD
ENDBRANCH  18  22
ENDBRANCH   1  12
BRANCH  10  24
HETATM   24  C   UNK N   1      26.626  18.441   4.314  0.00  0.00    -0.087 C 
HETATM   25  C   UNK N   1      25.511  18.672   3.972  0.00  0.00    -0.015 C 
BRANCH  25  26
HETATM   26  C   UNK N   1      24.242  19.211   3.814  0.00  0.00    -0.012 C 
HETATM   27  C   UNK N   1      23.065  19.368   3.678  0.00  0.00    -0.055 C 
BRANCH  27  28
HETATM   28  C   UNK N   1      21.642  19.284   3.419  0.00  0.00     0.114 C 
HETATM   29  C   UNK N   1      21.265  20.154   2.242  0.00  0.00     0.060 C 
HETATM   30  C   UNK N   1      21.300  17.836   3.140  0.00  0.00     0.060 C 
BRANCH  28  31
HETATM   31  O   UNK N   1      20.960  19.707   4.559  0.00  0.00    -0.378 OA
HETATM   32  H   UNK N   1      20.899  19.199   5.383  0.00  0.00     0.211 HD
ENDBRANCH  28  31
ENDBRANCH  27  28
ENDBRANCH  25  26
ENDBRANCH  10  24
TORSDOF 7
ENDMDL
MODEL 3
REMARK VINA RESULT:      -8.0      8.721     16.040
REMARK  7 active torsions:
REMARK  status: ('A' for Active; 'I' for Inactive)
REMARK    1  A    between atoms: C_2  and  O_11 
REMARK    2  A    between atoms: C_4  and  O_12 
REMARK    3  A    between atoms: C_7  and  C_8 
REMARK    4  A    between atoms: C_20  and  C_21 
REMARK    5  A    between atoms: C_22  and  C_23 
REMARK    6  A    between atoms: C_24  and  C_25 
REMARK    7  A    between atoms: C_25  and  O_27 
ROOT
HETATM    1  C   UNK N   1      36.406  10.858  15.823  0.00  0.00     0.004 C 
HETATM    2  C   UNK N   1      36.295  10.901  14.511  0.00  0.00    -0.075 C 
HETATM    3  C   UNK N   1      35.942  12.278  14.055  0.00  0.00     0.024 C 
HETATM    4  C   UNK N   1      35.857  12.447  12.570  0.00  0.00    -0.022 C 
HETATM    5  C   UNK N   1      34.946  11.375  11.965  0.00  0.00     0.011 C 
HETATM    6  C   UNK N   1      35.522   9.985  12.282  0.00  0.00     0.005 C 
HETATM    7  C   UNK N   1      35.612   9.754  13.795  0.00  0.00     0.034 C 
HETATM    8  C   UNK N   1      36.714  13.513  14.523  0.00  0.00     0.011 C 
HETATM    9  C   UNK N   1      36.233  14.609  13.547  0.00  0.00     0.019 C 
HETATM   10  C   UNK N   1      35.301  13.876  12.569  0.00  0.00     0.074 C 
HETATM   11  C   UNK N   1      37.252  12.357  11.908  0.00  0.00     0.017 C 
ENDROOT
BRANCH   1  12
HETATM   12  C   UNK N   1      35.918   9.796  16.682  0.00  0.00     0.008 C 
HETATM   13  C   UNK N   1      35.385  10.146  17.867  0.00  0.00    -0.048 C 
HETATM   14  C   UNK N   1      34.996   9.078  18.819  0.00  0.00     0.071 C 
HETATM   15  C   UNK N   1      35.258  11.560  18.392  0.00  0.00    -0.033 C 
HETATM   16  C   UNK N   1      35.861   9.213  20.073  0.00  0.00     0.125 C 
HETATM   17  C   UNK N   1      36.137  10.678  20.511  0.00  0.00     0.068 C 
HETATM   18  C   UNK N   1      35.182  11.707  19.890  0.00  0.00     0.153 C 
HETATM   19  C   UNK N   1      35.399  12.653  17.628  0.00  0.00     0.022 C 
BRANCH  16  20
HETATM   20  O   UNK N   1      35.256   8.518  21.116  0.00  0.00    -0.395 OA
HETATM   21  H   UNK N   1      34.536   8.837  21.682  0.00  0.00     0.210 HD
ENDBRANCH  16  20
BRANCH  18  22
HETATM   22  O   UNK N   1      35.568  12.991  20.292  0.00  0.00    -0.391 OA
HETATM   23  H   UNK N   1      35.766  13.217  21.215  0.00  0.00     0.210 HD
ENDBRANCH  18  22
ENDBRANCH   1  12
BRANCH  10  24
HETATM   24  C   UNK N   1      35.286  14.407  11.230  0.00  0.00    -0.087 C 
HETATM   25  C   UNK N   1      35.252  14.964  10.179  0.00  0.00    -0.015 C 
BRANCH  25  26
HETATM   26  C   UNK N   1      34.880  15.707   9.068  0.00  0.00    -0.012 C 
HETATM   27  C   UNK N   1      34.534  16.579   8.328  0.00  0.00    -0.055 C 
BRANCH  27  28
HETATM   28  C   UNK N   1      34.016  17.762   7.671  0.00  0.00     0.114 C 
HETATM   29  C   UNK N   1      33.800  17.501   6.199  0.00  0.00     0.060 C 
HETATM   30  C   UNK N   1      32.711  18.136   8.341  0.00  0.00     0.060 C 
BRANCH  28  31
HETATM   31  O   UNK N   1      34.933  18.799   7.840  0.00  0.00    -0.378 OA
HETATM   32  H   UNK N   1      35.896  18.693   7.802  0.00  0.00     0.211 HD
ENDBRANCH  28  31
ENDBRANCH  27  28
ENDBRANCH  25  26
ENDBRANCH  10  24
TORSDOF 7
ENDMDL
MODEL 4
REMARK VINA RESULT:      -7.9     10.845     17.468
REMARK  7 active torsions:
REMARK  status: ('A' for Active; 'I' for Inactive)
REMARK    1  A    between atoms: C_2  and  O_11 
REMARK    2  A    between atoms: C_4  and  O_12 
REMARK    3  A    between atoms: C_7  and  C_8 
REMARK    4  A    between atoms: C_20  and  C_21 
REMARK    5  A    between atoms: C_22  and  C_23 
REMARK    6  A    between atoms: C_24  and  C_25 
REMARK    7  A    between atoms: C_25  and  O_27 
ROOT
HETATM    1  C   UNK N   1      35.599  10.116  18.982  0.00  0.00     0.004 C 
HETATM    2  C   UNK N   1      35.329  11.233  18.336  0.00  0.00    -0.075 C 
HETATM    3  C   UNK N   1      36.061  11.281  17.036  0.00  0.00     0.024 C 
HETATM    4  C   UNK N   1      35.769  12.484  16.194  0.00  0.00    -0.022 C 
HETATM    5  C   UNK N   1      35.944  13.764  17.017  0.00  0.00     0.011 C 
HETATM    6  C   UNK N   1      34.973  13.735  18.210  0.00  0.00     0.005 C 
HETATM    7  C   UNK N   1      35.245  12.528  19.116  0.00  0.00     0.034 C 
HETATM    8  C   UNK N   1      36.031  10.119  16.041  0.00  0.00     0.011 C 
HETATM    9  C   UNK N   1      36.608  10.753  14.757  0.00  0.00     0.019 C 
HETATM   10  C   UNK N   1      36.830  12.230  15.118  0.00  0.00     0.074 C 
HETATM   11  C   UNK N   1      34.331  12.443  15.625  0.00  0.00     0.017 C 
ENDROOT
BRANCH   1  12
HETATM   12  C   UNK N   1      35.841   9.997  20.407  0.00  0.00     0.008 C 
HETATM   13  C   UNK N   1      34.928   9.336  21.143  0.00  0.00    -0.048 C 
HETATM   14  C   UNK N   1      35.083   9.310  22.618  0.00  0.00     0.071 C 
HETATM   15  C   UNK N   1      33.658   8.709  20.613  0.00  0.00    -0.033 C 
HETATM   16  C   UNK N   1      33.887  10.031  23.240  0.00  0.00     0.125 C 
HETATM   17  C   UNK N   1      32.532   9.768  22.526  0.00  0.00     0.068 C 
HETATM   18  C   UNK N   1      32.538   8.536  21.608  0.00  0.00     0.153 C 
HETATM   19  C   UNK N   1      33.423   8.489  19.312  0.00  0.00     0.022 C 
BRANCH  16  20
HETATM   20  O   UNK N   1      33.789   9.670  24.580  0.00  0.00    -0.395 OA
HETATM   21  H   UNK N   1      33.835   8.771  24.941  0.00  0.00     0.210 HD
ENDBRANCH  16  20
BRANCH  18  22
HETATM   22  O   UNK N   1      31.299   8.439  20.964  0.00  0.00    -0.391 OA
HETATM   23  H   UNK N   1      30.780   7.620  20.942  0.00  0.00     0.210 HD
ENDBRANCH  18  22
ENDBRANCH   1  12
BRANCH  10  24
HETATM   24  C   UNK N   1      36.668  13.155  14.025  0.00  0.00    -0.087 C 
HETATM   25  C   UNK N   1      36.420  13.954  13.180  0.00  0.00    -0.015 C 
BRANCH  25  26
HETATM   26  C   UNK N   1      35.832  14.682  12.156  0.00  0.00    -0.012 C 
HETATM   27  C   UNK N   1      35.111  15.074  11.287  0.00  0.00    -0.055 C 
BRANCH  27  28
HETATM   28  C   UNK N   1      34.148  15.273  10.223  0.00  0.00     0.114 C 
HETATM   29  C   UNK N   1      34.357  16.616   9.561  0.00  0.00     0.060 C 
HETATM   30  C   UNK N   1      34.320  14.155   9.218  0.00  0.00     0.060 C 
BRANCH  28  31
HETATM   31  O   UNK N   1      32.867  15.208  10.769  0.00  0.00    -0.378 OA
HETATM   32  H   UNK N   1      32.484  15.878  11.357  0.00  0.00     0.211 HD
ENDBRANCH  28  31
ENDBRANCH  27  28
ENDBRANCH  25  26
ENDBRANCH  10  24
TORSDOF 7
ENDMDL
MODEL 5
REMARK VINA RESULT:      -7.5      8.894     13.642
REMARK  7 active torsions:
REMARK  status: ('A' for Active; 'I' for Inactive)
REMARK    1  A    between atoms: C_2  and  O_11 
REMARK    2  A    between atoms: C_4  and  O_12 
REMARK    3  A    between atoms: C_7  and  C_8 
REMARK    4  A    between atoms: C_20  and  C_21 
REMARK    5  A    between atoms: C_22  and  C_23 
REMARK    6  A    between atoms: C_24  and  C_25 
REMARK    7  A    between atoms: C_25  and  O_27 
ROOT
HETATM    1  C   UNK N   1      35.279  14.038  11.023  0.00  0.00     0.004 C 
HETATM    2  C   UNK N   1      35.733  13.716  12.218  0.00  0.00    -0.075 C 
HETATM    3  C   UNK N   1      34.908  12.629  12.823  0.00  0.00     0.024 C 
HETATM    4  C   UNK N   1      35.384  12.145  14.157  0.00  0.00    -0.022 C 
HETATM    5  C   UNK N   1      35.590  13.327  15.109  0.00  0.00     0.011 C 
HETATM    6  C   UNK N   1      36.642  14.278  14.512  0.00  0.00     0.005 C 
HETATM    7  C   UNK N   1      36.191  14.819  13.150  0.00  0.00     0.034 C 
HETATM    8  C   UNK N   1      34.570  11.345  12.063  0.00  0.00     0.011 C 
HETATM    9  C   UNK N   1      34.031  10.420  13.176  0.00  0.00     0.019 C 
HETATM   10  C   UNK N   1      34.192  11.234  14.470  0.00  0.00     0.074 C 
HETATM   11  C   UNK N   1      36.711  11.358  14.034  0.00  0.00     0.017 C 
ENDROOT
BRANCH   1  12
HETATM   12  C   UNK N   1      35.158  15.384  10.496  0.00  0.00     0.008 C 
HETATM   13  C   UNK N   1      34.257  15.592   9.518  0.00  0.00    -0.048 C 
HETATM   14  C   UNK N   1      34.202  16.926   8.871  0.00  0.00     0.071 C 
HETATM   15  C   UNK N   1      33.360  14.538   8.909  0.00  0.00    -0.033 C 
HETATM   16  C   UNK N   1      34.573  16.761   7.397  0.00  0.00     0.125 C 
HETATM   17  C   UNK N   1      34.014  15.473   6.731  0.00  0.00     0.068 C 
HETATM   18  C   UNK N   1      32.867  14.813   7.511  0.00  0.00     0.153 C 
HETATM   19  C   UNK N   1      33.148  13.333   9.457  0.00  0.00     0.022 C 
BRANCH  16  20
HETATM   20  O   UNK N   1      34.137  17.879   6.693  0.00  0.00    -0.395 OA
HETATM   21  H   UNK N   1      34.309  18.079   5.760  0.00  0.00     0.210 HD
ENDBRANCH  16  20
BRANCH  18  22
HETATM   22  O   UNK N   1      32.495  13.629   6.863  0.00  0.00    -0.391 OA
HETATM   23  H   UNK N   1      32.054  13.618   5.999  0.00  0.00     0.210 HD
ENDBRANCH  18  22
ENDBRANCH   1  12
BRANCH  10  24
HETATM   24  C   UNK N   1      34.454  10.453  15.651  0.00  0.00    -0.087 C 
HETATM   25  C   UNK N   1      34.539   9.806  16.646  0.00  0.00    -0.015 C 
BRANCH  25  26
HETATM   26  C   UNK N   1      34.468   9.338  17.950  0.00  0.00    -0.012 C 
HETATM   27  C   UNK N   1      34.105   9.035  19.048  0.00  0.00    -0.055 C 
BRANCH  27  28
HETATM   28  C   UNK N   1      33.456   8.861  20.331  0.00  0.00     0.114 C 
HETATM   29  C   UNK N   1      33.676  10.072  21.207  0.00  0.00     0.060 C 
HETATM   30  C   UNK N   1      31.978   8.647  20.084  0.00  0.00     0.060 C 
BRANCH  28  31
HETATM   31  O   UNK N   1      33.988   7.727  20.945  0.00  0.00    -0.378 OA
HETATM   32  H   UNK N   1      34.421   7.725  21.813  0.00  0.00     0.211 HD
ENDBRANCH  28  31
ENDBRANCH  27  28
ENDBRANCH  25  26
ENDBRANCH  10  24
TORSDOF 7
ENDMDL
MODEL 6
REMARK VINA RESULT:      -7.4     10.195     15.081
REMARK  7 active torsions:
REMARK  status: ('A' for Active; 'I' for Inactive)
REMARK    1  A    between atoms: C_2  and  O_11 
REMARK    2  A    between atoms: C_4  and  O_12 
REMARK    3  A    between atoms: C_7  and  C_8 
REMARK    4  A    between atoms: C_20  and  C_21 
REMARK    5  A    between atoms: C_22  and  C_23 
REMARK    6  A    between atoms: C_24  and  C_25 
REMARK    7  A    between atoms: C_25  and  O_27 
ROOT
HETATM    1  C   UNK N   1      35.894  13.141  12.102  0.00  0.00     0.004 C 
HETATM    2  C   UNK N   1      35.336  12.102  12.690  0.00  0.00    -0.075 C 
HETATM    3  C   UNK N   1      35.693  12.059  14.139  0.00  0.00     0.024 C 
HETATM    4  C   UNK N   1      35.053  10.949  14.912  0.00  0.00    -0.022 C 
HETATM    5  C   UNK N   1      35.285   9.608  14.209  0.00  0.00     0.011 C 
HETATM    6  C   UNK N   1      34.668   9.663  12.801  0.00  0.00     0.005 C 
HETATM    7  C   UNK N   1      35.306  10.775  11.959  0.00  0.00     0.034 C 
HETATM    8  C   UNK N   1      35.543  13.278  15.051  0.00  0.00     0.011 C 
HETATM    9  C   UNK N   1      35.687  12.670  16.463  0.00  0.00     0.019 C 
HETATM   10  C   UNK N   1      35.821  11.158  16.223  0.00  0.00     0.074 C 
HETATM   11  C   UNK N   1      33.532  11.176  15.078  0.00  0.00     0.017 C 
ENDROOT
BRANCH   1  12
HETATM   12  C   UNK N   1      36.510  13.144  10.789  0.00  0.00     0.008 C 
HETATM   13  C   UNK N   1      36.316  14.224  10.010  0.00  0.00    -0.048 C 
HETATM   14  C   UNK N   1      36.825  14.201   8.618  0.00  0.00     0.071 C 
HETATM   15  C   UNK N   1      35.498  15.441  10.381  0.00  0.00    -0.033 C 
HETATM   16  C   UNK N   1      35.631  14.294   7.668  0.00  0.00     0.125 C 
HETATM   17  C   UNK N   1      34.503  15.253   8.141  0.00  0.00     0.068 C 
HETATM   18  C   UNK N   1      34.940  16.241   9.232  0.00  0.00     0.153 C 
HETATM   19  C   UNK N   1      35.101  15.718  11.632  0.00  0.00     0.022 C 
BRANCH  16  20
HETATM   20  O   UNK N   1      36.083  14.687   6.411  0.00  0.00    -0.395 OA
HETATM   21  H   UNK N   1      35.815  15.481   5.922  0.00  0.00     0.210 HD
ENDBRANCH  16  20
BRANCH  18  22
HETATM   22  O   UNK N   1      33.834  16.999   9.633  0.00  0.00    -0.391 OA
HETATM   23  H   UNK N   1      33.045  17.113   9.079  0.00  0.00     0.210 HD
ENDBRANCH  18  22
ENDBRANCH   1  12
BRANCH  10  24
HETATM   24  C   UNK N   1      35.272  10.326  17.264  0.00  0.00    -0.087 C 
HETATM   25  C   UNK N   1      34.742   9.586  18.029  0.00  0.00    -0.015 C 
BRANCH  25  26
HETATM   26  C   UNK N   1      33.825   8.896  18.808  0.00  0.00    -0.012 C 
HETATM   27  C   UNK N   1      33.033   8.575  19.643  0.00  0.00    -0.055 C 
BRANCH  27  28
HETATM   28  C   UNK N   1      32.189   8.401  20.808  0.00  0.00     0.114 C 
HETATM   29  C   UNK N   1      32.138   9.674  21.622  0.00  0.00     0.060 C 
HETATM   30  C   UNK N   1      30.804   8.020  20.333  0.00  0.00     0.060 C 
BRANCH  28  31
HETATM   31  O   UNK N   1      32.712   7.365  21.582  0.00  0.00    -0.378 OA
HETATM   32  H   UNK N   1      33.641   7.293  21.849  0.00  0.00     0.211 HD
ENDBRANCH  28  31
ENDBRANCH  27  28
ENDBRANCH  25  26
ENDBRANCH  10  24
TORSDOF 7
ENDMDL
MODEL 7
REMARK VINA RESULT:      -7.2     11.969     13.188
REMARK  7 active torsions:
REMARK  status: ('A' for Active; 'I' for Inactive)
REMARK    1  A    between atoms: C_2  and  O_11 
REMARK    2  A    between atoms: C_4  and  O_12 
REMARK    3  A    between atoms: C_7  and  C_8 
REMARK    4  A    between atoms: C_20  and  C_21 
REMARK    5  A    between atoms: C_22  and  C_23 
REMARK    6  A    between atoms: C_24  and  C_25 
REMARK    7  A    between atoms: C_25  and  O_27 
ROOT
HETATM    1  C   UNK N   1      27.726  24.449  -5.416  0.00  0.00     0.004 C 
HETATM    2  C   UNK N   1      28.956  24.244  -4.988  0.00  0.00    -0.075 C 
HETATM    3  C   UNK N   1      29.332  22.806  -5.127  0.00  0.00     0.024 C 
HETATM    4  C   UNK N   1      30.738  22.482  -4.728  0.00  0.00    -0.022 C 
HETATM    5  C   UNK N   1      31.035  23.035  -3.332  0.00  0.00     0.011 C 
HETATM    6  C   UNK N   1      30.855  24.563  -3.345  0.00  0.00     0.005 C 
HETATM    7  C   UNK N   1      29.421  24.948  -3.730  0.00  0.00     0.034 C 
HETATM    8  C   UNK N   1      29.132  22.036  -6.433  0.00  0.00     0.011 C 
HETATM    9  C   UNK N   1      29.963  20.754  -6.206  0.00  0.00     0.019 C 
HETATM   10  C   UNK N   1      30.622  20.956  -4.832  0.00  0.00     0.074 C 
HETATM   11  C   UNK N   1      31.761  23.064  -5.731  0.00  0.00     0.017 C 
ENDROOT
BRANCH   1  12
HETATM   12  C   UNK N   1      26.737  25.299  -4.781  0.00  0.00     0.008 C 
HETATM   13  C   UNK N   1      26.571  26.540  -5.273  0.00  0.00    -0.048 C 
HETATM   14  C   UNK N   1      25.661  27.473  -4.566  0.00  0.00     0.071 C 
HETATM   15  C   UNK N   1      27.337  27.136  -6.434  0.00  0.00    -0.033 C 
HETATM   16  C   UNK N   1      26.488  28.652  -4.051  0.00  0.00     0.125 C 
HETATM   17  C   UNK N   1      27.604  29.130  -5.021  0.00  0.00     0.068 C 
HETATM   18  C   UNK N   1      27.428  28.641  -6.465  0.00  0.00     0.153 C 
HETATM   19  C   UNK N   1      28.071  26.412  -7.291  0.00  0.00     0.022 C 
BRANCH  16  20
HETATM   20  O   UNK N   1      25.633  29.712  -3.762  0.00  0.00    -0.395 OA
HETATM   21  H   UNK N   1      24.670  29.665  -3.656  0.00  0.00     0.210 HD
ENDBRANCH  16  20
BRANCH  18  22
HETATM   22  O   UNK N   1      28.522  29.065  -7.229  0.00  0.00    -0.391 OA
HETATM   23  H   UNK N   1      28.654  29.990  -7.491  0.00  0.00     0.210 HD
ENDBRANCH  18  22
ENDBRANCH   1  12
BRANCH  10  24
HETATM   24  C   UNK N   1      31.917  20.344  -4.682  0.00  0.00    -0.087 C 
HETATM   25  C   UNK N   1      32.929  19.724  -4.596  0.00  0.00    -0.015 C 
BRANCH  25  26
HETATM   26  C   UNK N   1      33.913  18.806  -4.261  0.00  0.00    -0.012 C 
HETATM   27  C   UNK N   1      34.663  17.876  -4.241  0.00  0.00    -0.055 C 
BRANCH  27  28
HETATM   28  C   UNK N   1      35.380  16.627  -4.397  0.00  0.00     0.114 C 
HETATM   29  C   UNK N   1      34.873  15.597  -3.414  0.00  0.00     0.060 C 
HETATM   30  C   UNK N   1      35.184  16.146  -5.818  0.00  0.00     0.060 C 
BRANCH  28  31
HETATM   31  O   UNK N   1      36.737  16.866  -4.176  0.00  0.00    -0.378 OA
HETATM   32  H   UNK N   1      37.258  16.458  -3.466  0.00  0.00     0.211 HD
ENDBRANCH  28  31
ENDBRANCH  27  28
ENDBRANCH  25  26
ENDBRANCH  10  24
TORSDOF 7
ENDMDL
MODEL 8
REMARK VINA RESULT:      -7.1     11.627     18.007
REMARK  7 active torsions:
REMARK  status: ('A' for Active; 'I' for Inactive)
REMARK    1  A    between atoms: C_2  and  O_11 
REMARK    2  A    between atoms: C_4  and  O_12 
REMARK    3  A    between atoms: C_7  and  C_8 
REMARK    4  A    between atoms: C_20  and  C_21 
REMARK    5  A    between atoms: C_22  and  C_23 
REMARK    6  A    between atoms: C_24  and  C_25 
REMARK    7  A    between atoms: C_25  and  O_27 
ROOT
HETATM    1  C   UNK N   1      34.845   9.387  19.586  0.00  0.00     0.004 C 
HETATM    2  C   UNK N   1      35.220   9.437  18.323  0.00  0.00    -0.075 C 
HETATM    3  C   UNK N   1      34.907  10.772  17.731  0.00  0.00     0.024 C 
HETATM    4  C   UNK N   1      35.355  10.952  16.314  0.00  0.00    -0.022 C 
HETATM    5  C   UNK N   1      34.856   9.792  15.448  0.00  0.00     0.011 C 
HETATM    6  C   UNK N   1      35.427   8.472  15.993  0.00  0.00     0.005 C 
HETATM    7  C   UNK N   1      34.980   8.230  17.439  0.00  0.00     0.034 C 
HETATM    8  C   UNK N   1      35.310  12.080  18.415  0.00  0.00     0.011 C 
HETATM    9  C   UNK N   1      35.101  13.128  17.300  0.00  0.00     0.019 C 
HETATM   10  C   UNK N   1      34.682  12.308  16.069  0.00  0.00     0.074 C 
HETATM   11  C   UNK N   1      36.897  11.033  16.212  0.00  0.00     0.017 C 
ENDROOT
BRANCH   1  12
HETATM   12  C   UNK N   1      34.198   8.264  20.235  0.00  0.00     0.008 C 
HETATM   13  C   UNK N   1      33.391   8.526  21.280  0.00  0.00    -0.048 C 
HETATM   14  C   UNK N   1      32.818   7.391  22.043  0.00  0.00     0.071 C 
HETATM   15  C   UNK N   1      33.105   9.899  21.848  0.00  0.00    -0.033 C 
HETATM   16  C   UNK N   1      33.359   7.451  23.472  0.00  0.00     0.125 C 
HETATM   17  C   UNK N   1      33.483   8.885  24.055  0.00  0.00     0.068 C 
HETATM   18  C   UNK N   1      32.673   9.943  23.292  0.00  0.00     0.153 C 
HETATM   19  C   UNK N   1      33.392  11.043  21.210  0.00  0.00     0.022 C 
BRANCH  16  20
HETATM   20  O   UNK N   1      32.545   6.679  24.296  0.00  0.00    -0.395 OA
HETATM   21  H   UNK N   1      32.597   6.612  25.262  0.00  0.00     0.210 HD
ENDBRANCH  16  20
BRANCH  18  22
HETATM   22  O   UNK N   1      32.918  11.202  23.854  0.00  0.00    -0.391 OA
HETATM   23  H   UNK N   1      33.734  11.414  24.334  0.00  0.00     0.210 HD
ENDBRANCH  18  22
ENDBRANCH   1  12
BRANCH  10  24
HETATM   24  C   UNK N   1      35.101  12.854  14.803  0.00  0.00    -0.087 C 
HETATM   25  C   UNK N   1      35.348  13.393  13.773  0.00  0.00    -0.015 C 
BRANCH  25  26
HETATM   26  C   UNK N   1      35.293  13.931  12.495  0.00  0.00    -0.012 C 
HETATM   27  C   UNK N   1      35.526  14.518  11.481  0.00  0.00    -0.055 C 
BRANCH  27  28
HETATM   28  C   UNK N   1      35.988  15.386  10.416  0.00  0.00     0.114 C 
HETATM   29  C   UNK N   1      36.262  14.589   9.162  0.00  0.00     0.060 C 
HETATM   30  C   UNK N   1      34.919  16.427  10.161  0.00  0.00     0.060 C 
BRANCH  28  31
HETATM   31  O   UNK N   1      37.156  16.021  10.839  0.00  0.00    -0.378 OA
HETATM   32  H   UNK N   1      37.180  16.848  11.345  0.00  0.00     0.211 HD
ENDBRANCH  28  31
ENDBRANCH  27  28
ENDBRANCH  25  26
ENDBRANCH  10  24
TORSDOF 7
ENDMDL
MODEL 9
REMARK VINA RESULT:      -7.0      3.746     11.979
REMARK  7 active torsions:
REMARK  status: ('A' for Active; 'I' for Inactive)
REMARK    1  A    between atoms: C_2  and  O_11 
REMARK    2  A    between atoms: C_4  and  O_12 
REMARK    3  A    between atoms: C_7  and  C_8 
REMARK    4  A    between atoms: C_20  and  C_21 
REMARK    5  A    between atoms: C_22  and  C_23 
REMARK    6  A    between atoms: C_24  and  C_25 
REMARK    7  A    between atoms: C_25  and  O_27 
ROOT
HETATM    1  C   UNK N   1      35.394  15.027   8.071  0.00  0.00     0.004 C 
HETATM    2  C   UNK N   1      34.722  15.320   6.975  0.00  0.00    -0.075 C 
HETATM    3  C   UNK N   1      33.375  15.869   7.311  0.00  0.00     0.024 C 
HETATM    4  C   UNK N   1      32.558  16.295   6.131  0.00  0.00    -0.022 C 
HETATM    5  C   UNK N   1      32.493  15.168   5.095  0.00  0.00     0.011 C 
HETATM    6  C   UNK N   1      33.919  14.832   4.625  0.00  0.00     0.005 C 
HETATM    7  C   UNK N   1      34.794  14.370   5.797  0.00  0.00     0.034 C 
HETATM    8  C   UNK N   1      33.187  17.003   8.319  0.00  0.00     0.011 C 
HETATM    9  C   UNK N   1      31.728  17.445   8.069  0.00  0.00     0.019 C 
HETATM   10  C   UNK N   1      31.256  16.580   6.890  0.00  0.00     0.074 C 
HETATM   11  C   UNK N   1      33.141  17.562   5.464  0.00  0.00     0.017 C 
ENDROOT
BRANCH   1  12
HETATM   12  C   UNK N   1      36.212  13.848   8.276  0.00  0.00     0.008 C 
HETATM   13  C   UNK N   1      35.992  13.120   9.387  0.00  0.00    -0.048 C 
HETATM   14  C   UNK N   1      36.897  11.984   9.687  0.00  0.00     0.071 C 
HETATM   15  C   UNK N   1      34.965  13.430  10.453  0.00  0.00    -0.033 C 
HETATM   16  C   UNK N   1      37.628  12.286  10.996  0.00  0.00     0.125 C 
HETATM   17  C   UNK N   1      36.755  12.981  12.077  0.00  0.00     0.068 C 
HETATM   18  C   UNK N   1      35.244  12.873  11.825  0.00  0.00     0.153 C 
HETATM   19  C   UNK N   1      33.960  14.303  10.287  0.00  0.00     0.022 C 
BRANCH  16  20
HETATM   20  O   UNK N   1      38.148  11.100  11.506  0.00  0.00    -0.395 OA
HETATM   21  H   UNK N   1      38.895  10.595  11.148  0.00  0.00     0.210 HD
ENDBRANCH  16  20
BRANCH  18  22
HETATM   22  O   UNK N   1      34.563  13.594  12.813  0.00  0.00    -0.391 OA
HETATM   23  H   UNK N   1      34.653  14.555  12.920  0.00  0.00     0.210 HD
ENDBRANCH  18  22
ENDBRANCH   1  12
BRANCH  10  24
HETATM   24  C   UNK N   1      30.296  17.209   6.020  0.00  0.00    -0.087 C 
HETATM   25  C   UNK N   1      29.547  17.844   5.348  0.00  0.00    -0.015 C 
BRANCH  25  26
HETATM   26  C   UNK N   1      28.562  18.707   4.889  0.00  0.00    -0.012 C 
HETATM   27  C   UNK N   1      27.591  19.394   4.783  0.00  0.00    -0.055 C 
BRANCH  27  28
HETATM   28  C   UNK N   1      26.310  20.065   4.868  0.00  0.00     0.114 C 
HETATM   29  C   UNK N   1      26.418  21.312   5.714  0.00  0.00     0.060 C 
HETATM   30  C   UNK N   1      25.867  20.414   3.463  0.00  0.00     0.060 C 
BRANCH  28  31
HETATM   31  O   UNK N   1      25.388  19.186   5.435  0.00  0.00    -0.378 OA
HETATM   32  H   UNK N   1      25.357  18.953   6.377  0.00  0.00     0.211 HD
ENDBRANCH  28  31
ENDBRANCH  27  28
ENDBRANCH  25  26
ENDBRANCH  10  24
TORSDOF 7
ENDMDL
