MODEL 1
REMARK VINA RESULT:      -7.4      0.000      0.000
REMARK  3 active torsions:
REMARK  status: ('A' for Active; 'I' for Inactive)
REMARK       I    between atoms: C_3  and  N_19 
REMARK    1  A    between atoms: C_5  and  N_22 
REMARK    2  A    between atoms: C_7  and  N_23 
REMARK    3  A    between atoms: C_7  and  C_24 
ROOT
HETATM    1  C   UNK N   1      32.998  17.563   3.805  0.00  0.00     0.001 C 
HETATM    2  C   UNK N   1      32.824  16.669   2.744  0.00  0.00     0.002 C 
HETATM    3  C   UNK N   1      33.306  15.362   2.865  0.00  0.00     0.023 C 
HETATM    4  C   UNK N   1      34.616  13.775   4.209  0.00  0.00     0.100 C 
HETATM    5  C   UNK N   1      33.570  15.708   5.221  0.00  0.00    -0.019 C 
HETATM    6  C   UNK N   1      33.356  17.072   5.055  0.00  0.00     0.010 C 
HETATM    7  C   UNK N   1      33.739  14.908   4.106  0.00  0.00     0.052 C 
HETATM    8  N   UNK N   1      35.328  12.871   4.331  0.00  0.00    -0.191 NA
ENDROOT
BRANCH   5   9
HETATM    9  C   UNK N   1      33.147  15.021   6.479  0.00  0.00     0.188 C 
BRANCH   9  10
HETATM   10  N   UNK N   1      32.394  15.864   7.411  0.00  0.00    -0.170 N 
HETATM   11  C   UNK N   1      31.158  16.392   7.333  0.00  0.00     0.165 A 
HETATM   12  C   UNK N   1      30.962  17.174   8.417  0.00  0.00     0.160 A 
HETATM   13  C   UNK N   1      30.171  16.304   6.355  0.00  0.00     0.282 C 
HETATM   14  N   UNK N   1      32.016  17.123   9.241  0.00  0.00    -0.174 N 
HETATM   15  N   UNK N   1      29.860  17.925   8.585  0.00  0.00    -0.287 N 
HETATM   16  C   UNK N   1      32.888  16.343   8.576  0.00  0.00     0.685 A 
ATOM     17  HN  UNK N   1      32.130  17.568  10.152  1.00  0.00     0.186 HD
HETATM   18  N   UNK N   1      34.196  16.122   9.015  0.00  0.00    -0.215 N 
HETATM   19  C   UNK N   1      34.457  15.943  10.420  0.00  0.00     0.141 C 
HETATM   20  C   UNK N   1      35.222  15.866   8.039  0.00  0.00     0.165 C 
HETATM   21  C   UNK N   1      35.887  15.448  10.649  0.00  0.00     0.022 C 
HETATM   22  C   UNK N   1      36.461  14.561   9.508  0.00  0.00     0.028 C 
HETATM   23  C   UNK N   1      35.630  14.436   8.219  0.00  0.00     0.092 C 
HETATM   24  C   UNK N   1      28.954  17.991   7.543  0.00  0.00     0.332 C 
HETATM   25  C   UNK N   1      29.687  18.688   9.812  0.00  0.00     0.163 C 
HETATM   26  N   UNK N   1      29.131  17.203   6.413  0.00  0.00    -0.269 N 
HETATM   27  O   UNK N   1      27.995  18.740   7.619  0.00  0.00    -0.246 OA
HETATM   28  C   UNK N   1      28.246  17.349   5.260  0.00  0.00     0.164 C 
HETATM   29  O   UNK N   1      30.231  15.487   5.451  0.00  0.00    -0.265 OA
BRANCH  23  30
HETATM   30  N   UNK N   1      36.408  13.617   7.316  0.00  0.00    -0.424 N 
HETATM   31  H   UNK N   1      36.311  12.601   7.314  0.00  0.00     0.150 HD
HETATM   32  H   UNK N   1      37.063  14.060   6.671  0.00  0.00     0.150 HD
ENDBRANCH  23  30
ENDBRANCH   9  10
ENDBRANCH   5   9
TORSDOF 3
ENDMDL
MODEL 2
REMARK VINA RESULT:      -7.3      9.341     11.302
REMARK  3 active torsions:
REMARK  status: ('A' for Active; 'I' for Inactive)
REMARK       I    between atoms: C_3  and  N_19 
REMARK    1  A    between atoms: C_5  and  N_22 
REMARK    2  A    between atoms: C_7  and  N_23 
REMARK    3  A    between atoms: C_7  and  C_24 
ROOT
HETATM    1  C   UNK N   1      25.117  12.926  10.084  0.00  0.00     0.001 C 
HETATM    2  C   UNK N   1      24.645  11.927  10.942  0.00  0.00     0.002 C 
HETATM    3  C   UNK N   1      23.266  11.745  11.086  0.00  0.00     0.023 C 
HETATM    4  C   UNK N   1      21.019  12.594  10.563  0.00  0.00     0.100 C 
HETATM    5  C   UNK N   1      22.912  13.105   9.145  0.00  0.00    -0.019 C 
HETATM    6  C   UNK N   1      24.245  13.503   9.168  0.00  0.00     0.010 C 
HETATM    7  C   UNK N   1      22.399  12.394  10.214  0.00  0.00     0.052 C 
HETATM    8  N   UNK N   1      19.905  12.779  10.812  0.00  0.00    -0.191 NA
ENDROOT
BRANCH   5   9
HETATM    9  C   UNK N   1      22.178  12.986   7.849  0.00  0.00     0.188 C 
BRANCH   9  10
HETATM   10  N   UNK N   1      22.429  14.077   6.903  0.00  0.00    -0.170 N 
HETATM   11  C   UNK N   1      22.045  15.368   6.913  0.00  0.00     0.165 A 
HETATM   12  C   UNK N   1      22.458  15.941   5.762  0.00  0.00     0.160 A 
HETATM   13  C   UNK N   1      21.298  16.109   7.826  0.00  0.00     0.282 C 
HETATM   14  N   UNK N   1      23.162  15.076   5.022  0.00  0.00    -0.174 N 
HETATM   15  N   UNK N   1      22.143  17.203   5.421  0.00  0.00    -0.287 N 
HETATM   16  C   UNK N   1      23.091  13.936   5.733  0.00  0.00     0.685 A 
ATOM     17  HN  UNK N   1      23.637  15.241   4.134  1.00  0.00     0.186 HD
HETATM   18  N   UNK N   1      23.587  12.716   5.263  0.00  0.00    -0.215 N 
HETATM   19  C   UNK N   1      24.829  12.683   4.535  0.00  0.00     0.141 C 
HETATM   20  C   UNK N   1      22.957  11.497   5.698  0.00  0.00     0.165 C 
HETATM   21  C   UNK N   1      25.317  11.243   4.358  0.00  0.00     0.022 C 
HETATM   22  C   UNK N   1      24.922  10.273   5.508  0.00  0.00     0.028 C 
HETATM   23  C   UNK N   1      23.948  10.799   6.577  0.00  0.00     0.092 C 
HETATM   24  C   UNK N   1      21.255  17.891   6.226  0.00  0.00     0.332 C 
HETATM   25  C   UNK N   1      22.684  17.775   4.197  0.00  0.00     0.163 C 
HETATM   26  N   UNK N   1      20.807  17.325   7.414  0.00  0.00    -0.269 N 
HETATM   27  O   UNK N   1      20.867  18.999   5.895  0.00  0.00    -0.246 OA
HETATM   28  C   UNK N   1      19.783  17.992   8.214  0.00  0.00     0.164 C 
HETATM   29  O   UNK N   1      21.050  15.689   8.945  0.00  0.00    -0.265 OA
BRANCH  23  30
HETATM   30  N   UNK N   1      23.707   9.695   7.480  0.00  0.00    -0.424 N 
HETATM   31  H   UNK N   1      24.481   9.154   7.865  0.00  0.00     0.150 HD
HETATM   32  H   UNK N   1      22.749   9.454   7.736  0.00  0.00     0.150 HD
ENDBRANCH  23  30
ENDBRANCH   9  10
ENDBRANCH   5   9
TORSDOF 3
ENDMDL
MODEL 3
REMARK VINA RESULT:      -7.1      2.971      7.190
REMARK  3 active torsions:
REMARK  status: ('A' for Active; 'I' for Inactive)
REMARK       I    between atoms: C_3  and  N_19 
REMARK    1  A    between atoms: C_5  and  N_22 
REMARK    2  A    between atoms: C_7  and  N_23 
REMARK    3  A    between atoms: C_7  and  C_24 
ROOT
HETATM    1  C   UNK N   1      33.359  17.280   5.591  0.00  0.00     0.001 C 
HETATM    2  C   UNK N   1      33.856  17.182   6.895  0.00  0.00     0.002 C 
HETATM    3  C   UNK N   1      33.000  17.426   7.973  0.00  0.00     0.023 C 
HETATM    4  C   UNK N   1      30.779  18.192   8.695  0.00  0.00     0.100 C 
HETATM    5  C   UNK N   1      31.128  17.276   6.483  0.00  0.00    -0.019 C 
HETATM    6  C   UNK N   1      31.984  17.309   5.388  0.00  0.00     0.010 C 
HETATM    7  C   UNK N   1      31.632  17.535   7.745  0.00  0.00     0.052 C 
HETATM    8  N   UNK N   1      30.062  18.720   9.434  0.00  0.00    -0.191 NA
ENDROOT
BRANCH   5   9
HETATM    9  C   UNK N   1      29.843  16.517   6.419  0.00  0.00     0.188 C 
BRANCH   9  10
HETATM   10  N   UNK N   1      29.656  15.737   5.193  0.00  0.00    -0.170 N 
HETATM   11  C   UNK N   1      30.257  14.615   4.752  0.00  0.00     0.165 A 
HETATM   12  C   UNK N   1      29.791  14.345   3.514  0.00  0.00     0.160 A 
HETATM   13  C   UNK N   1      31.243  13.808   5.313  0.00  0.00     0.282 C 
HETATM   14  N   UNK N   1      28.849  15.225   3.153  0.00  0.00    -0.174 N 
HETATM   15  N   UNK N   1      30.270  13.342   2.757  0.00  0.00    -0.287 N 
HETATM   16  C   UNK N   1      28.819  16.083   4.188  0.00  0.00     0.685 A 
ATOM     17  HN  UNK N   1      28.289  15.240   2.300  1.00  0.00     0.186 HD
HETATM   18  N   UNK N   1      28.057  17.255   4.181  0.00  0.00    -0.215 N 
HETATM   19  C   UNK N   1      26.737  17.244   3.604  0.00  0.00     0.141 C 
HETATM   20  C   UNK N   1      28.519  18.388   4.938  0.00  0.00     0.165 C 
HETATM   21  C   UNK N   1      25.985  18.533   3.944  0.00  0.00     0.022 C 
HETATM   22  C   UNK N   1      26.363  19.169   5.312  0.00  0.00     0.028 C 
HETATM   23  C   UNK N   1      27.556  18.562   6.071  0.00  0.00     0.092 C 
HETATM   24  C   UNK N   1      31.370  12.646   3.222  0.00  0.00     0.332 C 
HETATM   25  C   UNK N   1      29.670  13.067   1.460  0.00  0.00     0.163 C 
HETATM   26  N   UNK N   1      31.876  12.906   4.490  0.00  0.00    -0.269 N 
HETATM   27  O   UNK N   1      31.894  11.798   2.519  0.00  0.00    -0.246 OA
HETATM   28  C   UNK N   1      33.103  12.260   4.946  0.00  0.00     0.164 C 
HETATM   29  O   UNK N   1      31.570  13.911   6.484  0.00  0.00    -0.265 OA
BRANCH  23  30
HETATM   30  N   UNK N   1      27.726  19.364   7.262  0.00  0.00    -0.424 N 
HETATM   31  H   UNK N   1      27.952  18.932   8.158  0.00  0.00     0.150 HD
HETATM   32  H   UNK N   1      27.617  20.378   7.206  0.00  0.00     0.150 HD
ENDBRANCH  23  30
ENDBRANCH   9  10
ENDBRANCH   5   9
TORSDOF 3
ENDMDL
MODEL 4
REMARK VINA RESULT:      -7.1      2.225      5.358
REMARK  3 active torsions:
REMARK  status: ('A' for Active; 'I' for Inactive)
REMARK       I    between atoms: C_3  and  N_19 
REMARK    1  A    between atoms: C_5  and  N_22 
REMARK    2  A    between atoms: C_7  and  N_23 
REMARK    3  A    between atoms: C_7  and  C_24 
ROOT
HETATM    1  C   UNK N   1      32.775  17.704   3.942  0.00  0.00     0.001 C 
HETATM    2  C   UNK N   1      32.105  17.062   2.895  0.00  0.00     0.002 C 
HETATM    3  C   UNK N   1      32.049  15.665   2.875  0.00  0.00     0.023 C 
HETATM    4  C   UNK N   1      32.821  13.566   3.895  0.00  0.00     0.100 C 
HETATM    5  C   UNK N   1      32.782  15.631   5.156  0.00  0.00    -0.019 C 
HETATM    6  C   UNK N   1      33.097  16.984   5.086  0.00  0.00     0.010 C 
HETATM    7  C   UNK N   1      32.453  14.951   3.998  0.00  0.00     0.052 C 
HETATM    8  N   UNK N   1      33.132  12.453   3.849  0.00  0.00    -0.191 NA
ENDROOT
BRANCH   5   9
HETATM    9  C   UNK N   1      32.321  15.025   6.441  0.00  0.00     0.188 C 
BRANCH   9  10
HETATM   10  N   UNK N   1      33.039  15.493   7.630  0.00  0.00    -0.170 N 
HETATM   11  C   UNK N   1      34.253  15.176   8.118  0.00  0.00     0.165 A 
HETATM   12  C   UNK N   1      34.416  15.817   9.295  0.00  0.00     0.160 A 
HETATM   13  C   UNK N   1      35.243  14.313   7.656  0.00  0.00     0.282 C 
HETATM   14  N   UNK N   1      33.365  16.601   9.564  0.00  0.00    -0.174 N 
HETATM   15  N   UNK N   1      35.488  15.629  10.086  0.00  0.00    -0.287 N 
HETATM   16  C   UNK N   1      32.526  16.349   8.543  0.00  0.00     0.685 A 
ATOM     17  HN  UNK N   1      33.233  17.236  10.351  1.00  0.00     0.186 HD
HETATM   18  N   UNK N   1      31.228  16.862   8.484  0.00  0.00    -0.215 N 
HETATM   19  C   UNK N   1      30.974  18.213   8.915  0.00  0.00     0.141 C 
HETATM   20  C   UNK N   1      30.213  16.107   7.797  0.00  0.00     0.165 C 
HETATM   21  C   UNK N   1      29.564  18.656   8.513  0.00  0.00     0.022 C 
HETATM   22  C   UNK N   1      29.027  18.014   7.203  0.00  0.00     0.028 C 
HETATM   23  C   UNK N   1      29.863  16.889   6.568  0.00  0.00     0.092 C 
HETATM   24  C   UNK N   1      36.391  14.643   9.732  0.00  0.00     0.332 C 
HETATM   25  C   UNK N   1      35.629  16.408  11.306  0.00  0.00     0.163 C 
HETATM   26  N   UNK N   1      36.246  13.962   8.530  0.00  0.00    -0.269 N 
HETATM   27  O   UNK N   1      37.319  14.375  10.476  0.00  0.00    -0.246 OA
HETATM   28  C   UNK N   1      37.124  12.844   8.200  0.00  0.00     0.164 C 
HETATM   29  O   UNK N   1      35.216  13.847   6.528  0.00  0.00    -0.265 OA
BRANCH  23  30
HETATM   30  N   UNK N   1      29.119  16.437   5.413  0.00  0.00    -0.424 N 
HETATM   31  H   UNK N   1      28.814  17.095   4.695  0.00  0.00     0.150 HD
HETATM   32  H   UNK N   1      28.895  15.446   5.315  0.00  0.00     0.150 HD
ENDBRANCH  23  30
ENDBRANCH   9  10
ENDBRANCH   5   9
TORSDOF 3
ENDMDL
MODEL 5
REMARK VINA RESULT:      -7.1      3.142      7.631
REMARK  3 active torsions:
REMARK  status: ('A' for Active; 'I' for Inactive)
REMARK       I    between atoms: C_3  and  N_19 
REMARK    1  A    between atoms: C_5  and  N_22 
REMARK    2  A    between atoms: C_7  and  N_23 
REMARK    3  A    between atoms: C_7  and  C_24 
ROOT
HETATM    1  C   UNK N   1      27.798  17.110   8.750  0.00  0.00     0.001 C 
HETATM    2  C   UNK N   1      28.453  18.000   9.606  0.00  0.00     0.002 C 
HETATM    3  C   UNK N   1      29.791  18.325   9.362  0.00  0.00     0.023 C 
HETATM    4  C   UNK N   1      31.803  17.864   8.027  0.00  0.00     0.100 C 
HETATM    5  C   UNK N   1      29.593  17.369   7.173  0.00  0.00    -0.019 C 
HETATM    6  C   UNK N   1      28.367  16.810   7.517  0.00  0.00     0.010 C 
HETATM    7  C   UNK N   1      30.374  17.947   8.157  0.00  0.00     0.052 C 
HETATM    8  N   UNK N   1      32.948  17.780   7.886  0.00  0.00    -0.191 NA
ENDROOT
BRANCH   5   9
HETATM    9  C   UNK N   1      29.865  17.796   5.768  0.00  0.00     0.188 C 
BRANCH   9  10
HETATM   10  N   UNK N   1      29.472  16.821   4.747  0.00  0.00    -0.170 N 
HETATM   11  C   UNK N   1      30.059  15.682   4.332  0.00  0.00     0.165 A 
HETATM   12  C   UNK N   1      29.344  15.191   3.297  0.00  0.00     0.160 A 
HETATM   13  C   UNK N   1      31.223  15.035   4.738  0.00  0.00     0.282 C 
HETATM   14  N   UNK N   1      28.262  15.943   3.061  0.00  0.00    -0.174 N 
HETATM   15  N   UNK N   1      29.727  14.111   2.593  0.00  0.00    -0.287 N 
HETATM   16  C   UNK N   1      28.393  16.952   3.941  0.00  0.00     0.685 A 
ATOM     17  HN  UNK N   1      27.519  15.789   2.380  1.00  0.00     0.186 HD
HETATM   18  N   UNK N   1      27.540  18.059   3.960  0.00  0.00    -0.215 N 
HETATM   19  C   UNK N   1      26.129  17.876   3.734  0.00  0.00     0.141 C 
HETATM   20  C   UNK N   1      28.054  19.324   4.413  0.00  0.00     0.165 C 
HETATM   21  C   UNK N   1      25.356  19.155   4.066  0.00  0.00     0.022 C 
HETATM   22  C   UNK N   1      25.981  20.022   5.195  0.00  0.00     0.028 C 
HETATM   23  C   UNK N   1      27.372  19.616   5.714  0.00  0.00     0.092 C 
HETATM   24  C   UNK N   1      30.969  13.566   2.864  0.00  0.00     0.332 C 
HETATM   25  C   UNK N   1      28.869  13.597   1.536  0.00  0.00     0.163 C 
HETATM   26  N   UNK N   1      31.730  14.054   3.919  0.00  0.00    -0.269 N 
HETATM   27  O   UNK N   1      31.393  12.651   2.179  0.00  0.00    -0.246 OA
HETATM   28  C   UNK N   1      33.087  13.565   4.143  0.00  0.00     0.164 C 
HETATM   29  O   UNK N   1      31.804  15.343   5.766  0.00  0.00    -0.265 OA
BRANCH  23  30
HETATM   30  N   UNK N   1      27.738  20.607   6.702  0.00  0.00    -0.424 N 
HETATM   31  H   UNK N   1      27.489  21.589   6.578  0.00  0.00     0.150 HD
HETATM   32  H   UNK N   1      28.253  20.321   7.535  0.00  0.00     0.150 HD
ENDBRANCH  23  30
ENDBRANCH   9  10
ENDBRANCH   5   9
TORSDOF 3
ENDMDL
MODEL 6
REMARK VINA RESULT:      -7.1      3.518      6.804
REMARK  3 active torsions:
REMARK  status: ('A' for Active; 'I' for Inactive)
REMARK       I    between atoms: C_3  and  N_19 
REMARK    1  A    between atoms: C_5  and  N_22 
REMARK    2  A    between atoms: C_7  and  N_23 
REMARK    3  A    between atoms: C_7  and  C_24 
ROOT
HETATM    1  C   UNK N   1      31.443  15.586   8.062  0.00  0.00     0.001 C 
HETATM    2  C   UNK N   1      31.431  16.650   7.154  0.00  0.00     0.002 C 
HETATM    3  C   UNK N   1      32.493  17.558   7.150  0.00  0.00     0.023 C 
HETATM    4  C   UNK N   1      34.555  18.308   8.258  0.00  0.00     0.100 C 
HETATM    5  C   UNK N   1      33.765  16.032   8.491  0.00  0.00    -0.019 C 
HETATM    6  C   UNK N   1      32.626  15.268   8.719  0.00  0.00     0.010 C 
HETATM    7  C   UNK N   1      33.642  17.266   7.879  0.00  0.00     0.052 C 
HETATM    8  N   UNK N   1      35.310  19.120   8.588  0.00  0.00    -0.191 NA
ENDROOT
BRANCH   5   9
HETATM    9  C   UNK N   1      35.112  15.388   8.430  0.00  0.00     0.188 C 
BRANCH   9  10
HETATM   10  N   UNK N   1      35.210  14.112   9.143  0.00  0.00    -0.170 N 
HETATM   11  C   UNK N   1      35.384  13.834  10.449  0.00  0.00     0.165 A 
HETATM   12  C   UNK N   1      35.501  12.495  10.584  0.00  0.00     0.160 A 
HETATM   13  C   UNK N   1      35.512  14.656  11.565  0.00  0.00     0.282 C 
HETATM   14  N   UNK N   1      35.343  11.878   9.407  0.00  0.00    -0.174 N 
HETATM   15  N   UNK N   1      35.785  11.902  11.757  0.00  0.00    -0.287 N 
HETATM   16  C   UNK N   1      35.206  12.900   8.542  0.00  0.00     0.685 A 
ATOM     17  HN  UNK N   1      35.330  10.877   9.212  1.00  0.00     0.186 HD
HETATM   18  N   UNK N   1      35.144  12.719   7.157  0.00  0.00    -0.215 N 
HETATM   19  C   UNK N   1      34.410  11.605   6.615  0.00  0.00     0.141 C 
HETATM   20  C   UNK N   1      35.634  13.765   6.299  0.00  0.00     0.165 C 
HETATM   21  C   UNK N   1      34.243  11.751   5.100  0.00  0.00     0.022 C 
HETATM   22  C   UNK N   1      34.159  13.217   4.590  0.00  0.00     0.028 C 
HETATM   23  C   UNK N   1      34.437  14.339   5.606  0.00  0.00     0.092 C 
HETATM   24  C   UNK N   1      36.094  12.711  12.835  0.00  0.00     0.332 C 
HETATM   25  C   UNK N   1      35.825  10.450  11.841  0.00  0.00     0.163 C 
HETATM   26  N   UNK N   1      35.989  14.091  12.725  0.00  0.00    -0.269 N 
HETATM   27  O   UNK N   1      36.455  12.209  13.887  0.00  0.00    -0.246 OA
HETATM   28  C   UNK N   1      36.421  14.958  13.817  0.00  0.00     0.164 C 
HETATM   29  O   UNK N   1      35.248  15.846  11.520  0.00  0.00    -0.265 OA
BRANCH  23  30
HETATM   30  N   UNK N   1      34.352  15.581   4.868  0.00  0.00    -0.424 N 
HETATM   31  H   UNK N   1      33.764  15.658   4.038  0.00  0.00     0.150 HD
HETATM   32  H   UNK N   1      34.888  16.390   5.182  0.00  0.00     0.150 HD
ENDBRANCH  23  30
ENDBRANCH   9  10
ENDBRANCH   5   9
TORSDOF 3
ENDMDL
MODEL 7
REMARK VINA RESULT:      -7.0      8.626     11.176
REMARK  3 active torsions:
REMARK  status: ('A' for Active; 'I' for Inactive)
REMARK       I    between atoms: C_3  and  N_19 
REMARK    1  A    between atoms: C_5  and  N_22 
REMARK    2  A    between atoms: C_7  and  N_23 
REMARK    3  A    between atoms: C_7  and  C_24 
ROOT
HETATM    1  C   UNK N   1      21.921  14.879   1.208  0.00  0.00     0.001 C 
HETATM    2  C   UNK N   1      20.596  15.167   0.862  0.00  0.00     0.002 C 
HETATM    3  C   UNK N   1      19.578  14.914   1.785  0.00  0.00     0.023 C 
HETATM    4  C   UNK N   1      18.974  13.930   3.956  0.00  0.00     0.100 C 
HETATM    5  C   UNK N   1      21.233  14.670   3.501  0.00  0.00    -0.019 C 
HETATM    6  C   UNK N   1      22.239  14.649   2.542  0.00  0.00     0.010 C 
HETATM    7  C   UNK N   1      19.911  14.602   3.099  0.00  0.00     0.052 C 
HETATM    8  N   UNK N   1      18.249  13.383   4.672  0.00  0.00    -0.191 NA
ENDROOT
BRANCH   5   9
HETATM    9  C   UNK N   1      21.490  15.241   4.858  0.00  0.00     0.188 C 
BRANCH   9  10
HETATM   10  N   UNK N   1      22.501  16.301   4.892  0.00  0.00    -0.170 N 
HETATM   11  C   UNK N   1      22.493  17.554   4.401  0.00  0.00     0.165 A 
HETATM   12  C   UNK N   1      23.709  18.101   4.615  0.00  0.00     0.160 A 
HETATM   13  C   UNK N   1      21.521  18.276   3.712  0.00  0.00     0.282 C 
HETATM   14  N   UNK N   1      24.499  17.261   5.294  0.00  0.00    -0.174 N 
HETATM   15  N   UNK N   1      24.056  19.314   4.151  0.00  0.00    -0.287 N 
HETATM   16  C   UNK N   1      23.741  16.156   5.413  0.00  0.00     0.685 A 
ATOM     17  HN  UNK N   1      25.446  17.420   5.639  1.00  0.00     0.186 HD
HETATM   18  N   UNK N   1      24.223  14.959   5.951  0.00  0.00    -0.215 N 
HETATM   19  C   UNK N   1      25.102  14.991   7.091  0.00  0.00     0.141 C 
HETATM   20  C   UNK N   1      23.663  13.716   5.489  0.00  0.00     0.165 C 
HETATM   21  C   UNK N   1      25.284  13.589   7.677  0.00  0.00     0.022 C 
HETATM   22  C   UNK N   1      24.056  12.649   7.515  0.00  0.00     0.028 C 
HETATM   23  C   UNK N   1      22.892  13.146   6.640  0.00  0.00     0.092 C 
HETATM   24  C   UNK N   1      23.171  19.967   3.313  0.00  0.00     0.332 C 
HETATM   25  C   UNK N   1      25.361  19.867   4.482  0.00  0.00     0.163 C 
HETATM   26  N   UNK N   1      21.914  19.427   3.069  0.00  0.00    -0.269 N 
HETATM   27  O   UNK N   1      23.493  21.021   2.792  0.00  0.00    -0.246 OA
HETATM   28  C   UNK N   1      21.016  20.046   2.098  0.00  0.00     0.164 C 
HETATM   29  O   UNK N   1      20.365  17.894   3.644  0.00  0.00    -0.265 OA
BRANCH  23  30
HETATM   30  N   UNK N   1      21.923  12.073   6.611  0.00  0.00    -0.424 N 
HETATM   31  H   UNK N   1      22.172  11.133   6.921  0.00  0.00     0.150 HD
HETATM   32  H   UNK N   1      20.977  12.257   6.275  0.00  0.00     0.150 HD
ENDBRANCH  23  30
ENDBRANCH   9  10
ENDBRANCH   5   9
TORSDOF 3
ENDMDL
MODEL 8
REMARK VINA RESULT:      -7.0      3.434      6.788
REMARK  3 active torsions:
REMARK  status: ('A' for Active; 'I' for Inactive)
REMARK       I    between atoms: C_3  and  N_19 
REMARK    1  A    between atoms: C_5  and  N_22 
REMARK    2  A    between atoms: C_7  and  N_23 
REMARK    3  A    between atoms: C_7  and  C_24 
ROOT
HETATM    1  C   UNK N   1      28.055  20.167   4.606  0.00  0.00     0.001 C 
HETATM    2  C   UNK N   1      26.771  20.584   4.974  0.00  0.00     0.002 C 
HETATM    3  C   UNK N   1      25.741  19.642   5.049  0.00  0.00     0.023 C 
HETATM    4  C   UNK N   1      25.049  17.321   4.628  0.00  0.00     0.100 C 
HETATM    5  C   UNK N   1      27.376  17.891   4.972  0.00  0.00    -0.019 C 
HETATM    6  C   UNK N   1      28.359  18.811   4.625  0.00  0.00     0.010 C 
HETATM    7  C   UNK N   1      26.051  18.288   4.984  0.00  0.00     0.052 C 
HETATM    8  N   UNK N   1      24.272  16.515   4.339  0.00  0.00    -0.191 NA
ENDROOT
BRANCH   5   9
HETATM    9  C   UNK N   1      27.719  16.683   5.781  0.00  0.00     0.188 C 
BRANCH   9  10
HETATM   10  N   UNK N   1      28.968  16.023   5.393  0.00  0.00    -0.170 N 
HETATM   11  C   UNK N   1      29.261  15.212   4.359  0.00  0.00     0.165 A 
HETATM   12  C   UNK N   1      30.537  14.793   4.498  0.00  0.00     0.160 A 
HETATM   13  C   UNK N   1      28.489  14.739   3.301  0.00  0.00     0.282 C 
HETATM   14  N   UNK N   1      31.114  15.359   5.565  0.00  0.00    -0.174 N 
HETATM   15  N   UNK N   1      31.102  13.889   3.679  0.00  0.00    -0.287 N 
HETATM   16  C   UNK N   1      30.114  16.075   6.110  0.00  0.00     0.685 A 
ATOM     17  HN  UNK N   1      32.078  15.270   5.886  1.00  0.00     0.186 HD
HETATM   18  N   UNK N   1      30.234  16.738   7.334  0.00  0.00    -0.215 N 
HETATM   19  C   UNK N   1      31.464  17.413   7.663  0.00  0.00     0.141 C 
HETATM   20  C   UNK N   1      29.060  16.913   8.147  0.00  0.00     0.165 C 
HETATM   21  C   UNK N   1      31.287  18.289   8.905  0.00  0.00     0.022 C 
HETATM   22  C   UNK N   1      29.860  18.879   9.092  0.00  0.00     0.028 C 
HETATM   23  C   UNK N   1      28.757  18.380   8.143  0.00  0.00     0.092 C 
HETATM   24  C   UNK N   1      30.298  13.274   2.737  0.00  0.00     0.332 C 
HETATM   25  C   UNK N   1      32.504  13.539   3.848  0.00  0.00     0.163 C 
HETATM   26  N   UNK N   1      28.979  13.680   2.574  0.00  0.00    -0.269 N 
HETATM   27  O   UNK N   1      30.750  12.378   2.045  0.00  0.00    -0.246 OA
HETATM   28  C   UNK N   1      28.090  12.963   1.664  0.00  0.00     0.164 C 
HETATM   29  O   UNK N   1      27.396  15.215   3.039  0.00  0.00    -0.265 OA
BRANCH  23  30
HETATM   30  N   UNK N   1      27.537  19.033   8.564  0.00  0.00    -0.424 N 
HETATM   31  H   UNK N   1      26.795  18.509   9.028  0.00  0.00     0.150 HD
HETATM   32  H   UNK N   1      27.417  20.032   8.396  0.00  0.00     0.150 HD
ENDBRANCH  23  30
ENDBRANCH   9  10
ENDBRANCH   5   9
TORSDOF 3
ENDMDL
MODEL 9
REMARK VINA RESULT:      -7.0      3.214      7.733
REMARK  3 active torsions:
REMARK  status: ('A' for Active; 'I' for Inactive)
REMARK       I    between atoms: C_3  and  N_19 
REMARK    1  A    between atoms: C_5  and  N_22 
REMARK    2  A    between atoms: C_7  and  N_23 
REMARK    3  A    between atoms: C_7  and  C_24 
ROOT
HETATM    1  C   UNK N   1      28.184  20.177   4.793  0.00  0.00     0.001 C 
HETATM    2  C   UNK N   1      27.130  20.870   5.395  0.00  0.00     0.002 C 
HETATM    3  C   UNK N   1      25.856  20.295   5.415  0.00  0.00     0.023 C 
HETATM    4  C   UNK N   1      24.425  18.452   4.639  0.00  0.00     0.100 C 
HETATM    5  C   UNK N   1      26.826  18.194   4.790  0.00  0.00    -0.019 C 
HETATM    6  C   UNK N   1      28.033  18.825   4.508  0.00  0.00     0.010 C 
HETATM    7  C   UNK N   1      25.705  18.962   5.047  0.00  0.00     0.052 C 
HETATM    8  N   UNK N   1      23.412  18.009   4.299  0.00  0.00    -0.191 NA
ENDROOT
BRANCH   5   9
HETATM    9  C   UNK N   1      26.805  16.789   5.298  0.00  0.00     0.188 C 
BRANCH   9  10
HETATM   10  N   UNK N   1      28.126  16.222   5.579  0.00  0.00    -0.170 N 
HETATM   11  C   UNK N   1      29.022  16.492   6.547  0.00  0.00     0.165 A 
HETATM   12  C   UNK N   1      30.131  15.756   6.314  0.00  0.00     0.160 A 
HETATM   13  C   UNK N   1      28.995  17.383   7.616  0.00  0.00     0.282 C 
HETATM   14  N   UNK N   1      29.963  14.959   5.252  0.00  0.00    -0.174 N 
HETATM   15  N   UNK N   1      31.252  15.873   7.047  0.00  0.00    -0.287 N 
HETATM   16  C   UNK N   1      28.740  15.298   4.804  0.00  0.00     0.685 A 
ATOM     17  HN  UNK N   1      30.606  14.263   4.873  1.00  0.00     0.186 HD
HETATM   18  N   UNK N   1      28.201  14.798   3.616  0.00  0.00    -0.215 N 
HETATM   19  C   UNK N   1      28.413  13.419   3.260  0.00  0.00     0.141 C 
HETATM   20  C   UNK N   1      27.271  15.612   2.879  0.00  0.00     0.165 C 
HETATM   21  C   UNK N   1      27.522  13.018   2.082  0.00  0.00     0.022 C 
HETATM   22  C   UNK N   1      26.161  13.767   2.008  0.00  0.00     0.028 C 
HETATM   23  C   UNK N   1      25.939  14.935   2.986  0.00  0.00     0.092 C 
HETATM   24  C   UNK N   1      31.306  16.879   7.995  0.00  0.00     0.332 C 
HETATM   25  C   UNK N   1      32.382  14.997   6.782  0.00  0.00     0.163 C 
HETATM   26  N   UNK N   1      30.183  17.656   8.252  0.00  0.00    -0.269 N 
HETATM   27  O   UNK N   1      32.340  17.080   8.608  0.00  0.00    -0.246 OA
HETATM   28  C   UNK N   1      30.261  18.792   9.166  0.00  0.00     0.164 C 
HETATM   29  O   UNK N   1      27.966  17.939   7.964  0.00  0.00    -0.265 OA
BRANCH  23  30
HETATM   30  N   UNK N   1      24.639  15.483   2.669  0.00  0.00    -0.424 N 
HETATM   31  H   UNK N   1      24.388  15.718   1.709  0.00  0.00     0.150 HD
HETATM   32  H   UNK N   1      23.963  15.639   3.418  0.00  0.00     0.150 HD
ENDBRANCH  23  30
ENDBRANCH   9  10
ENDBRANCH   5   9
TORSDOF 3
ENDMDL
