MODEL 1
REMARK VINA RESULT:      -5.9      0.000      0.000
REMARK  1 active torsions:
REMARK  status: ('A' for Active; 'I' for Inactive)
REMARK    1  A    between atoms: O_16  and  C_14 
ROOT
HETATM    1  O   UNK N   1      27.834  17.154   7.936  0.00  0.00    -0.268 OA
HETATM    2  C   UNK N   1      28.741  17.183   7.121  0.00  0.00     0.250 A 
HETATM    3  N   UNK N   1      30.046  17.343   7.532  0.00  0.00    -0.315 N 
HETATM    4  C   UNK N   1      30.315  17.485   8.964  0.00  0.00     0.160 C 
HETATM    5  C   UNK N   1      31.066  17.368   6.611  0.00  0.00     0.086 A 
HETATM    6  C   UNK N   1      32.413  17.538   6.980  0.00  0.00     0.132 A 
HETATM    7  C   UNK N   1      33.404  17.557   6.081  0.00  0.00     0.107 A 
HETATM    8  O   UNK N   1      34.565  17.740   6.707  0.00  0.00    -0.323 OA
HETATM    9  C   UNK N   1      34.318  17.849   8.077  0.00  0.00     0.352 A 
HETATM   10  O   UNK N   1      32.934  17.707   8.197  0.00  0.00    -0.321 OA
HETATM   11  C   UNK N   1      33.184  17.409   4.721  0.00  0.00     0.041 A 
HETATM   12  C   UNK N   1      31.859  17.247   4.291  0.00  0.00     0.019 A 
HETATM   13  C   UNK N   1      30.784  17.228   5.216  0.00  0.00     0.027 A 
HETATM   14  C   UNK N   1      29.436  17.080   4.798  0.00  0.00     0.086 A 
HETATM   15  C   UNK N   1      28.437  17.055   5.768  0.00  0.00     0.112 A 
ENDROOT
BRANCH  14  16
HETATM   16  O   UNK N   1      29.041  16.969   3.499  0.00  0.00    -0.355 OA
HETATM   17  C   UNK N   1      28.689  15.813   2.841  0.00  0.00     0.210 C 
ENDBRANCH  14  16
TORSDOF 1
ENDMDL
MODEL 2
REMARK VINA RESULT:      -5.8      1.118      4.440
REMARK  1 active torsions:
REMARK  status: ('A' for Active; 'I' for Inactive)
REMARK    1  A    between atoms: O_16  and  C_14 
ROOT
HETATM    1  O   UNK N   1      30.160  17.521   9.188  0.00  0.00    -0.268 OA
HETATM    2  C   UNK N   1      30.811  17.479   8.158  0.00  0.00     0.250 A 
HETATM    3  N   UNK N   1      30.209  17.153   6.962  0.00  0.00    -0.315 N 
HETATM    4  C   UNK N   1      28.777  16.854   6.960  0.00  0.00     0.160 C 
HETATM    5  C   UNK N   1      30.945  17.114   5.803  0.00  0.00     0.086 A 
HETATM    6  C   UNK N   1      30.379  16.779   4.559  0.00  0.00     0.132 A 
HETATM    7  C   UNK N   1      31.098  16.746   3.431  0.00  0.00     0.107 A 
HETATM    8  O   UNK N   1      30.312  16.393   2.416  0.00  0.00    -0.323 OA
HETATM    9  C   UNK N   1      29.022  16.181   2.907  0.00  0.00     0.352 A 
HETATM   10  O   UNK N   1      29.118  16.447   4.275  0.00  0.00    -0.321 OA
HETATM   11  C   UNK N   1      32.451  17.040   3.397  0.00  0.00     0.041 A 
HETATM   12  C   UNK N   1      33.075  17.372   4.609  0.00  0.00     0.019 A 
HETATM   13  C   UNK N   1      32.345  17.410   5.823  0.00  0.00     0.027 A 
HETATM   14  C   UNK N   1      32.962  17.729   7.061  0.00  0.00     0.086 A 
HETATM   15  C   UNK N   1      32.174  17.762   8.209  0.00  0.00     0.112 A 
ENDROOT
BRANCH  14  16
HETATM   16  O   UNK N   1      34.289  17.999   7.213  0.00  0.00    -0.355 OA
HETATM   17  C   UNK N   1      34.894  18.567   8.310  0.00  0.00     0.210 C 
ENDBRANCH  14  16
TORSDOF 1
ENDMDL
MODEL 3
REMARK VINA RESULT:      -5.7      7.629     10.000
REMARK  1 active torsions:
REMARK  status: ('A' for Active; 'I' for Inactive)
REMARK    1  A    between atoms: O_16  and  C_14 
ROOT
HETATM    1  O   UNK N   1      19.380  14.003   9.945  0.00  0.00    -0.268 OA
HETATM    2  C   UNK N   1      20.556  13.780   9.706  0.00  0.00     0.250 A 
HETATM    3  N   UNK N   1      21.160  14.328   8.596  0.00  0.00    -0.315 N 
HETATM    4  C   UNK N   1      20.359  15.174   7.710  0.00  0.00     0.160 C 
HETATM    5  C   UNK N   1      22.486  14.079   8.335  0.00  0.00     0.086 A 
HETATM    6  C   UNK N   1      23.147  14.608   7.210  0.00  0.00     0.132 A 
HETATM    7  C   UNK N   1      24.439  14.368   6.961  0.00  0.00     0.107 A 
HETATM    8  O   UNK N   1      24.795  14.982   5.835  0.00  0.00    -0.323 OA
HETATM    9  C   UNK N   1      23.680  15.651   5.324  0.00  0.00     0.352 A 
HETATM   10  O   UNK N   1      22.660  15.385   6.241  0.00  0.00    -0.321 OA
HETATM   11  C   UNK N   1      25.228  13.584   7.788  0.00  0.00     0.041 A 
HETATM   12  C   UNK N   1      24.622  13.020   8.920  0.00  0.00     0.019 A 
HETATM   13  C   UNK N   1      23.254  13.249   9.211  0.00  0.00     0.027 A 
HETATM   14  C   UNK N   1      22.620  12.675  10.344  0.00  0.00     0.086 A 
HETATM   15  C   UNK N   1      21.275  12.960  10.571  0.00  0.00     0.112 A 
ENDROOT
BRANCH  14  16
HETATM   16  O   UNK N   1      23.236  11.846  11.233  0.00  0.00    -0.355 OA
HETATM   17  C   UNK N   1      23.132  11.884  12.604  0.00  0.00     0.210 C 
ENDBRANCH  14  16
TORSDOF 1
ENDMDL
MODEL 4
REMARK VINA RESULT:      -5.7      3.251      4.094
REMARK  1 active torsions:
REMARK  status: ('A' for Active; 'I' for Inactive)
REMARK    1  A    between atoms: O_16  and  C_14 
ROOT
HETATM    1  O   UNK N   1      32.317  12.730   6.441  0.00  0.00    -0.268 OA
HETATM    2  C   UNK N   1      32.643  13.897   6.583  0.00  0.00     0.250 A 
HETATM    3  N   UNK N   1      33.337  14.298   7.704  0.00  0.00    -0.315 N 
HETATM    4  C   UNK N   1      33.665  13.295   8.718  0.00  0.00     0.160 C 
HETATM    5  C   UNK N   1      33.709  15.612   7.857  0.00  0.00     0.086 A 
HETATM    6  C   UNK N   1      34.410  16.072   8.986  0.00  0.00     0.132 A 
HETATM    7  C   UNK N   1      34.775  17.352   9.130  0.00  0.00     0.107 A 
HETATM    8  O   UNK N   1      35.412  17.503  10.289  0.00  0.00    -0.323 OA
HETATM    9  C   UNK N   1      35.462  16.264  10.932  0.00  0.00     0.352 A 
HETATM   10  O   UNK N   1      34.815  15.388  10.058  0.00  0.00    -0.321 OA
HETATM   11  C   UNK N   1      34.493  18.322   8.181  0.00  0.00     0.041 A 
HETATM   12  C   UNK N   1      33.786  17.925   7.036  0.00  0.00     0.019 A 
HETATM   13  C   UNK N   1      33.379  16.579   6.855  0.00  0.00     0.027 A 
HETATM   14  C   UNK N   1      32.650  16.162   5.711  0.00  0.00     0.086 A 
HETATM   15  C   UNK N   1      32.300  14.818   5.597  0.00  0.00     0.112 A 
ENDROOT
BRANCH  14  16
HETATM   16  O   UNK N   1      32.253  16.993   4.706  0.00  0.00    -0.355 OA
HETATM   17  C   UNK N   1      32.620  16.919   3.383  0.00  0.00     0.210 C 
ENDBRANCH  14  16
TORSDOF 1
ENDMDL
MODEL 5
REMARK VINA RESULT:      -5.6      6.104      7.854
REMARK  1 active torsions:
REMARK  status: ('A' for Active; 'I' for Inactive)
REMARK    1  A    between atoms: O_16  and  C_14 
ROOT
HETATM    1  O   UNK N   1      20.899  17.355   4.884  0.00  0.00    -0.268 OA
HETATM    2  C   UNK N   1      21.746  18.095   4.411  0.00  0.00     0.250 A 
HETATM    3  N   UNK N   1      23.080  17.905   4.698  0.00  0.00    -0.315 N 
HETATM    4  C   UNK N   1      23.453  16.803   5.586  0.00  0.00     0.160 C 
HETATM    5  C   UNK N   1      24.031  18.736   4.157  0.00  0.00     0.086 A 
HETATM    6  C   UNK N   1      25.404  18.588   4.426  0.00  0.00     0.132 A 
HETATM    7  C   UNK N   1      26.328  19.397   3.894  0.00  0.00     0.107 A 
HETATM    8  O   UNK N   1      27.535  19.034   4.325  0.00  0.00    -0.323 OA
HETATM    9  C   UNK N   1      27.388  17.940   5.181  0.00  0.00     0.352 A 
HETATM   10  O   UNK N   1      26.014  17.694   5.205  0.00  0.00    -0.321 OA
HETATM   11  C   UNK N   1      26.008  20.439   3.038  0.00  0.00     0.041 A 
HETATM   12  C   UNK N   1      24.653  20.642   2.740  0.00  0.00     0.019 A 
HETATM   13  C   UNK N   1      23.647  19.808   3.291  0.00  0.00     0.027 A 
HETATM   14  C   UNK N   1      22.270  20.008   3.013  0.00  0.00     0.086 A 
HETATM   15  C   UNK N   1      21.342  19.137   3.580  0.00  0.00     0.112 A 
ENDROOT
BRANCH  14  16
HETATM   16  O   UNK N   1      21.780  21.010   2.230  0.00  0.00    -0.355 OA
HETATM   17  C   UNK N   1      20.716  20.932   1.362  0.00  0.00     0.210 C 
ENDBRANCH  14  16
TORSDOF 1
ENDMDL
MODEL 6
REMARK VINA RESULT:      -5.4     13.348     15.172
REMARK  1 active torsions:
REMARK  status: ('A' for Active; 'I' for Inactive)
REMARK    1  A    between atoms: O_16  and  C_14 
ROOT
HETATM    1  O   UNK N   1      29.326  23.197  -5.164  0.00  0.00    -0.268 OA
HETATM    2  C   UNK N   1      28.350  23.914  -5.313  0.00  0.00     0.250 A 
HETATM    3  N   UNK N   1      28.268  25.127  -4.664  0.00  0.00    -0.315 N 
HETATM    4  C   UNK N   1      29.373  25.528  -3.792  0.00  0.00     0.160 C 
HETATM    5  C   UNK N   1      27.170  25.935  -4.840  0.00  0.00     0.086 A 
HETATM    6  C   UNK N   1      27.036  27.177  -4.194  0.00  0.00     0.132 A 
HETATM    7  C   UNK N   1      25.968  27.964  -4.370  0.00  0.00     0.107 A 
HETATM    8  O   UNK N   1      26.103  29.066  -3.635  0.00  0.00    -0.323 OA
HETATM    9  C   UNK N   1      27.315  28.991  -2.944  0.00  0.00     0.352 A 
HETATM   10  O   UNK N   1      27.871  27.773  -3.340  0.00  0.00    -0.321 OA
HETATM   11  C   UNK N   1      24.914  27.620  -5.201  0.00  0.00     0.041 A 
HETATM   12  C   UNK N   1      24.986  26.386  -5.865  0.00  0.00     0.019 A 
HETATM   13  C   UNK N   1      26.100  25.526  -5.696  0.00  0.00     0.027 A 
HETATM   14  C   UNK N   1      26.184  24.267  -6.348  0.00  0.00     0.086 A 
HETATM   15  C   UNK N   1      27.318  23.486  -6.144  0.00  0.00     0.112 A 
ENDROOT
BRANCH  14  16
HETATM   16  O   UNK N   1      25.217  23.757  -7.162  0.00  0.00    -0.355 OA
HETATM   17  C   UNK N   1      25.297  23.578  -8.523  0.00  0.00     0.210 C 
ENDBRANCH  14  16
TORSDOF 1
ENDMDL
MODEL 7
REMARK VINA RESULT:      -5.2      1.843      5.693
REMARK  1 active torsions:
REMARK  status: ('A' for Active; 'I' for Inactive)
REMARK    1  A    between atoms: O_16  and  C_14 
ROOT
HETATM    1  O   UNK N   1      35.448  15.614   5.671  0.00  0.00    -0.268 OA
HETATM    2  C   UNK N   1      34.562  16.075   6.370  0.00  0.00     0.250 A 
HETATM    3  N   UNK N   1      33.305  16.298   5.851  0.00  0.00    -0.315 N 
HETATM    4  C   UNK N   1      33.064  15.975   4.444  0.00  0.00     0.160 C 
HETATM    5  C   UNK N   1      32.308  16.812   6.644  0.00  0.00     0.086 A 
HETATM    6  C   UNK N   1      31.012  17.065   6.158  0.00  0.00     0.132 A 
HETATM    7  C   UNK N   1      30.041  17.562   6.935  0.00  0.00     0.107 A 
HETATM    8  O   UNK N   1      28.930  17.707   6.216  0.00  0.00    -0.323 OA
HETATM    9  C   UNK N   1      29.190  17.289   4.909  0.00  0.00     0.352 A 
HETATM   10  O   UNK N   1      30.527  16.885   4.928  0.00  0.00    -0.321 OA
HETATM   11  C   UNK N   1      30.233  17.863   8.273  0.00  0.00     0.041 A 
HETATM   12  C   UNK N   1      31.509  17.642   8.812  0.00  0.00     0.019 A 
HETATM   13  C   UNK N   1      32.562  17.123   8.017  0.00  0.00     0.027 A 
HETATM   14  C   UNK N   1      33.863  16.906   8.541  0.00  0.00     0.086 A 
HETATM   15  C   UNK N   1      34.841  16.378   7.701  0.00  0.00     0.112 A 
ENDROOT
BRANCH  14  16
HETATM   16  O   UNK N   1      34.235  17.190   9.821  0.00  0.00    -0.355 OA
HETATM   17  C   UNK N   1      35.312  16.671  10.500  0.00  0.00     0.210 C 
ENDBRANCH  14  16
TORSDOF 1
ENDMDL
MODEL 8
REMARK VINA RESULT:      -5.2     12.287     13.697
REMARK  1 active torsions:
REMARK  status: ('A' for Active; 'I' for Inactive)
REMARK    1  A    between atoms: O_16  and  C_14 
ROOT
HETATM    1  O   UNK N   1      25.171  23.175  -7.203  0.00  0.00    -0.268 OA
HETATM    2  C   UNK N   1      26.032  23.400  -6.368  0.00  0.00     0.250 A 
HETATM    3  N   UNK N   1      27.275  22.817  -6.471  0.00  0.00    -0.315 N 
HETATM    4  C   UNK N   1      27.535  21.919  -7.598  0.00  0.00     0.160 C 
HETATM    5  C   UNK N   1      28.244  23.079  -5.533  0.00  0.00     0.086 A 
HETATM    6  C   UNK N   1      29.526  22.502  -5.589  0.00  0.00     0.132 A 
HETATM    7  C   UNK N   1      30.469  22.762  -4.676  0.00  0.00     0.107 A 
HETATM    8  O   UNK N   1      31.572  22.078  -4.971  0.00  0.00    -0.323 OA
HETATM    9  C   UNK N   1      31.335  21.333  -6.128  0.00  0.00     0.352 A 
HETATM   10  O   UNK N   1      30.021  21.644  -6.484  0.00  0.00    -0.321 OA
HETATM   11  C   UNK N   1      30.260  23.619  -3.607  0.00  0.00     0.041 A 
HETATM   12  C   UNK N   1      28.996  24.217  -3.492  0.00  0.00     0.019 A 
HETATM   13  C   UNK N   1      27.973  23.959  -4.438  0.00  0.00     0.027 A 
HETATM   14  C   UNK N   1      26.684  24.543  -4.329  0.00  0.00     0.086 A 
HETATM   15  C   UNK N   1      25.736  24.252  -5.308  0.00  0.00     0.112 A 
ENDROOT
BRANCH  14  16
HETATM   16  O   UNK N   1      26.297  25.371  -3.318  0.00  0.00    -0.355 OA
HETATM   17  C   UNK N   1      26.317  26.746  -3.327  0.00  0.00     0.210 C 
ENDBRANCH  14  16
TORSDOF 1
ENDMDL
MODEL 9
REMARK VINA RESULT:      -5.1      7.711     10.269
REMARK  1 active torsions:
REMARK  status: ('A' for Active; 'I' for Inactive)
REMARK    1  A    between atoms: O_16  and  C_14 
ROOT
HETATM    1  O   UNK N   1      20.668  12.929   9.667  0.00  0.00    -0.268 OA
HETATM    2  C   UNK N   1      20.741  13.987   9.062  0.00  0.00     0.250 A 
HETATM    3  N   UNK N   1      21.710  14.177   8.101  0.00  0.00    -0.315 N 
HETATM    4  C   UNK N   1      22.648  13.087   7.828  0.00  0.00     0.160 C 
HETATM    5  C   UNK N   1      21.784  15.367   7.417  0.00  0.00     0.086 A 
HETATM    6  C   UNK N   1      22.759  15.613   6.433  0.00  0.00     0.132 A 
HETATM    7  C   UNK N   1      22.826  16.772   5.766  0.00  0.00     0.107 A 
HETATM    8  O   UNK N   1      23.843  16.730   4.908  0.00  0.00    -0.323 OA
HETATM    9  C   UNK N   1      24.470  15.488   5.025  0.00  0.00     0.352 A 
HETATM   10  O   UNK N   1      23.737  14.814   6.004  0.00  0.00    -0.321 OA
HETATM   11  C   UNK N   1      21.943  17.816   5.990  0.00  0.00     0.041 A 
HETATM   12  C   UNK N   1      20.954  17.633   6.968  0.00  0.00     0.019 A 
HETATM   13  C   UNK N   1      20.858  16.421   7.697  0.00  0.00     0.027 A 
HETATM   14  C   UNK N   1      19.874  16.224   8.701  0.00  0.00     0.086 A 
HETATM   15  C   UNK N   1      19.834  14.999   9.363  0.00  0.00     0.112 A 
ENDROOT
BRANCH  14  16
HETATM   16  O   UNK N   1      18.960  17.162   9.077  0.00  0.00    -0.355 OA
HETATM   17  C   UNK N   1      17.590  17.048   9.013  0.00  0.00     0.210 C 
ENDBRANCH  14  16
TORSDOF 1
ENDMDL
