REMARK  1 active torsions:
REMARK  status: ('A' for Active; 'I' for Inactive)
REMARK    1  A    between atoms: O_16  and  C_14 
ROOT
HETATM    1  O   UNK N   1      -2.841   2.633  -0.119  0.00  0.00    -0.268 OA
HETATM    2  C   UNK N   1      -2.146   1.631  -0.080  0.00  0.00     0.250 A 
HETATM    3  N   UNK N   1      -0.772   1.732  -0.095  0.00  0.00    -0.315 N 
HETATM    4  C   UNK N   1      -0.170   3.064  -0.165  0.00  0.00     0.160 C 
HETATM    5  C   UNK N   1       0.007   0.601  -0.044  0.00  0.00     0.086 A 
HETATM    6  C   UNK N   1       1.413   0.651  -0.065  0.00  0.00     0.132 A 
HETATM    7  C   UNK N   1       2.169  -0.452  -0.011  0.00  0.00     0.107 A 
HETATM    8  O   UNK N   1       3.455  -0.110  -0.056  0.00  0.00    -0.323 OA
HETATM    9  C   UNK N   1       3.540   1.281  -0.148  0.00  0.00     0.352 A 
HETATM   10  O   UNK N   1       2.213   1.716  -0.144  0.00  0.00    -0.321 OA
HETATM   11  C   UNK N   1       1.630  -1.726   0.072  0.00  0.00     0.041 A 
HETATM   12  C   UNK N   1       0.232  -1.840   0.086  0.00  0.00     0.019 A 
HETATM   13  C   UNK N   1      -0.599  -0.693   0.024  0.00  0.00     0.027 A 
HETATM   14  C   UNK N   1      -2.015  -0.790   0.022  0.00  0.00     0.086 A 
HETATM   15  C   UNK N   1      -2.763   0.384  -0.025  0.00  0.00     0.112 A 
ENDROOT
BRANCH  14  16
HETATM   16  O   UNK N   1      -2.706  -1.964   0.053  0.00  0.00    -0.355 OA
HETATM   17  C   UNK N   1      -2.176  -3.233   0.013  0.00  0.00     0.210 C 
ENDBRANCH  14  16
TORSDOF 1
