MODEL 1
REMARK VINA RESULT:      -8.7      0.000      0.000
REMARK  6 active torsions:
REMARK  status: ('A' for Active; 'I' for Inactive)
REMARK    1  A    between atoms: C_1  and  C_5 
REMARK    2  A    between atoms: C_2  and  S_4 
REMARK    3  A    between atoms: S_4  and  N_11 
REMARK    4  A    between atoms: N_16  and  C_20 
REMARK    5  A    between atoms: C_20  and  C_28 
REMARK    6  A    between atoms: N_22  and  C_23 
ROOT
HETATM    1  C   UNK N   1      33.851  13.425   9.105  0.00  0.00     0.233 C 
HETATM    2  O   UNK N   1      32.700  13.057   8.934  0.00  0.00    -0.272 OA
HETATM    3  C   UNK N   1      34.525  13.142  10.437  0.00  0.00     0.210 C 
HETATM    4  N   UNK N   1      35.872  13.745  10.618  0.00  0.00    -0.197 NA
HETATM    5  C   UNK N   1      35.872  14.526   8.334  0.00  0.00     0.141 C 
HETATM    6  C   UNK N   1      36.046  14.934   9.773  0.00  0.00     0.128 C 
HETATM    7  N   UNK N   1      34.498  14.152   8.147  0.00  0.00    -0.350 N 
ENDROOT
BRANCH   7   8
HETATM    8  C   UNK N   1      33.810  14.660   6.979  0.00  0.00     0.130 C 
BRANCH   8   9
HETATM    9  C   UNK N   1      33.722  16.204   6.981  0.00  0.00     0.007 C 
HETATM   10  C   UNK N   1      32.992  16.684   8.240  0.00  0.00     0.026 C 
HETATM   11  C   UNK N   1      31.505  16.309   8.182  0.00  0.00     0.123 C 
HETATM   12  N   UNK N   1      30.918  16.793   6.945  0.00  0.00    -0.381 N 
HETATM   13  C   UNK N   1      31.556  16.437   5.698  0.00  0.00     0.123 C 
HETATM   14  C   UNK N   1      33.033  16.818   5.746  0.00  0.00     0.026 C 
BRANCH  12  15
HETATM   15  C   UNK N   1      29.718  17.566   6.947  0.00  0.00     0.032 A 
HETATM   16  C   UNK N   1      28.982  17.751   5.767  0.00  0.00     0.046 A 
HETATM   17  C   UNK N   1      27.823  18.529   5.790  0.00  0.00     0.089 A 
HETATM   18  N   UNK N   1      27.410  19.110   6.948  0.00  0.00    -0.375 N 
HETATM   19  C   UNK N   1      28.104  18.952   8.107  0.00  0.00     0.089 A 
ATOM     20  HN  UNK N   1      26.562  19.678   6.948  1.00  0.00     0.164 HD
HETATM   21  C   UNK N   1      29.266  18.179   8.127  0.00  0.00     0.046 A 
ENDBRANCH  12  15
ENDBRANCH   8   9
ENDBRANCH   7   8
BRANCH   4  22
HETATM   22  S   UNK N   1      36.068  14.246  12.330  0.00  0.00     0.234 S 
HETATM   23  O   UNK N   1      34.790  13.388  12.374  0.00  0.00    -0.207 OA
HETATM   24  O   UNK N   1      37.113  13.111  12.366  0.00  0.00    -0.207 OA
BRANCH  22  25
HETATM   25  C   UNK N   1      35.730  13.361  13.851  0.00  0.00     0.127 C 
HETATM   26  C   UNK N   1      36.053  13.824  15.066  0.00  0.00     0.024 C 
BRANCH  26  27
HETATM   27  C   UNK N   1      35.780  13.006  16.257  0.00  0.00    -0.035 A 
HETATM   28  C   UNK N   1      35.346  13.619  17.438  0.00  0.00     0.013 A 
HETATM   29  C   UNK N   1      35.114  12.846  18.581  0.00  0.00     0.024 A 
HETATM   30  C   UNK N   1      35.313  11.461  18.544  0.00  0.00     0.034 A 
HETATM   31 Cl   UNK N   1      35.025  10.491  19.971  0.00  0.00    -0.084 Cl
HETATM   32  C   UNK N   1      35.743  10.848  17.368  0.00  0.00     0.024 A 
HETATM   33  C   UNK N   1      35.979  11.616  16.230  0.00  0.00     0.013 A 
ENDBRANCH  26  27
ENDBRANCH  22  25
ENDBRANCH   4  22
TORSDOF 6
ENDMDL
MODEL 2
REMARK VINA RESULT:      -8.6      1.319      1.882
REMARK  6 active torsions:
REMARK  status: ('A' for Active; 'I' for Inactive)
REMARK    1  A    between atoms: C_1  and  C_5 
REMARK    2  A    between atoms: C_2  and  S_4 
REMARK    3  A    between atoms: S_4  and  N_11 
REMARK    4  A    between atoms: N_16  and  C_20 
REMARK    5  A    between atoms: C_20  and  C_28 
REMARK    6  A    between atoms: N_22  and  C_23 
ROOT
HETATM    1  C   UNK N   1      33.270  14.091   9.078  0.00  0.00     0.233 C 
HETATM    2  O   UNK N   1      32.396  13.242   9.020  0.00  0.00    -0.272 OA
HETATM    3  C   UNK N   1      34.464  13.857   9.989  0.00  0.00     0.210 C 
HETATM    4  N   UNK N   1      35.412  14.996  10.113  0.00  0.00    -0.197 NA
HETATM    5  C   UNK N   1      34.205  16.234   8.429  0.00  0.00     0.141 C 
HETATM    6  C   UNK N   1      34.751  16.277   9.832  0.00  0.00     0.128 C 
HETATM    7  N   UNK N   1      33.141  15.269   8.401  0.00  0.00    -0.350 N 
ENDROOT
BRANCH   7   8
HETATM    8  C   UNK N   1      31.911  15.637   7.733  0.00  0.00     0.130 C 
BRANCH   8   9
HETATM    9  C   UNK N   1      31.891  17.130   7.330  0.00  0.00     0.007 C 
HETATM   10  C   UNK N   1      31.002  17.921   8.295  0.00  0.00     0.026 C 
HETATM   11  C   UNK N   1      29.526  17.549   8.100  0.00  0.00     0.123 C 
HETATM   12  N   UNK N   1      29.153  17.700   6.705  0.00  0.00    -0.381 N 
HETATM   13  C   UNK N   1      29.956  17.032   5.705  0.00  0.00     0.123 C 
HETATM   14  C   UNK N   1      31.424  17.407   5.887  0.00  0.00     0.026 C 
BRANCH  12  15
HETATM   15  C   UNK N   1      28.002  18.452   6.322  0.00  0.00     0.032 A 
HETATM   16  C   UNK N   1      27.108  17.955   5.363  0.00  0.00     0.046 A 
HETATM   17  C   UNK N   1      26.001  18.719   4.989  0.00  0.00     0.089 A 
HETATM   18  N   UNK N   1      25.790  19.941   5.548  0.00  0.00    -0.375 N 
HETATM   19  C   UNK N   1      26.641  20.450   6.478  0.00  0.00     0.089 A 
ATOM     20  HN  UNK N   1      24.977  20.488   5.262  1.00  0.00     0.164 HD
HETATM   21  C   UNK N   1      27.758  19.717   6.882  0.00  0.00     0.046 A 
ENDBRANCH  12  15
ENDBRANCH   8   9
ENDBRANCH   7   8
BRANCH   4  22
HETATM   22  S   UNK N   1      36.046  15.053  11.791  0.00  0.00     0.234 S 
HETATM   23  O   UNK N   1      34.611  14.533  11.991  0.00  0.00    -0.207 OA
HETATM   24  O   UNK N   1      36.724  13.723  11.400  0.00  0.00    -0.207 OA
BRANCH  22  25
HETATM   25  C   UNK N   1      35.757  13.965  13.185  0.00  0.00     0.127 C 
HETATM   26  C   UNK N   1      36.415  14.060  14.349  0.00  0.00     0.024 C 
BRANCH  26  27
HETATM   27  C   UNK N   1      36.146  13.092  15.423  0.00  0.00    -0.035 A 
HETATM   28  C   UNK N   1      36.591  11.772  15.299  0.00  0.00     0.013 A 
HETATM   29  C   UNK N   1      36.310  10.842  16.307  0.00  0.00     0.024 A 
HETATM   30  C   UNK N   1      35.587  11.233  17.439  0.00  0.00     0.034 A 
HETATM   31 Cl   UNK N   1      35.233  10.075  18.702  0.00  0.00    -0.084 Cl
HETATM   32  C   UNK N   1      35.144  12.549  17.567  0.00  0.00     0.024 A 
HETATM   33  C   UNK N   1      35.420  13.475  16.562  0.00  0.00     0.013 A 
ENDBRANCH  26  27
ENDBRANCH  22  25
ENDBRANCH   4  22
TORSDOF 6
ENDMDL
MODEL 3
REMARK VINA RESULT:      -8.3      4.540     11.068
REMARK  6 active torsions:
REMARK  status: ('A' for Active; 'I' for Inactive)
REMARK    1  A    between atoms: C_1  and  C_5 
REMARK    2  A    between atoms: C_2  and  S_4 
REMARK    3  A    between atoms: S_4  and  N_11 
REMARK    4  A    between atoms: N_16  and  C_20 
REMARK    5  A    between atoms: C_20  and  C_28 
REMARK    6  A    between atoms: N_22  and  C_23 
ROOT
HETATM    1  C   UNK N   1      35.493  16.026   9.947  0.00  0.00     0.233 C 
HETATM    2  O   UNK N   1      36.102  16.592  10.840  0.00  0.00    -0.272 OA
HETATM    3  C   UNK N   1      34.330  16.742   9.281  0.00  0.00     0.210 C 
HETATM    4  N   UNK N   1      33.552  15.934   8.304  0.00  0.00    -0.197 NA
HETATM    5  C   UNK N   1      35.113  14.105   8.513  0.00  0.00     0.141 C 
HETATM    6  C   UNK N   1      33.661  14.498   8.588  0.00  0.00     0.128 C 
HETATM    7  N   UNK N   1      35.796  14.739   9.606  0.00  0.00    -0.350 N 
ENDROOT
BRANCH   7   8
HETATM    8  C   UNK N   1      36.718  13.939  10.384  0.00  0.00     0.130 C 
BRANCH   8   9
HETATM    9  C   UNK N   1      36.099  12.587  10.810  0.00  0.00     0.007 C 
HETATM   10  C   UNK N   1      34.873  12.829  11.697  0.00  0.00     0.026 C 
HETATM   11  C   UNK N   1      35.293  13.397  13.060  0.00  0.00     0.123 C 
HETATM   12  N   UNK N   1      36.296  12.541  13.668  0.00  0.00    -0.381 N 
HETATM   13  C   UNK N   1      37.473  12.209  12.898  0.00  0.00     0.123 C 
HETATM   14  C   UNK N   1      37.061  11.634  11.546  0.00  0.00     0.026 C 
BRANCH  12  15
HETATM   15  C   UNK N   1      36.152  12.066  15.007  0.00  0.00     0.032 A 
HETATM   16  C   UNK N   1      36.693  10.831  15.392  0.00  0.00     0.046 A 
HETATM   17  C   UNK N   1      36.521  10.379  16.702  0.00  0.00     0.089 A 
HETATM   18  N   UNK N   1      35.829  11.128  17.600  0.00  0.00    -0.375 N 
HETATM   19  C   UNK N   1      35.289  12.328  17.256  0.00  0.00     0.089 A 
ATOM     20  HN  UNK N   1      35.709  10.783  18.553  1.00  0.00     0.164 HD
HETATM   21  C   UNK N   1      35.442  12.818  15.958  0.00  0.00     0.046 A 
ENDBRANCH  12  15
ENDBRANCH   8   9
ENDBRANCH   7   8
BRANCH   4  22
HETATM   22  S   UNK N   1      31.819  16.393   8.411  0.00  0.00     0.234 S 
HETATM   23  O   UNK N   1      32.447  17.609   7.706  0.00  0.00    -0.207 OA
HETATM   24  O   UNK N   1      31.673  15.463   7.187  0.00  0.00    -0.207 OA
BRANCH  22  25
HETATM   25  C   UNK N   1      30.780  17.301   7.268  0.00  0.00     0.127 C 
HETATM   26  C   UNK N   1      29.497  17.603   7.512  0.00  0.00     0.024 C 
BRANCH  26  27
HETATM   27  C   UNK N   1      28.706  18.311   6.495  0.00  0.00    -0.035 A 
HETATM   28  C   UNK N   1      27.984  19.455   6.848  0.00  0.00     0.013 A 
HETATM   29  C   UNK N   1      27.206  20.114   5.888  0.00  0.00     0.024 A 
HETATM   30  C   UNK N   1      27.153  19.630   4.576  0.00  0.00     0.034 A 
HETATM   31 Cl   UNK N   1      26.183  20.449   3.373  0.00  0.00    -0.084 Cl
HETATM   32  C   UNK N   1      27.875  18.490   4.221  0.00  0.00     0.024 A 
HETATM   33  C   UNK N   1      28.646  17.831   5.177  0.00  0.00     0.013 A 
ENDBRANCH  26  27
ENDBRANCH  22  25
ENDBRANCH   4  22
TORSDOF 6
ENDMDL
MODEL 4
REMARK VINA RESULT:      -8.3      2.340      3.468
REMARK  6 active torsions:
REMARK  status: ('A' for Active; 'I' for Inactive)
REMARK    1  A    between atoms: C_1  and  C_5 
REMARK    2  A    between atoms: C_2  and  S_4 
REMARK    3  A    between atoms: S_4  and  N_11 
REMARK    4  A    between atoms: N_16  and  C_20 
REMARK    5  A    between atoms: C_20  and  C_28 
REMARK    6  A    between atoms: N_22  and  C_23 
ROOT
HETATM    1  C   UNK N   1      37.018  13.497  10.693  0.00  0.00     0.233 C 
HETATM    2  O   UNK N   1      37.507  13.125   9.640  0.00  0.00    -0.272 OA
HETATM    3  C   UNK N   1      37.230  12.657  11.941  0.00  0.00     0.210 C 
HETATM    4  N   UNK N   1      36.486  13.101  13.150  0.00  0.00    -0.197 NA
HETATM    5  C   UNK N   1      35.702  15.069  11.993  0.00  0.00     0.141 C 
HETATM    6  C   UNK N   1      35.283  13.862  12.790  0.00  0.00     0.128 C 
HETATM    7  N   UNK N   1      36.223  14.606  10.737  0.00  0.00    -0.350 N 
ENDROOT
BRANCH   7   8
HETATM    8  C   UNK N   1      35.788  15.283   9.534  0.00  0.00     0.130 C 
BRANCH   8   9
HETATM    9  C   UNK N   1      34.367  15.877   9.680  0.00  0.00     0.007 C 
HETATM   10  C   UNK N   1      33.347  14.968   8.986  0.00  0.00     0.026 C 
HETATM   11  C   UNK N   1      33.525  15.018   7.462  0.00  0.00     0.123 C 
HETATM   12  N   UNK N   1      33.492  16.394   7.001  0.00  0.00    -0.381 N 
HETATM   13  C   UNK N   1      34.383  17.348   7.623  0.00  0.00     0.123 C 
HETATM   14  C   UNK N   1      34.202  17.311   9.139  0.00  0.00     0.026 C 
BRANCH  12  15
HETATM   15  C   UNK N   1      32.635  16.798   5.933  0.00  0.00     0.032 A 
HETATM   16  C   UNK N   1      33.153  17.046   4.654  0.00  0.00     0.046 A 
HETATM   17  C   UNK N   1      32.297  17.460   3.631  0.00  0.00     0.089 A 
HETATM   18  N   UNK N   1      30.970  17.628   3.873  0.00  0.00    -0.375 N 
HETATM   19  C   UNK N   1      30.440  17.400   5.104  0.00  0.00     0.089 A 
ATOM     20  HN  UNK N   1      30.359  17.934   3.115  1.00  0.00     0.164 HD
HETATM   21  C   UNK N   1      31.260  16.980   6.152  0.00  0.00     0.046 A 
ENDBRANCH  12  15
ENDBRANCH   8   9
ENDBRANCH   7   8
BRANCH   4  22
HETATM   22  S   UNK N   1      35.972  11.658  14.086  0.00  0.00     0.234 S 
HETATM   23  O   UNK N   1      36.830  12.432  15.104  0.00  0.00    -0.207 OA
HETATM   24  O   UNK N   1      34.653  12.442  14.247  0.00  0.00    -0.207 OA
BRANCH  22  25
HETATM   25  C   UNK N   1      35.544  11.482  15.817  0.00  0.00     0.127 C 
HETATM   26  C   UNK N   1      35.525  10.306  16.461  0.00  0.00     0.024 C 
BRANCH  26  27
HETATM   27  C   UNK N   1      35.114  10.251  17.871  0.00  0.00    -0.035 A 
HETATM   28  C   UNK N   1      34.288   9.213  18.315  0.00  0.00     0.013 A 
HETATM   29  C   UNK N   1      33.872   9.175  19.651  0.00  0.00     0.024 A 
HETATM   30  C   UNK N   1      34.284  10.172  20.543  0.00  0.00     0.034 A 
HETATM   31 Cl   UNK N   1      33.766  10.129  22.213  0.00  0.00    -0.084 Cl
HETATM   32  C   UNK N   1      35.109  11.206  20.103  0.00  0.00     0.024 A 
HETATM   33  C   UNK N   1      35.521  11.248  18.772  0.00  0.00     0.013 A 
ENDBRANCH  26  27
ENDBRANCH  22  25
ENDBRANCH   4  22
TORSDOF 6
ENDMDL
MODEL 5
REMARK VINA RESULT:      -8.3      2.039      2.659
REMARK  6 active torsions:
REMARK  status: ('A' for Active; 'I' for Inactive)
REMARK    1  A    between atoms: C_1  and  C_5 
REMARK    2  A    between atoms: C_2  and  S_4 
REMARK    3  A    between atoms: S_4  and  N_11 
REMARK    4  A    between atoms: N_16  and  C_20 
REMARK    5  A    between atoms: C_20  and  C_28 
REMARK    6  A    between atoms: N_22  and  C_23 
ROOT
HETATM    1  C   UNK N   1      35.389  16.173  10.805  0.00  0.00     0.233 C 
HETATM    2  O   UNK N   1      35.968  17.228  10.599  0.00  0.00    -0.272 OA
HETATM    3  C   UNK N   1      35.589  15.472  12.139  0.00  0.00     0.210 C 
HETATM    4  N   UNK N   1      34.966  14.127  12.258  0.00  0.00    -0.197 NA
HETATM    5  C   UNK N   1      33.915  14.379  10.100  0.00  0.00     0.141 C 
HETATM    6  C   UNK N   1      34.796  13.496  10.943  0.00  0.00     0.128 C 
HETATM    7  N   UNK N   1      34.640  15.588   9.826  0.00  0.00    -0.350 N 
ENDROOT
BRANCH   7   8
HETATM    8  C   UNK N   1      34.633  16.089   8.467  0.00  0.00     0.130 C 
BRANCH   8   9
HETATM    9  C   UNK N   1      33.689  17.303   8.299  0.00  0.00     0.007 C 
HETATM   10  C   UNK N   1      32.234  16.865   8.499  0.00  0.00     0.026 C 
HETATM   11  C   UNK N   1      31.770  15.976   7.338  0.00  0.00     0.123 C 
HETATM   12  N   UNK N   1      32.011  16.643   6.072  0.00  0.00    -0.381 N 
HETATM   13  C   UNK N   1      33.342  17.138   5.800  0.00  0.00     0.123 C 
HETATM   14  C   UNK N   1      33.804  18.034   6.947  0.00  0.00     0.026 C 
BRANCH  12  15
HETATM   15  C   UNK N   1      30.979  16.776   5.095  0.00  0.00     0.032 A 
HETATM   16  C   UNK N   1      31.136  16.243   3.808  0.00  0.00     0.046 A 
HETATM   17  C   UNK N   1      30.120  16.405   2.864  0.00  0.00     0.089 A 
HETATM   18  N   UNK N   1      28.985  17.080   3.187  0.00  0.00    -0.375 N 
HETATM   19  C   UNK N   1      28.805  17.611   4.425  0.00  0.00     0.089 A 
ATOM     20  HN  UNK N   1      28.253  17.191   2.485  1.00  0.00     0.164 HD
HETATM   21  C   UNK N   1      29.794  17.468   5.399  0.00  0.00     0.046 A 
ENDBRANCH  12  15
ENDBRANCH   8   9
ENDBRANCH   7   8
BRANCH   4  22
HETATM   22  S   UNK N   1      36.030  13.073  13.248  0.00  0.00     0.234 S 
HETATM   23  O   UNK N   1      35.164  13.771  14.312  0.00  0.00    -0.207 OA
HETATM   24  O   UNK N   1      35.039  11.967  12.829  0.00  0.00    -0.207 OA
BRANCH  22  25
HETATM   25  C   UNK N   1      35.695  12.163  14.755  0.00  0.00     0.127 C 
HETATM   26  C   UNK N   1      36.648  11.587  15.501  0.00  0.00     0.024 C 
BRANCH  26  27
HETATM   27  C   UNK N   1      36.276  10.819  16.698  0.00  0.00    -0.035 A 
HETATM   28  C   UNK N   1      35.453  11.399  17.669  0.00  0.00     0.013 A 
HETATM   29  C   UNK N   1      35.122  10.680  18.824  0.00  0.00     0.024 A 
HETATM   30  C   UNK N   1      35.611   9.381  19.006  0.00  0.00     0.034 A 
HETATM   31 Cl   UNK N   1      35.200   8.479  20.447  0.00  0.00    -0.084 Cl
HETATM   32  C   UNK N   1      36.430   8.800  18.038  0.00  0.00     0.024 A 
HETATM   33  C   UNK N   1      36.764   9.516  16.890  0.00  0.00     0.013 A 
ENDBRANCH  26  27
ENDBRANCH  22  25
ENDBRANCH   4  22
TORSDOF 6
ENDMDL
MODEL 6
REMARK VINA RESULT:      -8.1      4.583      7.985
REMARK  6 active torsions:
REMARK  status: ('A' for Active; 'I' for Inactive)
REMARK    1  A    between atoms: C_1  and  C_5 
REMARK    2  A    between atoms: C_2  and  S_4 
REMARK    3  A    between atoms: S_4  and  N_11 
REMARK    4  A    between atoms: N_16  and  C_20 
REMARK    5  A    between atoms: C_20  and  C_28 
REMARK    6  A    between atoms: N_22  and  C_23 
ROOT
HETATM    1  C   UNK N   1      28.160  18.679   7.208  0.00  0.00     0.233 C 
HETATM    2  O   UNK N   1      27.590  19.506   7.902  0.00  0.00    -0.272 OA
HETATM    3  C   UNK N   1      29.311  17.886   7.804  0.00  0.00     0.210 C 
HETATM    4  N   UNK N   1      30.044  17.004   6.856  0.00  0.00    -0.197 NA
HETATM    5  C   UNK N   1      28.462  17.508   5.104  0.00  0.00     0.141 C 
HETATM    6  C   UNK N   1      29.921  17.484   5.474  0.00  0.00     0.128 C 
HETATM    7  N   UNK N   1      27.826  18.526   5.894  0.00  0.00    -0.350 N 
ENDROOT
BRANCH   7   8
HETATM    8  C   UNK N   1      26.918  19.434   5.224  0.00  0.00     0.130 C 
BRANCH   8   9
HETATM    9  C   UNK N   1      26.453  18.887   3.854  0.00  0.00     0.007 C 
HETATM   10  C   UNK N   1      25.873  20.025   3.007  0.00  0.00     0.026 C 
HETATM   11  C   UNK N   1      24.540  20.511   3.591  0.00  0.00     0.123 C 
HETATM   12  N   UNK N   1      23.634  19.391   3.765  0.00  0.00    -0.381 N 
HETATM   13  C   UNK N   1      24.098  18.242   4.511  0.00  0.00     0.123 C 
HETATM   14  C   UNK N   1      25.418  17.746   3.926  0.00  0.00     0.026 C 
BRANCH  12  15
HETATM   15  C   UNK N   1      22.302  19.428   3.254  0.00  0.00     0.032 A 
HETATM   16  C   UNK N   1      21.886  20.470   2.413  0.00  0.00     0.046 A 
HETATM   17  C   UNK N   1      20.571  20.496   1.942  0.00  0.00     0.089 A 
HETATM   18  N   UNK N   1      19.696  19.519   2.300  0.00  0.00    -0.375 N 
HETATM   19  C   UNK N   1      20.069  18.498   3.117  0.00  0.00     0.089 A 
ATOM     20  HN  UNK N   1      18.738  19.554   1.950  1.00  0.00     0.164 HD
HETATM   21  C   UNK N   1      21.375  18.434   3.605  0.00  0.00     0.046 A 
ENDBRANCH  12  15
ENDBRANCH   8   9
ENDBRANCH   7   8
BRANCH   4  22
HETATM   22  S   UNK N   1      31.786  16.994   7.290  0.00  0.00     0.234 S 
HETATM   23  O   UNK N   1      31.097  17.060   8.665  0.00  0.00    -0.207 OA
HETATM   24  O   UNK N   1      31.665  15.476   7.040  0.00  0.00    -0.207 OA
BRANCH  22  25
HETATM   25  C   UNK N   1      32.640  16.234   8.669  0.00  0.00     0.127 C 
HETATM   26  C   UNK N   1      33.963  16.325   8.862  0.00  0.00     0.024 C 
BRANCH  26  27
HETATM   27  C   UNK N   1      34.586  15.628   9.998  0.00  0.00    -0.035 A 
HETATM   28  C   UNK N   1      34.391  14.253  10.163  0.00  0.00     0.013 A 
HETATM   29  C   UNK N   1      34.959  13.594  11.259  0.00  0.00     0.024 A 
HETATM   30  C   UNK N   1      35.724  14.309  12.188  0.00  0.00     0.034 A 
HETATM   31 Cl   UNK N   1      36.435  13.489  13.560  0.00  0.00    -0.084 Cl
HETATM   32  C   UNK N   1      35.922  15.679  12.024  0.00  0.00     0.024 A 
HETATM   33  C   UNK N   1      35.354  16.338  10.935  0.00  0.00     0.013 A 
ENDBRANCH  26  27
ENDBRANCH  22  25
ENDBRANCH   4  22
TORSDOF 6
ENDMDL
MODEL 7
REMARK VINA RESULT:      -8.1      1.653      2.357
REMARK  6 active torsions:
REMARK  status: ('A' for Active; 'I' for Inactive)
REMARK    1  A    between atoms: C_1  and  C_5 
REMARK    2  A    between atoms: C_2  and  S_4 
REMARK    3  A    between atoms: S_4  and  N_11 
REMARK    4  A    between atoms: N_16  and  C_20 
REMARK    5  A    between atoms: C_20  and  C_28 
REMARK    6  A    between atoms: N_22  and  C_23 
ROOT
HETATM    1  C   UNK N   1      33.654  15.780   9.049  0.00  0.00     0.233 C 
HETATM    2  O   UNK N   1      32.793  16.643   9.056  0.00  0.00    -0.272 OA
HETATM    3  C   UNK N   1      33.987  15.061  10.346  0.00  0.00     0.210 C 
HETATM    4  N   UNK N   1      35.142  14.127  10.286  0.00  0.00    -0.197 NA
HETATM    5  C   UNK N   1      35.337  14.459   7.903  0.00  0.00     0.141 C 
HETATM    6  C   UNK N   1      36.076  14.496   9.214  0.00  0.00     0.128 C 
HETATM    7  N   UNK N   1      34.368  15.519   7.915  0.00  0.00    -0.350 N 
ENDROOT
BRANCH   7   8
HETATM    8  C   UNK N   1      34.261  16.351   6.736  0.00  0.00     0.130 C 
BRANCH   8   9
HETATM    9  C   UNK N   1      33.659  15.585   5.535  0.00  0.00     0.007 C 
HETATM   10  C   UNK N   1      33.345  16.562   4.396  0.00  0.00     0.026 C 
HETATM   11  C   UNK N   1      32.171  17.476   4.774  0.00  0.00     0.123 C 
HETATM   12  N   UNK N   1      31.032  16.677   5.191  0.00  0.00    -0.381 N 
HETATM   13  C   UNK N   1      31.230  15.690   6.228  0.00  0.00     0.123 C 
HETATM   14  C   UNK N   1      32.389  14.771   5.852  0.00  0.00     0.026 C 
BRANCH  12  15
HETATM   15  C   UNK N   1      29.737  16.882   4.627  0.00  0.00     0.032 A 
HETATM   16  C   UNK N   1      28.913  17.922   5.081  0.00  0.00     0.046 A 
HETATM   17  C   UNK N   1      27.642  18.089   4.528  0.00  0.00     0.089 A 
HETATM   18  N   UNK N   1      27.200  17.245   3.558  0.00  0.00    -0.375 N 
HETATM   19  C   UNK N   1      27.974  16.225   3.100  0.00  0.00     0.089 A 
ATOM     20  HN  UNK N   1      26.267  17.378   3.166  1.00  0.00     0.164 HD
HETATM   21  C   UNK N   1      29.253  16.027   3.623  0.00  0.00     0.046 A 
ENDBRANCH  12  15
ENDBRANCH   8   9
ENDBRANCH   7   8
BRANCH   4  22
HETATM   22  S   UNK N   1      36.031  14.189  11.845  0.00  0.00     0.234 S 
HETATM   23  O   UNK N   1      34.560  14.165  12.297  0.00  0.00    -0.207 OA
HETATM   24  O   UNK N   1      36.226  12.678  11.600  0.00  0.00    -0.207 OA
BRANCH  22  25
HETATM   25  C   UNK N   1      35.674  13.421  13.423  0.00  0.00     0.127 C 
HETATM   26  C   UNK N   1      36.440  13.573  14.512  0.00  0.00     0.024 C 
BRANCH  26  27
HETATM   27  C   UNK N   1      36.095  12.866  15.754  0.00  0.00    -0.035 A 
HETATM   28  C   UNK N   1      36.362  11.498  15.873  0.00  0.00     0.013 A 
HETATM   29  C   UNK N   1      36.008  10.816  17.043  0.00  0.00     0.024 A 
HETATM   30  C   UNK N   1      35.390  11.502  18.095  0.00  0.00     0.034 A 
HETATM   31 Cl   UNK N   1      34.945  10.655  19.559  0.00  0.00    -0.084 Cl
HETATM   32  C   UNK N   1      35.125  12.866  17.980  0.00  0.00     0.024 A 
HETATM   33  C   UNK N   1      35.473  13.546  16.813  0.00  0.00     0.013 A 
ENDBRANCH  26  27
ENDBRANCH  22  25
ENDBRANCH   4  22
TORSDOF 6
ENDMDL
MODEL 8
REMARK VINA RESULT:      -8.1      4.527     11.455
REMARK  6 active torsions:
REMARK  status: ('A' for Active; 'I' for Inactive)
REMARK    1  A    between atoms: C_1  and  C_5 
REMARK    2  A    between atoms: C_2  and  S_4 
REMARK    3  A    between atoms: S_4  and  N_11 
REMARK    4  A    between atoms: N_16  and  C_20 
REMARK    5  A    between atoms: C_20  and  C_28 
REMARK    6  A    between atoms: N_22  and  C_23 
ROOT
HETATM    1  C   UNK N   1      36.276  14.439  12.985  0.00  0.00     0.233 C 
HETATM    2  O   UNK N   1      36.647  14.858  14.068  0.00  0.00    -0.272 OA
HETATM    3  C   UNK N   1      36.027  15.429  11.858  0.00  0.00     0.210 C 
HETATM    4  N   UNK N   1      35.442  14.857  10.617  0.00  0.00    -0.197 NA
HETATM    5  C   UNK N   1      35.628  12.623  11.511  0.00  0.00     0.141 C 
HETATM    6  C   UNK N   1      34.690  13.627  10.895  0.00  0.00     0.128 C 
HETATM    7  N   UNK N   1      36.006  13.113  12.807  0.00  0.00    -0.350 N 
ENDROOT
BRANCH   7   8
HETATM    8  C   UNK N   1      35.982  12.183  13.916  0.00  0.00     0.130 C 
BRANCH   8   9
HETATM    9  C   UNK N   1      34.592  12.114  14.589  0.00  0.00     0.007 C 
HETATM   10  C   UNK N   1      34.609  12.896  15.907  0.00  0.00     0.026 C 
HETATM   11  C   UNK N   1      35.471  12.177  16.953  0.00  0.00     0.123 C 
HETATM   12  N   UNK N   1      35.036  10.799  17.096  0.00  0.00    -0.381 N 
HETATM   13  C   UNK N   1      34.939   9.984  15.906  0.00  0.00     0.123 C 
HETATM   14  C   UNK N   1      34.072  10.689  14.866  0.00  0.00     0.026 C 
BRANCH  12  15
HETATM   15  C   UNK N   1      34.749  10.242  18.378  0.00  0.00     0.032 A 
HETATM   16  C   UNK N   1      35.163  10.890  19.551  0.00  0.00     0.046 A 
HETATM   17  C   UNK N   1      34.889  10.313  20.792  0.00  0.00     0.089 A 
HETATM   18  N   UNK N   1      34.228   9.127  20.867  0.00  0.00    -0.375 N 
HETATM   19  C   UNK N   1      33.817   8.474  19.747  0.00  0.00     0.089 A 
ATOM     20  HN  UNK N   1      34.037   8.718  21.782  1.00  0.00     0.164 HD
HETATM   21  C   UNK N   1      34.068   9.018  18.487  0.00  0.00     0.046 A 
ENDBRANCH  12  15
ENDBRANCH   8   9
ENDBRANCH   7   8
BRANCH   4  22
HETATM   22  S   UNK N   1      34.309  16.050   9.897  0.00  0.00     0.234 S 
HETATM   23  O   UNK N   1      35.049  15.502   8.664  0.00  0.00    -0.207 OA
HETATM   24  O   UNK N   1      33.274  14.919  10.072  0.00  0.00    -0.207 OA
BRANCH  22  25
HETATM   25  C   UNK N   1      33.405  16.016   8.351  0.00  0.00     0.127 C 
HETATM   26  C   UNK N   1      32.682  17.046   7.891  0.00  0.00     0.024 C 
BRANCH  26  27
HETATM   27  C   UNK N   1      31.933  16.911   6.633  0.00  0.00    -0.035 A 
HETATM   28  C   UNK N   1      32.523  17.301   5.427  0.00  0.00     0.013 A 
HETATM   29  C   UNK N   1      31.801  17.201   4.232  0.00  0.00     0.024 A 
HETATM   30  C   UNK N   1      30.491  16.709   4.243  0.00  0.00     0.034 A 
HETATM   31 Cl   UNK N   1      29.584  16.583   2.753  0.00  0.00    -0.084 Cl
HETATM   32  C   UNK N   1      29.901  16.318   5.445  0.00  0.00     0.024 A 
HETATM   33  C   UNK N   1      30.617  16.421   6.636  0.00  0.00     0.013 A 
ENDBRANCH  26  27
ENDBRANCH  22  25
ENDBRANCH   4  22
TORSDOF 6
ENDMDL
MODEL 9
REMARK VINA RESULT:      -8.0      1.421      1.808
REMARK  6 active torsions:
REMARK  status: ('A' for Active; 'I' for Inactive)
REMARK    1  A    between atoms: C_1  and  C_5 
REMARK    2  A    between atoms: C_2  and  S_4 
REMARK    3  A    between atoms: S_4  and  N_11 
REMARK    4  A    between atoms: N_16  and  C_20 
REMARK    5  A    between atoms: C_20  and  C_28 
REMARK    6  A    between atoms: N_22  and  C_23 
ROOT
HETATM    1  C   UNK N   1      35.468  13.026   8.815  0.00  0.00     0.233 C 
HETATM    2  O   UNK N   1      34.764  12.615   7.907  0.00  0.00    -0.272 OA
HETATM    3  C   UNK N   1      36.003  12.037   9.838  0.00  0.00     0.210 C 
HETATM    4  N   UNK N   1      36.732  12.633  10.988  0.00  0.00    -0.197 NA
HETATM    5  C   UNK N   1      36.585  14.828   9.995  0.00  0.00     0.141 C 
HETATM    6  C   UNK N   1      36.308  14.018  11.234  0.00  0.00     0.128 C 
HETATM    7  N   UNK N   1      35.705  14.362   8.960  0.00  0.00    -0.350 N 
ENDROOT
BRANCH   7   8
HETATM    8  C   UNK N   1      35.010  15.353   8.166  0.00  0.00     0.130 C 
BRANCH   8   9
HETATM    9  C   UNK N   1      34.009  16.177   9.009  0.00  0.00     0.007 C 
HETATM   10  C   UNK N   1      32.678  15.424   9.123  0.00  0.00     0.026 C 
HETATM   11  C   UNK N   1      31.957  15.390   7.769  0.00  0.00     0.123 C 
HETATM   12  N   UNK N   1      31.824  16.736   7.241  0.00  0.00    -0.381 N 
HETATM   13  C   UNK N   1      33.013  17.551   7.134  0.00  0.00     0.123 C 
HETATM   14  C   UNK N   1      33.730  17.598   8.481  0.00  0.00     0.026 C 
BRANCH  12  15
HETATM   15  C   UNK N   1      30.564  17.237   6.796  0.00  0.00     0.032 A 
HETATM   16  C   UNK N   1      30.290  17.376   5.428  0.00  0.00     0.046 A 
HETATM   17  C   UNK N   1      29.057  17.888   5.018  0.00  0.00     0.089 A 
HETATM   18  N   UNK N   1      28.127  18.256   5.940  0.00  0.00    -0.375 N 
HETATM   19  C   UNK N   1      28.365  18.137   7.273  0.00  0.00     0.089 A 
ATOM     20  HN  UNK N   1      27.232  18.631   5.625  1.00  0.00     0.164 HD
HETATM   21  C   UNK N   1      29.583  17.625   7.724  0.00  0.00     0.046 A 
ENDBRANCH  12  15
ENDBRANCH   8   9
ENDBRANCH   7   8
BRANCH   4  22
HETATM   22  S   UNK N   1      36.384  11.674  12.465  0.00  0.00     0.234 S 
HETATM   23  O   UNK N   1      37.157  12.883  13.024  0.00  0.00    -0.207 OA
HETATM   24  O   UNK N   1      34.988  12.322  12.351  0.00  0.00    -0.207 OA
BRANCH  22  25
HETATM   25  C   UNK N   1      35.986  12.200  14.131  0.00  0.00     0.127 C 
HETATM   26  C   UNK N   1      36.098  11.408  15.206  0.00  0.00     0.024 C 
BRANCH  26  27
HETATM   27  C   UNK N   1      35.703  11.910  16.530  0.00  0.00    -0.035 A 
HETATM   28  C   UNK N   1      35.433  13.271  16.706  0.00  0.00     0.013 A 
HETATM   29  C   UNK N   1      35.086  13.756  17.973  0.00  0.00     0.024 A 
HETATM   30  C   UNK N   1      35.006  12.880  19.062  0.00  0.00     0.034 A 
HETATM   31 Cl   UNK N   1      34.573  13.482  20.646  0.00  0.00    -0.084 Cl
HETATM   32  C   UNK N   1      35.272  11.522  18.888  0.00  0.00     0.024 A 
HETATM   33  C   UNK N   1      35.622  11.039  17.629  0.00  0.00     0.013 A 
ENDBRANCH  26  27
ENDBRANCH  22  25
ENDBRANCH   4  22
TORSDOF 6
ENDMDL
