REMARK  6 active torsions:
REMARK  status: ('A' for Active; 'I' for Inactive)
REMARK    1  A    between atoms: C_1  and  C_5 
REMARK    2  A    between atoms: C_2  and  S_4 
REMARK    3  A    between atoms: S_4  and  N_11 
REMARK    4  A    between atoms: N_16  and  C_20 
REMARK    5  A    between atoms: C_20  and  C_28 
REMARK    6  A    between atoms: N_22  and  C_23 
ROOT
HETATM    1  C   UNK N   1       2.563  -2.152  -0.263  0.00  0.00     0.233 C 
HETATM    2  O   UNK N   1       3.456  -2.572  -0.980  0.00  0.00    -0.272 OA
HETATM    3  C   UNK N   1       1.159  -2.708  -0.433  0.00  0.00     0.210 C 
HETATM    4  N   UNK N   1       0.102  -2.046   0.377  0.00  0.00    -0.197 NA
HETATM    5  C   UNK N   1       1.756  -0.696   1.503  0.00  0.00     0.141 C 
HETATM    6  C   UNK N   1       0.472  -0.666   0.717  0.00  0.00     0.128 C 
HETATM    7  N   UNK N   1       2.800  -1.140   0.622  0.00  0.00    -0.350 N 
ENDROOT
BRANCH   7   8
HETATM    8  C   UNK N   1       4.051  -0.412   0.634  0.00  0.00     0.130 C 
BRANCH   8   9
HETATM    9  C   UNK N   1       4.196   0.517  -0.594  0.00  0.00     0.007 C 
HETATM   10  C   UNK N   1       4.995   1.768  -0.212  0.00  0.00     0.026 C 
HETATM   11  C   UNK N   1       4.182   2.663   0.733  0.00  0.00     0.123 C 
HETATM   12  N   UNK N   1       2.884   2.953   0.151  0.00  0.00    -0.381 N 
HETATM   13  C   UNK N   1       2.066   1.845  -0.288  0.00  0.00     0.123 C 
HETATM   14  C   UNK N   1       2.866   0.957  -1.238  0.00  0.00     0.026 C 
BRANCH  12  15
HETATM   15  C   UNK N   1       2.400   4.292   0.048  0.00  0.00     0.032 A 
HETATM   16  C   UNK N   1       3.191   5.374   0.460  0.00  0.00     0.046 A 
HETATM   17  C   UNK N   1       2.687   6.673   0.369  0.00  0.00     0.089 A 
HETATM   18  N   UNK N   1       1.434   6.890  -0.112  0.00  0.00    -0.375 N 
HETATM   19  C   UNK N   1       0.642   5.861  -0.516  0.00  0.00     0.089 A 
ATOM     20  HN  UNK N   1       1.079   7.845  -0.170  1.00  0.00     0.164 HD
HETATM   21  C   UNK N   1       1.110   4.548  -0.445  0.00  0.00     0.046 A 
ENDBRANCH  12  15
ENDBRANCH   8   9
ENDBRANCH   7   8
BRANCH   4  22
HETATM   22  S   UNK N   1      -1.421  -1.996  -0.572  0.00  0.00     0.234 S 
HETATM   23  O   UNK N   1      -1.350  -3.468  -0.127  0.00  0.00    -0.207 OA
HETATM   24  O   UNK N   1      -2.007  -1.389   0.720  0.00  0.00    -0.207 OA
BRANCH  22  25
HETATM   25  C   UNK N   1      -2.976  -2.852  -0.329  0.00  0.00     0.127 C 
HETATM   26  C   UNK N   1      -4.171  -2.312  -0.605  0.00  0.00     0.024 C 
BRANCH  26  27
HETATM   27  C   UNK N   1      -5.399  -3.072  -0.329  0.00  0.00    -0.035 A 
HETATM   28  C   UNK N   1      -6.646  -2.454  -0.467  0.00  0.00     0.013 A 
HETATM   29  C   UNK N   1      -7.815  -3.167  -0.176  0.00  0.00     0.024 A 
HETATM   30  C   UNK N   1      -7.737  -4.498   0.250  0.00  0.00     0.034 A 
HETATM   31 Cl   UNK N   1      -9.195  -5.393   0.615  0.00  0.00    -0.084 Cl
HETATM   32  C   UNK N   1      -6.495  -5.117   0.386  0.00  0.00     0.024 A 
HETATM   33  C   UNK N   1      -5.330  -4.407   0.101  0.00  0.00     0.013 A 
ENDBRANCH  26  27
ENDBRANCH  22  25
ENDBRANCH   4  22
TORSDOF 6
