REMARK  6 active torsions:
REMARK  status: ('A' for Active; 'I' for Inactive)
REMARK    1  A    between atoms: C_1  and  C_9 
REMARK    2  A    between atoms: C_1  and  N_29 
REMARK    3  A    between atoms: N_3  and  C_4 
REMARK    4  A    between atoms: C_15  and  C_19 
REMARK    5  A    between atoms: C_16  and  S_18 
REMARK    6  A    between atoms: S_18  and  N_24 
ROOT
HETATM    1  C   UNK N   1       2.822   0.547  -0.628  0.00  0.00     0.132 C 
HETATM    2  C   UNK N   1       2.648  -0.128   0.739  0.00  0.00     0.127 C 
HETATM    3  N   UNK N   1       1.380  -0.861   0.891  0.00  0.00    -0.204 NA
HETATM    4  C   UNK N   1       0.386   0.451  -0.964  0.00  0.00     0.132 C 
HETATM    5  C   UNK N   1       0.212  -0.104   0.446  0.00  0.00     0.127 C 
HETATM    6  N   UNK N   1       1.610   1.237  -1.078  0.00  0.00    -0.410 N 
ENDROOT
BRANCH   6   7
HETATM    7  C   UNK N   1       1.460   2.671  -0.786  0.00  0.00     0.121 C 
BRANCH   7   8
HETATM    8  C   UNK N   1       1.630   3.133   0.679  0.00  0.00     0.006 C 
HETATM    9  C   UNK N   1       1.320   4.617   0.787  0.00  0.00     0.026 C 
HETATM   10  C   UNK N   1      -0.129   4.940   0.387  0.00  0.00     0.123 C 
HETATM   11  N   UNK N   1      -1.112   3.899   0.686  0.00  0.00    -0.381 N 
HETATM   12  C   UNK N   1      -0.760   2.646   1.350  0.00  0.00     0.123 C 
HETATM   13  C   UNK N   1       0.718   2.475   1.694  0.00  0.00     0.026 C 
BRANCH  11  14
HETATM   14  C   UNK N   1      -2.459   4.059   0.228  0.00  0.00     0.032 A 
HETATM   15  C   UNK N   1      -2.861   5.238  -0.422  0.00  0.00     0.046 A 
HETATM   16  C   UNK N   1      -4.175   5.363  -0.882  0.00  0.00     0.089 A 
HETATM   17  N   UNK N   1      -5.061   4.347  -0.708  0.00  0.00    -0.375 N 
HETATM   18  C   UNK N   1      -4.702   3.193  -0.085  0.00  0.00     0.089 A 
ATOM     19  HN  UNK N   1      -6.016   4.453  -1.052  1.00  0.00     0.164 HD
HETATM   20  C   UNK N   1      -3.401   3.031   0.393  0.00  0.00     0.046 A 
ENDBRANCH  11  14
ENDBRANCH   7   8
ENDBRANCH   6   7
BRANCH   3  21
HETATM   21  S   UNK N   1       1.342  -2.505   0.213  0.00  0.00     0.233 S 
HETATM   22  O   UNK N   1       2.790  -2.911  -0.101  0.00  0.00    -0.207 OA
HETATM   23  O   UNK N   1       1.011  -3.364   1.444  0.00  0.00    -0.207 OA
BRANCH  21  24
HETATM   24  C   UNK N   1       0.135  -2.767  -1.103  0.00  0.00     0.127 C 
HETATM   25  C   UNK N   1      -0.514  -3.912  -1.365  0.00  0.00     0.024 C 
BRANCH  25  26
HETATM   26  C   UNK N   1      -0.223  -5.251  -0.822  0.00  0.00    -0.035 A 
HETATM   27  C   UNK N   1      -1.275  -6.167  -0.701  0.00  0.00     0.013 A 
HETATM   28  C   UNK N   1      -1.029  -7.472  -0.268  0.00  0.00     0.024 A 
HETATM   29  C   UNK N   1       0.276  -7.878   0.021  0.00  0.00     0.034 A 
HETATM   30 Cl   UNK N   1       0.586  -9.525   0.526  0.00  0.00    -0.084 Cl
HETATM   31  C   UNK N   1       1.334  -6.973  -0.110  0.00  0.00     0.024 A 
HETATM   32  C   UNK N   1       1.086  -5.662  -0.529  0.00  0.00     0.013 A 
ENDBRANCH  25  26
ENDBRANCH  21  24
ENDBRANCH   3  21
TORSDOF 6
