MODEL 1
REMARK VINA RESULT:      -8.2      0.000      0.000
REMARK  6 active torsions:
REMARK  status: ('A' for Active; 'I' for Inactive)
REMARK    1  A    between atoms: C_1  and  C_9 
REMARK    2  A    between atoms: C_1  and  N_29 
REMARK    3  A    between atoms: N_3  and  C_4 
REMARK    4  A    between atoms: C_15  and  C_19 
REMARK    5  A    between atoms: C_16  and  S_18 
REMARK    6  A    between atoms: S_18  and  N_24 
ROOT
HETATM    1  C   UNK N   1      34.983  14.561  11.959  0.00  0.00     0.132 C 
HETATM    2  C   UNK N   1      35.992  15.302  11.071  0.00  0.00     0.127 C 
HETATM    3  N   UNK N   1      36.031  14.826   9.679  0.00  0.00    -0.204 NA
HETATM    4  C   UNK N   1      34.995  12.681  10.370  0.00  0.00     0.132 C 
HETATM    5  C   UNK N   1      36.089  13.370   9.561  0.00  0.00     0.127 C 
HETATM    6  N   UNK N   1      35.017  13.109  11.765  0.00  0.00    -0.410 N 
ENDROOT
BRANCH   6   7
HETATM    7  C   UNK N   1      35.860  12.294  12.654  0.00  0.00     0.121 C 
BRANCH   7   8
HETATM    8  C   UNK N   1      35.474  10.811  12.859  0.00  0.00     0.006 C 
HETATM    9  C   UNK N   1      36.506  10.131  13.743  0.00  0.00     0.026 C 
HETATM   10  C   UNK N   1      36.585  10.765  15.141  0.00  0.00     0.123 C 
HETATM   11  N   UNK N   1      35.329  11.306  15.659  0.00  0.00    -0.381 N 
HETATM   12  C   UNK N   1      34.070  11.226  14.923  0.00  0.00     0.123 C 
HETATM   13  C   UNK N   1      34.150  10.559  13.551  0.00  0.00     0.026 C 
BRANCH  11  14
HETATM   14  C   UNK N   1      35.338  12.032  16.893  0.00  0.00     0.032 A 
HETATM   15  C   UNK N   1      35.326  13.437  16.900  0.00  0.00     0.046 A 
HETATM   16  C   UNK N   1      35.312  14.125  18.116  0.00  0.00     0.089 A 
HETATM   17  N   UNK N   1      35.303  13.440  19.290  0.00  0.00    -0.375 N 
HETATM   18  C   UNK N   1      35.312  12.081  19.317  0.00  0.00     0.089 A 
ATOM     19  HN  UNK N   1      35.289  13.958  20.170  1.00  0.00     0.164 HD
HETATM   20  C   UNK N   1      35.331  11.357  18.124  0.00  0.00     0.046 A 
ENDBRANCH  11  14
ENDBRANCH   7   8
ENDBRANCH   6   7
BRANCH   3  21
HETATM   21  S   UNK N   1      34.783  15.481   8.594  0.00  0.00     0.233 S 
HETATM   22  O   UNK N   1      35.007  14.867   7.204  0.00  0.00    -0.207 OA
HETATM   23  O   UNK N   1      33.513  14.763   9.078  0.00  0.00    -0.207 OA
BRANCH  21  24
HETATM   24  C   UNK N   1      34.575  17.273   8.653  0.00  0.00     0.127 C 
HETATM   25  C   UNK N   1      33.707  17.993   7.926  0.00  0.00     0.024 C 
BRANCH  25  26
HETATM   26  C   UNK N   1      32.918  17.541   6.766  0.00  0.00    -0.035 A 
HETATM   27  C   UNK N   1      31.579  17.183   6.966  0.00  0.00     0.013 A 
HETATM   28  C   UNK N   1      30.774  16.827   5.881  0.00  0.00     0.024 A 
HETATM   29  C   UNK N   1      31.296  16.853   4.586  0.00  0.00     0.034 A 
HETATM   30 Cl   UNK N   1      30.273  16.444   3.225  0.00  0.00    -0.084 Cl
HETATM   31  C   UNK N   1      32.628  17.222   4.376  0.00  0.00     0.024 A 
HETATM   32  C   UNK N   1      33.439  17.564   5.463  0.00  0.00     0.013 A 
ENDBRANCH  25  26
ENDBRANCH  21  24
ENDBRANCH   3  21
TORSDOF 6
ENDMDL
MODEL 2
REMARK VINA RESULT:      -8.2      4.138      9.981
REMARK  6 active torsions:
REMARK  status: ('A' for Active; 'I' for Inactive)
REMARK    1  A    between atoms: C_1  and  C_9 
REMARK    2  A    between atoms: C_1  and  N_29 
REMARK    3  A    between atoms: N_3  and  C_4 
REMARK    4  A    between atoms: C_15  and  C_19 
REMARK    5  A    between atoms: C_16  and  S_18 
REMARK    6  A    between atoms: S_18  and  N_24 
ROOT
HETATM    1  C   UNK N   1      33.147  14.219   9.362  0.00  0.00     0.132 C 
HETATM    2  C   UNK N   1      33.590  12.751   9.322  0.00  0.00     0.127 C 
HETATM    3  N   UNK N   1      35.001  12.538   9.684  0.00  0.00    -0.204 NA
HETATM    4  C   UNK N   1      35.501  14.914   9.179  0.00  0.00     0.132 C 
HETATM    5  C   UNK N   1      35.920  13.456   9.015  0.00  0.00     0.127 C 
HETATM    6  N   UNK N   1      34.123  15.123   8.747  0.00  0.00    -0.410 N 
ENDROOT
BRANCH   6   7
HETATM    7  C   UNK N   1      33.962  15.482   7.329  0.00  0.00     0.121 C 
BRANCH   7   8
HETATM    8  C   UNK N   1      34.287  16.933   6.909  0.00  0.00     0.006 C 
HETATM    9  C   UNK N   1      33.482  17.301   5.673  0.00  0.00     0.026 C 
HETATM   10  C   UNK N   1      31.967  17.243   5.926  0.00  0.00     0.123 C 
HETATM   11  N   UNK N   1      31.541  17.586   7.283  0.00  0.00    -0.381 N 
HETATM   12  C   UNK N   1      32.479  17.991   8.327  0.00  0.00     0.123 C 
HETATM   13  C   UNK N   1      33.951  18.010   7.921  0.00  0.00     0.026 C 
BRANCH  11  14
HETATM   14  C   UNK N   1      30.164  17.429   7.643  0.00  0.00     0.032 A 
HETATM   15  C   UNK N   1      29.713  17.785   8.925  0.00  0.00     0.046 A 
HETATM   16  C   UNK N   1      28.360  17.646   9.247  0.00  0.00     0.089 A 
HETATM   17  N   UNK N   1      27.481  17.174   8.323  0.00  0.00    -0.375 N 
HETATM   18  C   UNK N   1      27.887  16.824   7.074  0.00  0.00     0.089 A 
ATOM     19  HN  UNK N   1      26.496  17.081   8.573  1.00  0.00     0.164 HD
HETATM   20  C   UNK N   1      29.230  16.943   6.715  0.00  0.00     0.046 A 
ENDBRANCH  11  14
ENDBRANCH   7   8
ENDBRANCH   6   7
BRANCH   3  21
HETATM   21  S   UNK N   1      35.360  12.469  11.425  0.00  0.00     0.233 S 
HETATM   22  O   UNK N   1      34.687  13.683  12.085  0.00  0.00    -0.207 OA
HETATM   23  O   UNK N   1      34.482  11.299  11.899  0.00  0.00    -0.207 OA
BRANCH  21  24
HETATM   24  C   UNK N   1      37.093  12.190  11.843  0.00  0.00     0.127 C 
HETATM   25  C   UNK N   1      37.586  11.982  13.074  0.00  0.00     0.024 C 
BRANCH  25  26
HETATM   26  C   UNK N   1      36.894  12.175  14.361  0.00  0.00    -0.035 A 
HETATM   27  C   UNK N   1      36.556  11.044  15.114  0.00  0.00     0.013 A 
HETATM   28  C   UNK N   1      35.973  11.185  16.376  0.00  0.00     0.024 A 
HETATM   29  C   UNK N   1      35.749  12.459  16.904  0.00  0.00     0.034 A 
HETATM   30 Cl   UNK N   1      35.054  12.631  18.501  0.00  0.00    -0.084 Cl
HETATM   31  C   UNK N   1      36.096  13.593  16.164  0.00  0.00     0.024 A 
HETATM   32  C   UNK N   1      36.666  13.452  14.894  0.00  0.00     0.013 A 
ENDBRANCH  25  26
ENDBRANCH  21  24
ENDBRANCH   3  21
TORSDOF 6
ENDMDL
MODEL 3
REMARK VINA RESULT:      -8.1      1.676      1.957
REMARK  6 active torsions:
REMARK  status: ('A' for Active; 'I' for Inactive)
REMARK    1  A    between atoms: C_1  and  C_9 
REMARK    2  A    between atoms: C_1  and  N_29 
REMARK    3  A    between atoms: N_3  and  C_4 
REMARK    4  A    between atoms: C_15  and  C_19 
REMARK    5  A    between atoms: C_16  and  S_18 
REMARK    6  A    between atoms: S_18  and  N_24 
ROOT
HETATM    1  C   UNK N   1      35.110  13.809  12.810  0.00  0.00     0.132 C 
HETATM    2  C   UNK N   1      36.083  14.859  12.255  0.00  0.00     0.127 C 
HETATM    3  N   UNK N   1      36.215  14.841  10.789  0.00  0.00    -0.204 NA
HETATM    4  C   UNK N   1      35.345  12.519  10.727  0.00  0.00     0.132 C 
HETATM    5  C   UNK N   1      36.405  13.501  10.237  0.00  0.00     0.127 C 
HETATM    6  N   UNK N   1      35.278  12.494  12.185  0.00  0.00    -0.410 N 
ENDROOT
BRANCH   6   7
HETATM    7  C   UNK N   1      36.155  11.507  12.833  0.00  0.00     0.121 C 
BRANCH   7   8
HETATM    8  C   UNK N   1      35.557  10.124  13.177  0.00  0.00     0.006 C 
HETATM    9  C   UNK N   1      36.425   9.436  14.218  0.00  0.00     0.026 C 
HETATM   10  C   UNK N   1      36.493  10.227  15.534  0.00  0.00     0.123 C 
HETATM   11  N   UNK N   1      35.289  10.984  15.877  0.00  0.00    -0.381 N 
HETATM   12  C   UNK N   1      34.084  10.971  15.051  0.00  0.00     0.123 C 
HETATM   13  C   UNK N   1      34.167  10.131  13.779  0.00  0.00     0.026 C 
BRANCH  11  14
HETATM   14  C   UNK N   1      35.312  11.854  17.014  0.00  0.00     0.032 A 
HETATM   15  C   UNK N   1      35.296  13.249  16.851  0.00  0.00     0.046 A 
HETATM   16  C   UNK N   1      35.295  14.079  17.976  0.00  0.00     0.089 A 
HETATM   17  N   UNK N   1      35.303  13.541  19.224  0.00  0.00    -0.375 N 
HETATM   18  C   UNK N   1      35.316  12.195  19.415  0.00  0.00     0.089 A 
ATOM     19  HN  UNK N   1      35.300  14.161  20.035  1.00  0.00     0.164 HD
HETATM   20  C   UNK N   1      35.323  11.332  18.318  0.00  0.00     0.046 A 
ENDBRANCH  11  14
ENDBRANCH   7   8
ENDBRANCH   6   7
BRANCH   3  21
HETATM   21  S   UNK N   1      34.956  15.708   9.880  0.00  0.00     0.233 S 
HETATM   22  O   UNK N   1      33.595  15.270  10.441  0.00  0.00    -0.207 OA
HETATM   23  O   UNK N   1      35.094  17.144  10.411  0.00  0.00    -0.207 OA
BRANCH  21  24
HETATM   24  C   UNK N   1      35.134  15.661   8.084  0.00  0.00     0.127 C 
HETATM   25  C   UNK N   1      34.291  16.204   7.192  0.00  0.00     0.024 C 
BRANCH  25  26
HETATM   26  C   UNK N   1      32.938  16.731   7.443  0.00  0.00    -0.035 A 
HETATM   27  C   UNK N   1      31.838  15.997   6.984  0.00  0.00     0.013 A 
HETATM   28  C   UNK N   1      30.538  16.418   7.271  0.00  0.00     0.024 A 
HETATM   29  C   UNK N   1      30.329  17.563   8.043  0.00  0.00     0.034 A 
HETATM   30 Cl   UNK N   1      28.699  18.067   8.433  0.00  0.00    -0.084 Cl
HETATM   31  C   UNK N   1      31.422  18.295   8.516  0.00  0.00     0.024 A 
HETATM   32  C   UNK N   1      32.724  17.882   8.216  0.00  0.00     0.013 A 
ENDBRANCH  25  26
ENDBRANCH  21  24
ENDBRANCH   3  21
TORSDOF 6
ENDMDL
MODEL 4
REMARK VINA RESULT:      -8.0      4.101      9.995
REMARK  6 active torsions:
REMARK  status: ('A' for Active; 'I' for Inactive)
REMARK    1  A    between atoms: C_1  and  C_9 
REMARK    2  A    between atoms: C_1  and  N_29 
REMARK    3  A    between atoms: N_3  and  C_4 
REMARK    4  A    between atoms: C_15  and  C_19 
REMARK    5  A    between atoms: C_16  and  S_18 
REMARK    6  A    between atoms: S_18  and  N_24 
ROOT
HETATM    1  C   UNK N   1      36.023  14.727   9.095  0.00  0.00     0.132 C 
HETATM    2  C   UNK N   1      36.044  15.711  10.272  0.00  0.00     0.127 C 
HETATM    3  N   UNK N   1      35.133  15.353  11.372  0.00  0.00    -0.204 NA
HETATM    4  C   UNK N   1      33.817  13.922   9.832  0.00  0.00     0.132 C 
HETATM    5  C   UNK N   1      33.791  14.988  10.923  0.00  0.00     0.127 C 
HETATM    6  N   UNK N   1      34.666  14.326   8.716  0.00  0.00    -0.410 N 
ENDROOT
BRANCH   6   7
HETATM    7  C   UNK N   1      33.979  15.068   7.647  0.00  0.00     0.121 C 
BRANCH   7   8
HETATM    8  C   UNK N   1      34.525  16.463   7.268  0.00  0.00     0.006 C 
HETATM    9  C   UNK N   1      33.866  16.940   5.984  0.00  0.00     0.026 C 
HETATM   10  C   UNK N   1      32.342  17.086   6.131  0.00  0.00     0.123 C 
HETATM   11  N   UNK N   1      31.872  17.479   7.459  0.00  0.00    -0.381 N 
HETATM   12  C   UNK N   1      32.780  17.751   8.571  0.00  0.00     0.123 C 
HETATM   13  C   UNK N   1      34.266  17.572   8.268  0.00  0.00     0.026 C 
BRANCH  11  14
HETATM   14  C   UNK N   1      30.465  17.509   7.721  0.00  0.00     0.032 A 
HETATM   15  C   UNK N   1      29.965  18.102   8.892  0.00  0.00     0.046 A 
HETATM   16  C   UNK N   1      28.585  18.140   9.115  0.00  0.00     0.089 A 
HETATM   17  N   UNK N   1      27.729  17.612   8.202  0.00  0.00    -0.375 N 
HETATM   18  C   UNK N   1      28.181  17.034   7.058  0.00  0.00     0.089 A 
ATOM     19  HN  UNK N   1      26.724  17.651   8.379  1.00  0.00     0.164 HD
HETATM   20  C   UNK N   1      29.551  16.971   6.800  0.00  0.00     0.046 A 
ENDBRANCH  11  14
ENDBRANCH   7   8
ENDBRANCH   6   7
BRANCH   3  21
HETATM   21  S   UNK N   1      35.743  14.147  12.530  0.00  0.00     0.233 S 
HETATM   22  O   UNK N   1      34.628  13.115  12.755  0.00  0.00    -0.207 OA
HETATM   23  O   UNK N   1      36.762  13.364  11.687  0.00  0.00    -0.207 OA
BRANCH  21  24
HETATM   24  C   UNK N   1      36.515  14.827  14.013  0.00  0.00     0.127 C 
HETATM   25  C   UNK N   1      36.874  14.135  15.105  0.00  0.00     0.024 C 
BRANCH  25  26
HETATM   26  C   UNK N   1      36.510  12.748  15.448  0.00  0.00    -0.035 A 
HETATM   27  C   UNK N   1      37.254  11.704  14.886  0.00  0.00     0.013 A 
HETATM   28  C   UNK N   1      36.996  10.379  15.247  0.00  0.00     0.024 A 
HETATM   29  C   UNK N   1      36.009  10.093  16.193  0.00  0.00     0.034 A 
HETATM   30 Cl   UNK N   1      35.713   8.435  16.672  0.00  0.00    -0.084 Cl
HETATM   31  C   UNK N   1      35.270  11.132  16.768  0.00  0.00     0.024 A 
HETATM   32  C   UNK N   1      35.519  12.457  16.396  0.00  0.00     0.013 A 
ENDBRANCH  25  26
ENDBRANCH  21  24
ENDBRANCH   3  21
TORSDOF 6
ENDMDL
MODEL 5
REMARK VINA RESULT:      -7.8      4.324     10.593
REMARK  6 active torsions:
REMARK  status: ('A' for Active; 'I' for Inactive)
REMARK    1  A    between atoms: C_1  and  C_9 
REMARK    2  A    between atoms: C_1  and  N_29 
REMARK    3  A    between atoms: N_3  and  C_4 
REMARK    4  A    between atoms: C_15  and  C_19 
REMARK    5  A    between atoms: C_16  and  S_18 
REMARK    6  A    between atoms: S_18  and  N_24 
ROOT
HETATM    1  C   UNK N   1      36.320  13.156   9.576  0.00  0.00     0.132 C 
HETATM    2  C   UNK N   1      37.432  13.406  10.602  0.00  0.00     0.127 C 
HETATM    3  N   UNK N   1      36.953  13.542  11.988  0.00  0.00    -0.204 NA
HETATM    4  C   UNK N   1      34.678  14.078  11.160  0.00  0.00     0.132 C 
HETATM    5  C   UNK N   1      35.805  14.437  12.122  0.00  0.00     0.127 C 
HETATM    6  N   UNK N   1      35.154  14.020   9.782  0.00  0.00    -0.410 N 
ENDROOT
BRANCH   6   7
HETATM    7  C   UNK N   1      35.068  15.286   9.038  0.00  0.00     0.121 C 
BRANCH   7   8
HETATM    8  C   UNK N   1      33.916  16.255   9.389  0.00  0.00     0.006 C 
HETATM    9  C   UNK N   1      34.153  17.597   8.716  0.00  0.00     0.026 C 
HETATM   10  C   UNK N   1      34.183  17.483   7.183  0.00  0.00     0.123 C 
HETATM   11  N   UNK N   1      33.321  16.448   6.612  0.00  0.00    -0.381 N 
HETATM   12  C   UNK N   1      32.460  15.597   7.428  0.00  0.00     0.123 C 
HETATM   13  C   UNK N   1      32.533  15.836   8.935  0.00  0.00     0.026 C 
BRANCH  11  14
HETATM   14  C   UNK N   1      33.387  16.183   5.206  0.00  0.00     0.032 A 
HETATM   15  C   UNK N   1      34.078  15.061   4.719  0.00  0.00     0.046 A 
HETATM   16  C   UNK N   1      34.110  14.808   3.345  0.00  0.00     0.089 A 
HETATM   17  N   UNK N   1      33.470  15.640   2.481  0.00  0.00    -0.375 N 
HETATM   18  C   UNK N   1      32.791  16.733   2.921  0.00  0.00     0.089 A 
ATOM     19  HN  UNK N   1      33.500  15.440   1.480  1.00  0.00     0.164 HD
HETATM   20  C   UNK N   1      32.740  17.023   4.285  0.00  0.00     0.046 A 
ENDBRANCH  11  14
ENDBRANCH   7   8
ENDBRANCH   6   7
BRANCH   3  21
HETATM   21  S   UNK N   1      36.655  12.024  12.865  0.00  0.00     0.233 S 
HETATM   22  O   UNK N   1      37.639  10.975  12.324  0.00  0.00    -0.207 OA
HETATM   23  O   UNK N   1      37.223  12.329  14.260  0.00  0.00    -0.207 OA
BRANCH  21  24
HETATM   24  C   UNK N   1      34.925  11.520  12.965  0.00  0.00     0.127 C 
HETATM   25  C   UNK N   1      34.164  11.518  14.070  0.00  0.00     0.024 C 
BRANCH  25  26
HETATM   26  C   UNK N   1      34.611  11.682  15.466  0.00  0.00    -0.035 A 
HETATM   27  C   UNK N   1      34.574  12.960  16.035  0.00  0.00     0.013 A 
HETATM   28  C   UNK N   1      34.911  13.146  17.377  0.00  0.00     0.024 A 
HETATM   29  C   UNK N   1      35.261  12.049  18.168  0.00  0.00     0.034 A 
HETATM   30 Cl   UNK N   1      35.645  12.280  19.860  0.00  0.00    -0.084 Cl
HETATM   31  C   UNK N   1      35.288  10.767  17.611  0.00  0.00     0.024 A 
HETATM   32  C   UNK N   1      34.966  10.583  16.262  0.00  0.00     0.013 A 
ENDBRANCH  25  26
ENDBRANCH  21  24
ENDBRANCH   3  21
TORSDOF 6
ENDMDL
MODEL 6
REMARK VINA RESULT:      -7.6      4.311     10.881
REMARK  6 active torsions:
REMARK  status: ('A' for Active; 'I' for Inactive)
REMARK    1  A    between atoms: C_1  and  C_9 
REMARK    2  A    between atoms: C_1  and  N_29 
REMARK    3  A    between atoms: N_3  and  C_4 
REMARK    4  A    between atoms: C_15  and  C_19 
REMARK    5  A    between atoms: C_16  and  S_18 
REMARK    6  A    between atoms: S_18  and  N_24 
ROOT
HETATM    1  C   UNK N   1      34.656  13.197   9.136  0.00  0.00     0.132 C 
HETATM    2  C   UNK N   1      36.052  13.231   9.773  0.00  0.00     0.127 C 
HETATM    3  N   UNK N   1      36.073  13.757  11.148  0.00  0.00    -0.204 NA
HETATM    4  C   UNK N   1      33.892  14.875  10.766  0.00  0.00     0.132 C 
HETATM    5  C   UNK N   1      35.312  14.994  11.311  0.00  0.00     0.127 C 
HETATM    6  N   UNK N   1      33.892  14.423   9.379  0.00  0.00    -0.410 N 
ENDROOT
BRANCH   6   7
HETATM    7  C   UNK N   1      33.935  15.497   8.373  0.00  0.00     0.121 C 
BRANCH   7   8
HETATM    8  C   UNK N   1      33.665  16.943   8.847  0.00  0.00     0.006 C 
HETATM    9  C   UNK N   1      34.320  17.926   7.890  0.00  0.00     0.026 C 
HETATM   10  C   UNK N   1      33.756  17.814   6.464  0.00  0.00     0.123 C 
HETATM   11  N   UNK N   1      32.346  17.436   6.372  0.00  0.00    -0.381 N 
HETATM   12  C   UNK N   1      31.510  17.208   7.548  0.00  0.00     0.123 C 
HETATM   13  C   UNK N   1      32.211  17.366   8.896  0.00  0.00     0.026 C 
BRANCH  11  14
HETATM   14  C   UNK N   1      31.776  17.179   5.084  0.00  0.00     0.032 A 
HETATM   15  C   UNK N   1      30.397  16.946   4.943  0.00  0.00     0.046 A 
HETATM   16  C   UNK N   1      29.858  16.722   3.674  0.00  0.00     0.089 A 
HETATM   17  N   UNK N   1      30.660  16.734   2.577  0.00  0.00    -0.375 N 
HETATM   18  C   UNK N   1      31.997  16.958   2.680  0.00  0.00     0.089 A 
ATOM     19  HN  UNK N   1      30.251  16.571   1.656  1.00  0.00     0.164 HD
HETATM   20  C   UNK N   1      32.575  17.182   3.930  0.00  0.00     0.046 A 
ENDBRANCH  11  14
ENDBRANCH   7   8
ENDBRANCH   6   7
BRANCH   3  21
HETATM   21  S   UNK N   1      35.651  12.602  12.433  0.00  0.00     0.233 S 
HETATM   22  O   UNK N   1      36.961  12.139  13.089  0.00  0.00    -0.207 OA
HETATM   23  O   UNK N   1      35.038  13.512  13.509  0.00  0.00    -0.207 OA
BRANCH  21  24
HETATM   24  C   UNK N   1      34.496  11.302  11.950  0.00  0.00     0.127 C 
HETATM   25  C   UNK N   1      34.039  10.317  12.738  0.00  0.00     0.024 C 
BRANCH  25  26
HETATM   26  C   UNK N   1      34.544   9.925  14.066  0.00  0.00    -0.035 A 
HETATM   27  C   UNK N   1      35.584   8.989  14.137  0.00  0.00     0.013 A 
HETATM   28  C   UNK N   1      36.147   8.651  15.370  0.00  0.00     0.024 A 
HETATM   29  C   UNK N   1      35.692   9.267  16.538  0.00  0.00     0.034 A 
HETATM   30 Cl   UNK N   1      36.426   8.870  18.077  0.00  0.00    -0.084 Cl
HETATM   31  C   UNK N   1      34.663  10.212  16.475  0.00  0.00     0.024 A 
HETATM   32  C   UNK N   1      34.089  10.540  15.242  0.00  0.00     0.013 A 
ENDBRANCH  25  26
ENDBRANCH  21  24
ENDBRANCH   3  21
TORSDOF 6
ENDMDL
MODEL 7
REMARK VINA RESULT:      -7.6      1.730      2.415
REMARK  6 active torsions:
REMARK  status: ('A' for Active; 'I' for Inactive)
REMARK    1  A    between atoms: C_1  and  C_9 
REMARK    2  A    between atoms: C_1  and  N_29 
REMARK    3  A    between atoms: N_3  and  C_4 
REMARK    4  A    between atoms: C_15  and  C_19 
REMARK    5  A    between atoms: C_16  and  S_18 
REMARK    6  A    between atoms: S_18  and  N_24 
ROOT
HETATM    1  C   UNK N   1      35.774  13.375   9.499  0.00  0.00     0.132 C 
HETATM    2  C   UNK N   1      34.297  13.674   9.788  0.00  0.00     0.127 C 
HETATM    3  N   UNK N   1      34.016  15.089  10.083  0.00  0.00    -0.204 NA
HETATM    4  C   UNK N   1      36.401  15.456  10.656  0.00  0.00     0.132 C 
HETATM    5  C   UNK N   1      34.943  15.679  11.046  0.00  0.00     0.127 C 
HETATM    6  N   UNK N   1      36.681  14.040  10.439  0.00  0.00    -0.410 N 
ENDROOT
BRANCH   6   7
HETATM    7  C   UNK N   1      37.133  13.304  11.630  0.00  0.00     0.121 C 
BRANCH   7   8
HETATM    8  C   UNK N   1      36.473  11.940  11.931  0.00  0.00     0.006 C 
HETATM    9  C   UNK N   1      37.281  11.202  12.985  0.00  0.00     0.026 C 
HETATM   10  C   UNK N   1      37.339  11.968  14.317  0.00  0.00     0.123 C 
HETATM   11  N   UNK N   1      36.155  12.765  14.637  0.00  0.00    -0.381 N 
HETATM   12  C   UNK N   1      34.977  12.812  13.775  0.00  0.00     0.123 C 
HETATM   13  C   UNK N   1      35.066  11.990  12.491  0.00  0.00     0.026 C 
BRANCH  11  14
HETATM   14  C   UNK N   1      36.176  13.614  15.790  0.00  0.00     0.032 A 
HETATM   15  C   UNK N   1      35.347  13.348  16.893  0.00  0.00     0.046 A 
HETATM   16  C   UNK N   1      35.401  14.177  18.017  0.00  0.00     0.089 A 
HETATM   17  N   UNK N   1      36.256  15.233  18.048  0.00  0.00    -0.375 N 
HETATM   18  C   UNK N   1      37.073  15.515  16.998  0.00  0.00     0.089 A 
ATOM     19  HN  UNK N   1      36.286  15.827  18.878  1.00  0.00     0.164 HD
HETATM   20  C   UNK N   1      37.045  14.715  15.855  0.00  0.00     0.046 A 
ENDBRANCH  11  14
ENDBRANCH   7   8
ENDBRANCH   6   7
BRANCH   3  21
HETATM   21  S   UNK N   1      33.828  16.158   8.674  0.00  0.00     0.233 S 
HETATM   22  O   UNK N   1      32.325  16.284   8.384  0.00  0.00    -0.207 OA
HETATM   23  O   UNK N   1      34.175  17.538   9.257  0.00  0.00    -0.207 OA
BRANCH  21  24
HETATM   24  C   UNK N   1      34.884  15.766   7.264  0.00  0.00     0.127 C 
HETATM   25  C   UNK N   1      34.546  15.868   5.970  0.00  0.00     0.024 C 
BRANCH  25  26
HETATM   26  C   UNK N   1      33.198  16.075   5.410  0.00  0.00    -0.035 A 
HETATM   27  C   UNK N   1      32.857  17.350   4.942  0.00  0.00     0.013 A 
HETATM   28  C   UNK N   1      31.621  17.571   4.331  0.00  0.00     0.024 A 
HETATM   29  C   UNK N   1      30.728  16.511   4.157  0.00  0.00     0.034 A 
HETATM   30 Cl   UNK N   1      29.196  16.782   3.355  0.00  0.00    -0.084 Cl
HETATM   31  C   UNK N   1      31.067  15.231   4.609  0.00  0.00     0.024 A 
HETATM   32  C   UNK N   1      32.298  15.013   5.235  0.00  0.00     0.013 A 
ENDBRANCH  25  26
ENDBRANCH  21  24
ENDBRANCH   3  21
TORSDOF 6
ENDMDL
MODEL 8
REMARK VINA RESULT:      -7.5      4.134     10.721
REMARK  6 active torsions:
REMARK  status: ('A' for Active; 'I' for Inactive)
REMARK    1  A    between atoms: C_1  and  C_9 
REMARK    2  A    between atoms: C_1  and  N_29 
REMARK    3  A    between atoms: N_3  and  C_4 
REMARK    4  A    between atoms: C_15  and  C_19 
REMARK    5  A    between atoms: C_16  and  S_18 
REMARK    6  A    between atoms: S_18  and  N_24 
ROOT
HETATM    1  C   UNK N   1      34.488  13.321   9.111  0.00  0.00     0.132 C 
HETATM    2  C   UNK N   1      36.000  13.494   9.311  0.00  0.00     0.127 C 
HETATM    3  N   UNK N   1      36.367  14.176  10.563  0.00  0.00    -0.204 NA
HETATM    4  C   UNK N   1      34.087  15.139  10.721  0.00  0.00     0.132 C 
HETATM    5  C   UNK N   1      35.589  15.386  10.818  0.00  0.00     0.127 C 
HETATM    6  N   UNK N   1      33.730  14.531   9.443  0.00  0.00    -0.410 N 
ENDROOT
BRANCH   6   7
HETATM    7  C   UNK N   1      33.405  15.482   8.369  0.00  0.00     0.121 C 
BRANCH   7   8
HETATM    8  C   UNK N   1      33.341  16.984   8.726  0.00  0.00     0.006 C 
HETATM    9  C   UNK N   1      34.092  17.792   7.681  0.00  0.00     0.026 C 
HETATM   10  C   UNK N   1      33.477  17.645   6.279  0.00  0.00     0.123 C 
HETATM   11  N   UNK N   1      32.028  17.452   6.244  0.00  0.00    -0.381 N 
HETATM   12  C   UNK N   1      31.203  17.432   7.450  0.00  0.00     0.123 C 
HETATM   13  C   UNK N   1      31.958  17.600   8.767  0.00  0.00     0.026 C 
BRANCH  11  14
HETATM   14  C   UNK N   1      31.391  17.173   4.993  0.00  0.00     0.032 A 
HETATM   15  C   UNK N   1      32.153  16.925   3.839  0.00  0.00     0.046 A 
HETATM   16  C   UNK N   1      31.510  16.632   2.633  0.00  0.00     0.089 A 
HETATM   17  N   UNK N   1      30.153  16.579   2.575  0.00  0.00    -0.375 N 
HETATM   18  C   UNK N   1      29.388  16.812   3.675  0.00  0.00     0.089 A 
ATOM     19  HN  UNK N   1      29.699  16.361   1.687  1.00  0.00     0.164 HD
HETATM   20  C   UNK N   1      29.991  17.113   4.896  0.00  0.00     0.046 A 
ENDBRANCH  11  14
ENDBRANCH   7   8
ENDBRANCH   6   7
BRANCH   3  21
HETATM   21  S   UNK N   1      36.415  13.158  12.022  0.00  0.00     0.233 S 
HETATM   22  O   UNK N   1      35.438  11.992  11.806  0.00  0.00    -0.207 OA
HETATM   23  O   UNK N   1      37.787  12.474  11.904  0.00  0.00    -0.207 OA
BRANCH  21  24
HETATM   24  C   UNK N   1      36.267  14.047  13.585  0.00  0.00     0.127 C 
HETATM   25  C   UNK N   1      36.281  13.500  14.811  0.00  0.00     0.024 C 
BRANCH  25  26
HETATM   26  C   UNK N   1      36.170  12.071  15.155  0.00  0.00    -0.035 A 
HETATM   27  C   UNK N   1      34.901  11.544  15.424  0.00  0.00     0.013 A 
HETATM   28  C   UNK N   1      34.741  10.179  15.674  0.00  0.00     0.024 A 
HETATM   29  C   UNK N   1      35.847   9.327  15.631  0.00  0.00     0.034 A 
HETATM   30 Cl   UNK N   1      35.638   7.611  15.906  0.00  0.00    -0.084 Cl
HETATM   31  C   UNK N   1      37.116   9.843  15.350  0.00  0.00     0.024 A 
HETATM   32  C   UNK N   1      37.278  11.212  15.114  0.00  0.00     0.013 A 
ENDBRANCH  25  26
ENDBRANCH  21  24
ENDBRANCH   3  21
TORSDOF 6
ENDMDL
MODEL 9
REMARK VINA RESULT:      -7.5      8.818     13.384
REMARK  6 active torsions:
REMARK  status: ('A' for Active; 'I' for Inactive)
REMARK    1  A    between atoms: C_1  and  C_9 
REMARK    2  A    between atoms: C_1  and  N_29 
REMARK    3  A    between atoms: N_3  and  C_4 
REMARK    4  A    between atoms: C_15  and  C_19 
REMARK    5  A    between atoms: C_16  and  S_18 
REMARK    6  A    between atoms: S_18  and  N_24 
ROOT
HETATM    1  C   UNK N   1      25.083  16.682   4.460  0.00  0.00     0.132 C 
HETATM    2  C   UNK N   1      24.371  15.819   5.509  0.00  0.00     0.127 C 
HETATM    3  N   UNK N   1      22.906  15.967   5.516  0.00  0.00    -0.204 NA
HETATM    4  C   UNK N   1      23.109  18.148   4.354  0.00  0.00     0.132 C 
HETATM    5  C   UNK N   1      22.460  17.358   5.486  0.00  0.00     0.127 C 
HETATM    6  N   UNK N   1      24.564  18.052   4.405  0.00  0.00    -0.410 N 
ENDROOT
BRANCH   6   7
HETATM    7  C   UNK N   1      25.231  19.095   5.200  0.00  0.00     0.121 C 
BRANCH   7   8
HETATM    8  C   UNK N   1      26.261  20.000   4.487  0.00  0.00     0.006 C 
HETATM    9  C   UNK N   1      26.788  21.041   5.460  0.00  0.00     0.026 C 
HETATM   10  C   UNK N   1      27.513  20.405   6.658  0.00  0.00     0.123 C 
HETATM   11  N   UNK N   1      28.214  19.152   6.377  0.00  0.00    -0.381 N 
HETATM   12  C   UNK N   1      28.259  18.553   5.045  0.00  0.00     0.123 C 
HETATM   13  C   UNK N   1      27.500  19.307   3.957  0.00  0.00     0.026 C 
BRANCH  11  14
HETATM   14  C   UNK N   1      28.801  18.423   7.460  0.00  0.00     0.032 A 
HETATM   15  C   UNK N   1      29.968  17.664   7.266  0.00  0.00     0.046 A 
HETATM   16  C   UNK N   1      30.537  16.980   8.343  0.00  0.00     0.089 A 
HETATM   17  N   UNK N   1      29.971  17.051   9.577  0.00  0.00    -0.375 N 
HETATM   18  C   UNK N   1      28.844  17.779   9.797  0.00  0.00     0.089 A 
ATOM     19  HN  UNK N   1      30.401  16.548  10.353  1.00  0.00     0.164 HD
HETATM   20  C   UNK N   1      28.242  18.473   8.747  0.00  0.00     0.046 A 
ENDBRANCH  11  14
ENDBRANCH   7   8
ENDBRANCH   6   7
BRANCH   3  21
HETATM   21  S   UNK N   1      22.018  15.010   4.307  0.00  0.00     0.233 S 
HETATM   22  O   UNK N   1      22.242  15.670   2.938  0.00  0.00    -0.207 OA
HETATM   23  O   UNK N   1      22.866  13.732   4.208  0.00  0.00    -0.207 OA
BRANCH  21  24
HETATM   24  C   UNK N   1      20.309  14.622   4.737  0.00  0.00     0.127 C 
HETATM   25  C   UNK N   1      19.860  14.261   5.950  0.00  0.00     0.024 C 
BRANCH  25  26
HETATM   26  C   UNK N   1      20.663  13.866   7.121  0.00  0.00    -0.035 A 
HETATM   27  C   UNK N   1      20.640  14.685   8.256  0.00  0.00     0.013 A 
HETATM   28  C   UNK N   1      21.321  14.306   9.415  0.00  0.00     0.024 A 
HETATM   29  C   UNK N   1      22.007  13.090   9.456  0.00  0.00     0.034 A 
HETATM   30 Cl   UNK N   1      22.827  12.600  10.922  0.00  0.00    -0.084 Cl
HETATM   31  C   UNK N   1      22.024  12.260   8.331  0.00  0.00     0.024 A 
HETATM   32  C   UNK N   1      21.355  12.646   7.165  0.00  0.00     0.013 A 
ENDBRANCH  25  26
ENDBRANCH  21  24
ENDBRANCH   3  21
TORSDOF 6
ENDMDL
