MODEL 1
REMARK VINA RESULT:      -8.1      0.000      0.000
REMARK  2 active torsions:
REMARK  status: ('A' for Active; 'I' for Inactive)
REMARK    1  A    between atoms: C_9  and  C_8 
REMARK       I    between atoms: N_14  and  C_15 
REMARK    2  A    between atoms: C_22  and  O_23 
ROOT
HETATM    1  C   UNK N   1      22.203  16.616   5.793  0.00  0.00     0.166 C 
HETATM    2  C   UNK N   1      22.794  15.346   5.117  0.00  0.00     0.038 C 
HETATM    3  C   UNK N   1      22.799  15.146   3.608  0.00  0.00     0.160 C 
HETATM    4  O   UNK N   1      22.027  15.746   2.880  0.00  0.00    -0.293 OA
HETATM    5  C   UNK N   1      23.787  14.208   2.952  0.00  0.00     0.092 C 
HETATM    6  N   UNK N   1      21.326  16.519   7.004  0.00  0.00    -0.302 N 
HETATM    7  C   UNK N   1      20.719  17.695   7.475  0.00  0.00     0.221 C 
HETATM    8  C   UNK N   1      19.950  17.785   8.758  0.00  0.00     0.117 C 
HETATM    9  O   UNK N   1      20.851  18.750   6.873  0.00  0.00    -0.273 OA
HETATM   10  C   UNK N   1      21.304  15.337   7.874  0.00  0.00     0.068 A 
HETATM   11  C   UNK N   1      20.195  15.105   8.717  0.00  0.00     0.032 A 
HETATM   12  C   UNK N   1      20.181  14.096   9.676  0.00  0.00     0.005 A 
HETATM   13  C   UNK N   1      21.293  13.285   9.839  0.00  0.00     0.039 A 
HETATM   14  C   UNK N   1      22.405  13.462   9.023  0.00  0.00     0.094 A 
HETATM   15  C   UNK N   1      22.423  14.465   8.031  0.00  0.00     0.093 A 
HETATM   16  N   UNK N   1      23.581  14.563   7.245  0.00  0.00    -0.355 N 
HETATM   17  C   UNK N   1      23.489  14.453   5.850  0.00  0.00     0.022 C 
HETATM   18  C   UNK N   1      24.180  13.279   5.200  0.00  0.00     0.067 C 
HETATM   19  C   UNK N   1      24.863  13.697   3.908  0.00  0.00    -0.036 C 
HETATM   20  C   UNK N   1      25.923  14.758   4.176  0.00  0.00     0.015 C 
HETATM   21  C   UNK N   1      25.541  12.498   3.280  0.00  0.00     0.015 C 
HETATM   22  H   UNK N   1      24.457  14.707   7.671  0.00  0.00     0.166 HD
ENDROOT
BRANCH   1  23
HETATM   23  C   UNK N   1      21.735  17.619   4.722  0.00  0.00    -0.008 A 
HETATM   24  C   UNK N   1      20.452  17.590   4.107  0.00  0.00     0.044 A 
HETATM   25  C   UNK N   1      20.134  18.536   3.122  0.00  0.00     0.048 A 
HETATM   26 Cl   UNK N   1      19.226  16.403   4.532  0.00  0.00    -0.084 Cl
HETATM   27  C   UNK N   1      21.070  19.497   2.730  0.00  0.00     0.035 A 
HETATM   28 Cl   UNK N   1      20.668  20.669   1.493  0.00  0.00    -0.084 Cl
HETATM   29  C   UNK N   1      22.331  19.523   3.319  0.00  0.00     0.024 A 
HETATM   30  C   UNK N   1      22.657  18.597   4.307  0.00  0.00     0.013 A 
ENDBRANCH   1  23
BRANCH  14  31
HETATM   31  O   UNK N   1      23.471  12.659   9.189  0.00  0.00    -0.358 OA
HETATM   32  H   UNK N   1      23.542  11.822   8.773  0.00  0.00     0.217 HD
ENDBRANCH  14  31
TORSDOF 2
ENDMDL
MODEL 2
REMARK VINA RESULT:      -7.9      4.993      7.387
REMARK  2 active torsions:
REMARK  status: ('A' for Active; 'I' for Inactive)
REMARK    1  A    between atoms: C_9  and  C_8 
REMARK       I    between atoms: N_14  and  C_15 
REMARK    2  A    between atoms: C_22  and  O_23 
ROOT
HETATM    1  C   UNK N   1      27.001  17.575   6.166  0.00  0.00     0.166 C 
HETATM    2  C   UNK N   1      26.429  16.235   5.622  0.00  0.00     0.038 C 
HETATM    3  C   UNK N   1      27.288  14.994   5.424  0.00  0.00     0.160 C 
HETATM    4  O   UNK N   1      28.499  15.068   5.305  0.00  0.00    -0.293 OA
HETATM    5  C   UNK N   1      26.667  13.616   5.393  0.00  0.00     0.092 C 
HETATM    6  N   UNK N   1      26.644  18.889   5.540  0.00  0.00    -0.302 N 
HETATM    7  C   UNK N   1      27.306  20.040   5.998  0.00  0.00     0.221 C 
HETATM    8  C   UNK N   1      26.946  21.434   5.584  0.00  0.00     0.117 C 
HETATM    9  O   UNK N   1      28.194  19.958   6.834  0.00  0.00    -0.273 OA
HETATM   10  C   UNK N   1      25.456  19.068   4.698  0.00  0.00     0.068 A 
HETATM   11  C   UNK N   1      25.388  20.156   3.800  0.00  0.00     0.032 A 
HETATM   12  C   UNK N   1      24.232  20.471   3.092  0.00  0.00     0.005 A 
HETATM   13  C   UNK N   1      23.086  19.712   3.269  0.00  0.00     0.039 A 
HETATM   14  C   UNK N   1      23.105  18.620   4.129  0.00  0.00     0.094 A 
HETATM   15  C   UNK N   1      24.277  18.275   4.834  0.00  0.00     0.093 A 
HETATM   16  N   UNK N   1      24.209  17.149   5.670  0.00  0.00    -0.355 N 
HETATM   17  C   UNK N   1      25.098  16.081   5.475  0.00  0.00     0.022 C 
HETATM   18  C   UNK N   1      24.505  14.753   5.070  0.00  0.00     0.067 C 
HETATM   19  C   UNK N   1      25.194  13.607   5.793  0.00  0.00    -0.036 C 
HETATM   20  C   UNK N   1      25.022  13.740   7.301  0.00  0.00     0.015 C 
HETATM   21  C   UNK N   1      24.581  12.291   5.362  0.00  0.00     0.015 C 
HETATM   22  H   UNK N   1      23.540  17.107   6.390  0.00  0.00     0.166 HD
ENDROOT
BRANCH   1  23
HETATM   23  C   UNK N   1      28.487  17.406   6.536  0.00  0.00    -0.008 A 
HETATM   24  C   UNK N   1      28.962  17.206   7.862  0.00  0.00     0.044 A 
HETATM   25  C   UNK N   1      30.340  17.089   8.094  0.00  0.00     0.048 A 
HETATM   26 Cl   UNK N   1      27.884  17.096   9.247  0.00  0.00    -0.084 Cl
HETATM   27  C   UNK N   1      31.250  17.182   7.038  0.00  0.00     0.035 A 
HETATM   28 Cl   UNK N   1      32.969  17.044   7.337  0.00  0.00    -0.084 Cl
HETATM   29  C   UNK N   1      30.793  17.390   5.740  0.00  0.00     0.024 A 
HETATM   30  C   UNK N   1      29.426  17.496   5.492  0.00  0.00     0.013 A 
ENDBRANCH   1  23
BRANCH  14  31
HETATM   31  O   UNK N   1      21.987  17.889   4.281  0.00  0.00    -0.358 OA
HETATM   32  H   UNK N   1      21.921  17.191   4.903  0.00  0.00     0.217 HD
ENDBRANCH  14  31
TORSDOF 2
ENDMDL
MODEL 3
REMARK VINA RESULT:      -7.6     14.369     16.548
REMARK  2 active torsions:
REMARK  status: ('A' for Active; 'I' for Inactive)
REMARK    1  A    between atoms: C_9  and  C_8 
REMARK       I    between atoms: N_14  and  C_15 
REMARK    2  A    between atoms: C_22  and  O_23 
ROOT
HETATM    1  C   UNK N   1      27.743  22.212  -7.253  0.00  0.00     0.166 C 
HETATM    2  C   UNK N   1      29.175  22.273  -6.650  0.00  0.00     0.038 C 
HETATM    3  C   UNK N   1      29.703  23.495  -5.910  0.00  0.00     0.160 C 
HETATM    4  O   UNK N   1      29.217  24.601  -6.073  0.00  0.00    -0.293 OA
HETATM    5  C   UNK N   1      30.841  23.372  -4.922  0.00  0.00     0.092 C 
HETATM    6  N   UNK N   1      27.496  21.666  -8.626  0.00  0.00    -0.302 N 
HETATM    7  C   UNK N   1      26.200  21.769  -9.155  0.00  0.00     0.221 C 
HETATM    8  C   UNK N   1      25.765  21.132 -10.440  0.00  0.00     0.117 C 
HETATM    9  O   UNK N   1      25.318  22.349  -8.538  0.00  0.00    -0.273 OA
HETATM   10  C   UNK N   1      28.451  20.786  -9.311  0.00  0.00     0.068 A 
HETATM   11  C   UNK N   1      28.399  20.651 -10.716  0.00  0.00     0.032 A 
HETATM   12  C   UNK N   1      29.167  19.718 -11.408  0.00  0.00     0.005 A 
HETATM   13  C   UNK N   1      30.010  18.867 -10.711  0.00  0.00     0.039 A 
HETATM   14  C   UNK N   1      30.110  18.971  -9.329  0.00  0.00     0.094 A 
HETATM   15  C   UNK N   1      29.356  19.928  -8.618  0.00  0.00     0.093 A 
HETATM   16  N   UNK N   1      29.531  19.970  -7.225  0.00  0.00    -0.355 N 
HETATM   17  C   UNK N   1      29.938  21.163  -6.609  0.00  0.00     0.022 C 
HETATM   18  C   UNK N   1      31.279  21.162  -5.918  0.00  0.00     0.067 C 
HETATM   19  C   UNK N   1      31.215  21.926  -4.606  0.00  0.00    -0.036 C 
HETATM   20  C   UNK N   1      30.213  21.284  -3.655  0.00  0.00     0.015 C 
HETATM   21  C   UNK N   1      32.575  21.911  -3.940  0.00  0.00     0.015 C 
HETATM   22  H   UNK N   1      29.369  19.166  -6.683  0.00  0.00     0.166 HD
ENDROOT
BRANCH   1  23
HETATM   23  C   UNK N   1      26.966  23.497  -6.909  0.00  0.00    -0.008 A 
HETATM   24  C   UNK N   1      26.999  24.684  -7.692  0.00  0.00     0.044 A 
HETATM   25  C   UNK N   1      26.273  25.809  -7.276  0.00  0.00     0.048 A 
HETATM   26 Cl   UNK N   1      27.922  24.808  -9.183  0.00  0.00    -0.084 Cl
HETATM   27  C   UNK N   1      25.531  25.780  -6.092  0.00  0.00     0.035 A 
HETATM   28 Cl   UNK N   1      24.635  27.192  -5.575  0.00  0.00    -0.084 Cl
HETATM   29  C   UNK N   1      25.504  24.625  -5.315  0.00  0.00     0.024 A 
HETATM   30  C   UNK N   1      26.210  23.495  -5.722  0.00  0.00     0.013 A 
ENDBRANCH   1  23
BRANCH  14  31
HETATM   31  O   UNK N   1      30.942  18.144  -8.670  0.00  0.00    -0.358 OA
HETATM   32  H   UNK N   1      31.442  17.480  -9.104  0.00  0.00     0.217 HD
ENDBRANCH  14  31
TORSDOF 2
ENDMDL
MODEL 4
REMARK VINA RESULT:      -7.5      6.357      9.152
REMARK  2 active torsions:
REMARK  status: ('A' for Active; 'I' for Inactive)
REMARK    1  A    between atoms: C_9  and  C_8 
REMARK       I    between atoms: N_14  and  C_15 
REMARK    2  A    between atoms: C_22  and  O_23 
ROOT
HETATM    1  C   UNK N   1      29.656  15.184   5.642  0.00  0.00     0.166 C 
HETATM    2  C   UNK N   1      28.479  16.028   5.077  0.00  0.00     0.038 C 
HETATM    3  C   UNK N   1      28.151  16.090   3.591  0.00  0.00     0.160 C 
HETATM    4  O   UNK N   1      28.982  15.818   2.741  0.00  0.00    -0.293 OA
HETATM    5  C   UNK N   1      26.766  16.468   3.116  0.00  0.00     0.092 C 
HETATM    6  N   UNK N   1      30.585  15.736   6.681  0.00  0.00    -0.302 N 
HETATM    7  C   UNK N   1      31.704  14.968   7.041  0.00  0.00     0.221 C 
HETATM    8  C   UNK N   1      32.628  15.312   8.170  0.00  0.00     0.117 C 
HETATM    9  O   UNK N   1      31.946  13.913   6.474  0.00  0.00    -0.273 OA
HETATM   10  C   UNK N   1      30.232  16.880   7.531  0.00  0.00     0.068 A 
HETATM   11  C   UNK N   1      31.250  17.624   8.166  0.00  0.00     0.032 A 
HETATM   12  C   UNK N   1      30.978  18.615   9.105  0.00  0.00     0.005 A 
HETATM   13  C   UNK N   1      29.667  18.889   9.458  0.00  0.00     0.039 A 
HETATM   14  C   UNK N   1      28.627  18.196   8.850  0.00  0.00     0.094 A 
HETATM   15  C   UNK N   1      28.887  17.206   7.879  0.00  0.00     0.093 A 
HETATM   16  N   UNK N   1      27.775  16.567   7.308  0.00  0.00    -0.355 N 
HETATM   17  C   UNK N   1      27.592  16.596   5.917  0.00  0.00     0.022 C 
HETATM   18  C   UNK N   1      26.370  17.313   5.396  0.00  0.00     0.067 C 
HETATM   19  C   UNK N   1      25.741  16.548   4.244  0.00  0.00    -0.036 C 
HETATM   20  C   UNK N   1      25.296  15.162   4.696  0.00  0.00     0.015 C 
HETATM   21  C   UNK N   1      24.523  17.294   3.741  0.00  0.00     0.015 C 
HETATM   22  H   UNK N   1      27.126  16.099   7.881  0.00  0.00     0.166 HD
ENDROOT
BRANCH   1  23
HETATM   23  C   UNK N   1      30.336  14.394   4.508  0.00  0.00    -0.008 A 
HETATM   24  C   UNK N   1      31.386  14.905   3.697  0.00  0.00     0.044 A 
HETATM   25  C   UNK N   1      31.920  14.111   2.672  0.00  0.00     0.048 A 
HETATM   26 Cl   UNK N   1      32.059  16.514   3.922  0.00  0.00    -0.084 Cl
HETATM   27  C   UNK N   1      31.420  12.828   2.432  0.00  0.00     0.035 A 
HETATM   28 Cl   UNK N   1      32.086  11.846   1.145  0.00  0.00    -0.084 Cl
HETATM   29  C   UNK N   1      30.385  12.326   3.214  0.00  0.00     0.024 A 
HETATM   30  C   UNK N   1      29.852  13.100   4.244  0.00  0.00     0.013 A 
ENDBRANCH   1  23
BRANCH  14  31
HETATM   31  O   UNK N   1      27.359  18.483   9.198  0.00  0.00    -0.358 OA
HETATM   32  H   UNK N   1      27.028  19.359   9.220  0.00  0.00     0.217 HD
ENDBRANCH  14  31
TORSDOF 2
ENDMDL
MODEL 5
REMARK VINA RESULT:      -7.5     13.983     16.751
REMARK  2 active torsions:
REMARK  status: ('A' for Active; 'I' for Inactive)
REMARK    1  A    between atoms: C_9  and  C_8 
REMARK       I    between atoms: N_14  and  C_15 
REMARK    2  A    between atoms: C_22  and  O_23 
ROOT
HETATM    1  C   UNK N   1      27.301  25.337  -6.011  0.00  0.00     0.166 C 
HETATM    2  C   UNK N   1      28.557  24.714  -5.337  0.00  0.00     0.038 C 
HETATM    3  C   UNK N   1      29.448  25.495  -4.381  0.00  0.00     0.160 C 
HETATM    4  O   UNK N   1      29.474  26.713  -4.382  0.00  0.00    -0.293 OA
HETATM    5  C   UNK N   1      30.319  24.780  -3.373  0.00  0.00     0.092 C 
HETATM    6  N   UNK N   1      27.011  25.127  -7.467  0.00  0.00    -0.302 N 
HETATM    7  C   UNK N   1      25.938  25.832  -8.034  0.00  0.00     0.221 C 
HETATM    8  C   UNK N   1      25.430  25.608  -9.426  0.00  0.00     0.117 C 
HETATM    9  O   UNK N   1      25.303  26.641  -7.374  0.00  0.00    -0.273 OA
HETATM   10  C   UNK N   1      27.598  24.026  -8.241  0.00  0.00     0.068 A 
HETATM   11  C   UNK N   1      27.655  24.110  -9.649  0.00  0.00     0.032 A 
HETATM   12  C   UNK N   1      28.051  23.040 -10.447  0.00  0.00     0.005 A 
HETATM   13  C   UNK N   1      28.392  21.832  -9.861  0.00  0.00     0.039 A 
HETATM   14  C   UNK N   1      28.369  21.703  -8.477  0.00  0.00     0.094 A 
HETATM   15  C   UNK N   1      27.993  22.786  -7.655  0.00  0.00     0.093 A 
HETATM   16  N   UNK N   1      28.011  22.570  -6.268  0.00  0.00    -0.355 N 
HETATM   17  C   UNK N   1      28.794  23.392  -5.444  0.00  0.00     0.022 C 
HETATM   18  C   UNK N   1      29.932  22.739  -4.697  0.00  0.00     0.067 C 
HETATM   19  C   UNK N   1      30.035  23.282  -3.282  0.00  0.00    -0.036 C 
HETATM   20  C   UNK N   1      28.758  23.000  -2.501  0.00  0.00     0.015 C 
HETATM   21  C   UNK N   1      31.188  22.613  -2.562  0.00  0.00     0.015 C 
HETATM   22  H   UNK N   1      27.476  21.844  -5.875  0.00  0.00     0.166 HD
ENDROOT
BRANCH   1  23
HETATM   23  C   UNK N   1      27.079  26.772  -5.498  0.00  0.00    -0.008 A 
HETATM   24  C   UNK N   1      27.681  27.927  -6.070  0.00  0.00     0.044 A 
HETATM   25  C   UNK N   1      27.432  29.188  -5.509  0.00  0.00     0.048 A 
HETATM   26 Cl   UNK N   1      28.741  27.846  -7.471  0.00  0.00    -0.084 Cl
HETATM   27  C   UNK N   1      26.611  29.318  -4.386  0.00  0.00     0.035 A 
HETATM   28 Cl   UNK N   1      26.313  30.894  -3.687  0.00  0.00    -0.084 Cl
HETATM   29  C   UNK N   1      26.028  28.191  -3.815  0.00  0.00     0.024 A 
HETATM   30  C   UNK N   1      26.257  26.932  -4.368  0.00  0.00     0.013 A 
ENDBRANCH   1  23
BRANCH  14  31
HETATM   31  O   UNK N   1      28.713  20.526  -7.925  0.00  0.00    -0.358 OA
HETATM   32  H   UNK N   1      28.101  19.827  -7.803  0.00  0.00     0.217 HD
ENDBRANCH  14  31
TORSDOF 2
ENDMDL
MODEL 6
REMARK VINA RESULT:      -7.4      8.524     11.261
REMARK  2 active torsions:
REMARK  status: ('A' for Active; 'I' for Inactive)
REMARK    1  A    between atoms: C_9  and  C_8 
REMARK       I    between atoms: N_14  and  C_15 
REMARK    2  A    between atoms: C_22  and  O_23 
ROOT
HETATM    1  C   UNK N   1      31.867  15.771   7.100  0.00  0.00     0.166 C 
HETATM    2  C   UNK N   1      32.565  15.601   5.720  0.00  0.00     0.038 C 
HETATM    3  C   UNK N   1      34.079  15.564   5.564  0.00  0.00     0.160 C 
HETATM    4  O   UNK N   1      34.820  16.038   6.408  0.00  0.00    -0.293 OA
HETATM    5  C   UNK N   1      34.719  14.910   4.361  0.00  0.00     0.092 C 
HETATM    6  N   UNK N   1      30.711  16.708   7.280  0.00  0.00    -0.302 N 
HETATM    7  C   UNK N   1      30.223  16.911   8.581  0.00  0.00     0.221 C 
HETATM    8  C   UNK N   1      28.982  17.687   8.899  0.00  0.00     0.117 C 
HETATM    9  O   UNK N   1      30.771  16.389   9.542  0.00  0.00    -0.273 OA
HETATM   10  C   UNK N   1      29.896  17.185   6.157  0.00  0.00     0.068 A 
HETATM   11  C   UNK N   1      29.127  18.361   6.298  0.00  0.00     0.032 A 
HETATM   12  C   UNK N   1      28.215  18.779   5.332  0.00  0.00     0.005 A 
HETATM   13  C   UNK N   1      28.027  18.021   4.188  0.00  0.00     0.039 A 
HETATM   14  C   UNK N   1      28.772  16.864   3.994  0.00  0.00     0.094 A 
HETATM   15  C   UNK N   1      29.717  16.442   4.953  0.00  0.00     0.093 A 
HETATM   16  N   UNK N   1      30.433  15.269   4.668  0.00  0.00    -0.355 N 
HETATM   17  C   UNK N   1      31.835  15.300   4.628  0.00  0.00     0.022 C 
HETATM   18  C   UNK N   1      32.496  15.005   3.303  0.00  0.00     0.067 C 
HETATM   19  C   UNK N   1      33.729  14.137   3.493  0.00  0.00    -0.036 C 
HETATM   20  C   UNK N   1      33.358  12.801   4.122  0.00  0.00     0.015 C 
HETATM   21  C   UNK N   1      34.372  13.865   2.149  0.00  0.00     0.015 C 
HETATM   22  H   UNK N   1      29.954  14.426   4.495  0.00  0.00     0.166 HD
ENDROOT
BRANCH   1  23
HETATM   23  C   UNK N   1      32.917  15.800   8.226  0.00  0.00    -0.008 A 
HETATM   24  C   UNK N   1      33.605  16.972   8.647  0.00  0.00     0.044 A 
HETATM   25  C   UNK N   1      34.563  16.885   9.667  0.00  0.00     0.048 A 
HETATM   26 Cl   UNK N   1      33.303  18.553   7.938  0.00  0.00    -0.084 Cl
HETATM   27  C   UNK N   1      34.859  15.656  10.263  0.00  0.00     0.035 A 
HETATM   28 Cl   UNK N   1      36.062  15.554  11.529  0.00  0.00    -0.084 Cl
HETATM   29  C   UNK N   1      34.199  14.503   9.847  0.00  0.00     0.024 A 
HETATM   30  C   UNK N   1      33.236  14.576   8.843  0.00  0.00     0.013 A 
ENDBRANCH   1  23
BRANCH  14  31
HETATM   31  O   UNK N   1      28.583  16.146   2.872  0.00  0.00    -0.358 OA
HETATM   32  H   UNK N   1      29.284  15.706   2.431  0.00  0.00     0.217 HD
ENDBRANCH  14  31
TORSDOF 2
ENDMDL
MODEL 7
REMARK VINA RESULT:      -7.3     14.231     17.073
REMARK  2 active torsions:
REMARK  status: ('A' for Active; 'I' for Inactive)
REMARK    1  A    between atoms: C_9  and  C_8 
REMARK       I    between atoms: N_14  and  C_15 
REMARK    2  A    between atoms: C_22  and  O_23 
ROOT
HETATM    1  C   UNK N   1      27.194  24.830  -7.086  0.00  0.00     0.166 C 
HETATM    2  C   UNK N   1      27.477  26.045  -6.158  0.00  0.00     0.038 C 
HETATM    3  C   UNK N   1      27.556  27.474  -6.677  0.00  0.00     0.160 C 
HETATM    4  O   UNK N   1      27.786  27.717  -7.849  0.00  0.00    -0.293 OA
HETATM    5  C   UNK N   1      27.323  28.649  -5.755  0.00  0.00     0.092 C 
HETATM    6  N   UNK N   1      27.981  23.559  -6.971  0.00  0.00    -0.302 N 
HETATM    7  C   UNK N   1      27.762  22.558  -7.931  0.00  0.00     0.221 C 
HETATM    8  C   UNK N   1      28.352  21.182  -7.857  0.00  0.00     0.117 C 
HETATM    9  O   UNK N   1      27.001  22.748  -8.869  0.00  0.00    -0.273 OA
HETATM   10  C   UNK N   1      28.738  23.203  -5.765  0.00  0.00     0.068 A 
HETATM   11  C   UNK N   1      29.782  22.255  -5.845  0.00  0.00     0.032 A 
HETATM   12  C   UNK N   1      30.430  21.758  -4.718  0.00  0.00     0.005 A 
HETATM   13  C   UNK N   1      30.043  22.183  -3.457  0.00  0.00     0.039 A 
HETATM   14  C   UNK N   1      29.031  23.126  -3.325  0.00  0.00     0.094 A 
HETATM   15  C   UNK N   1      28.383  23.657  -4.460  0.00  0.00     0.093 A 
HETATM   16  N   UNK N   1      27.382  24.615  -4.232  0.00  0.00    -0.355 N 
HETATM   17  C   UNK N   1      27.486  25.885  -4.820  0.00  0.00     0.022 C 
HETATM   18  C   UNK N   1      27.632  27.066  -3.892  0.00  0.00     0.067 C 
HETATM   19  C   UNK N   1      26.803  28.244  -4.377  0.00  0.00    -0.036 C 
HETATM   20  C   UNK N   1      25.324  27.881  -4.421  0.00  0.00     0.015 C 
HETATM   21  C   UNK N   1      26.975  29.413  -3.430  0.00  0.00     0.015 C 
HETATM   22  H   UNK N   1      26.611  24.398  -3.662  0.00  0.00     0.166 HD
ENDROOT
BRANCH   1  23
HETATM   23  C   UNK N   1      26.930  25.310  -8.525  0.00  0.00    -0.008 A 
HETATM   24  C   UNK N   1      27.949  25.538  -9.491  0.00  0.00     0.044 A 
HETATM   25  C   UNK N   1      27.602  26.000 -10.768  0.00  0.00     0.048 A 
HETATM   26 Cl   UNK N   1      29.652  25.260  -9.153  0.00  0.00    -0.084 Cl
HETATM   27  C   UNK N   1      26.267  26.253 -11.096  0.00  0.00     0.035 A 
HETATM   28 Cl   UNK N   1      25.844  26.839 -12.690  0.00  0.00    -0.084 Cl
HETATM   29  C   UNK N   1      25.266  26.044 -10.152  0.00  0.00     0.024 A 
HETATM   30  C   UNK N   1      25.594  25.574  -8.882  0.00  0.00     0.013 A 
ENDBRANCH   1  23
BRANCH  14  31
HETATM   31  O   UNK N   1      28.676  23.535  -2.093  0.00  0.00    -0.358 OA
HETATM   32  H   UNK N   1      27.796  23.774  -1.875  0.00  0.00     0.217 HD
ENDBRANCH  14  31
TORSDOF 2
ENDMDL
MODEL 8
REMARK VINA RESULT:      -7.2      8.182     10.647
REMARK  2 active torsions:
REMARK  status: ('A' for Active; 'I' for Inactive)
REMARK    1  A    between atoms: C_9  and  C_8 
REMARK       I    between atoms: N_14  and  C_15 
REMARK    2  A    between atoms: C_22  and  O_23 
ROOT
HETATM    1  C   UNK N   1      31.928  15.893   6.007  0.00  0.00     0.166 C 
HETATM    2  C   UNK N   1      32.364  15.183   7.320  0.00  0.00     0.038 C 
HETATM    3  C   UNK N   1      33.104  13.853   7.328  0.00  0.00     0.160 C 
HETATM    4  O   UNK N   1      33.061  13.092   6.378  0.00  0.00    -0.293 OA
HETATM    5  C   UNK N   1      33.946  13.440   8.515  0.00  0.00     0.092 C 
HETATM    6  N   UNK N   1      30.564  16.495   5.860  0.00  0.00    -0.302 N 
HETATM    7  C   UNK N   1      30.194  16.996   4.601  0.00  0.00     0.221 C 
HETATM    8  C   UNK N   1      28.935  17.766   4.341  0.00  0.00     0.117 C 
HETATM    9  O   UNK N   1      30.941  16.881   3.641  0.00  0.00    -0.273 OA
HETATM   10  C   UNK N   1      29.724  16.845   7.013  0.00  0.00     0.068 A 
HETATM   11  C   UNK N   1      28.330  16.993   6.847  0.00  0.00     0.032 A 
HETATM   12  C   UNK N   1      27.503  17.474   7.859  0.00  0.00     0.005 A 
HETATM   13  C   UNK N   1      28.048  17.844   9.078  0.00  0.00     0.039 A 
HETATM   14  C   UNK N   1      29.413  17.703   9.297  0.00  0.00     0.094 A 
HETATM   15  C   UNK N   1      30.259  17.193   8.289  0.00  0.00     0.093 A 
HETATM   16  N   UNK N   1      31.622  17.072   8.603  0.00  0.00    -0.355 N 
HETATM   17  C   UNK N   1      32.253  15.823   8.501  0.00  0.00     0.022 C 
HETATM   18  C   UNK N   1      32.784  15.210   9.774  0.00  0.00     0.067 C 
HETATM   19  C   UNK N   1      34.135  14.555   9.540  0.00  0.00    -0.036 C 
HETATM   20  C   UNK N   1      35.158  15.582   9.069  0.00  0.00     0.015 C 
HETATM   21  C   UNK N   1      34.637  13.946  10.833  0.00  0.00     0.015 C 
HETATM   22  H   UNK N   1      32.134  17.860   8.894  0.00  0.00     0.166 HD
ENDROOT
BRANCH   1  23
HETATM   23  C   UNK N   1      32.431  15.103   4.784  0.00  0.00    -0.008 A 
HETATM   24  C   UNK N   1      31.723  14.026   4.183  0.00  0.00     0.044 A 
HETATM   25  C   UNK N   1      32.282  13.355   3.086  0.00  0.00     0.048 A 
HETATM   26 Cl   UNK N   1      30.152  13.487   4.760  0.00  0.00    -0.084 Cl
HETATM   27  C   UNK N   1      33.534  13.726   2.588  0.00  0.00     0.035 A 
HETATM   28 Cl   UNK N   1      34.229  12.878   1.224  0.00  0.00    -0.084 Cl
HETATM   29  C   UNK N   1      34.238  14.771   3.179  0.00  0.00     0.024 A 
HETATM   30  C   UNK N   1      33.690  15.454   4.262  0.00  0.00     0.013 A 
ENDBRANCH   1  23
BRANCH  14  31
HETATM   31  O   UNK N   1      29.924  18.057  10.490  0.00  0.00    -0.358 OA
HETATM   32  H   UNK N   1      30.541  17.525  10.952  0.00  0.00     0.217 HD
ENDBRANCH  14  31
TORSDOF 2
ENDMDL
MODEL 9
REMARK VINA RESULT:      -7.2     15.412     17.656
REMARK  2 active torsions:
REMARK  status: ('A' for Active; 'I' for Inactive)
REMARK    1  A    between atoms: C_9  and  C_8 
REMARK       I    between atoms: N_14  and  C_15 
REMARK    2  A    between atoms: C_22  and  O_23 
ROOT
HETATM    1  C   UNK N   1      36.292  11.983  12.789  0.00  0.00     0.166 C 
HETATM    2  C   UNK N   1      37.137  10.679  12.853  0.00  0.00     0.038 C 
HETATM    3  C   UNK N   1      37.593  10.059  14.166  0.00  0.00     0.160 C 
HETATM    4  O   UNK N   1      37.668  10.715  15.191  0.00  0.00    -0.293 OA
HETATM    5  C   UNK N   1      37.948   8.592  14.251  0.00  0.00     0.092 C 
HETATM    6  N   UNK N   1      36.611  13.074  11.812  0.00  0.00    -0.302 N 
HETATM    7  C   UNK N   1      35.892  14.276  11.907  0.00  0.00     0.221 C 
HETATM    8  C   UNK N   1      35.986  15.390  10.909  0.00  0.00     0.117 C 
HETATM    9  O   UNK N   1      35.077  14.447  12.802  0.00  0.00    -0.273 OA
HETATM   10  C   UNK N   1      37.416  12.846  10.606  0.00  0.00     0.068 A 
HETATM   11  C   UNK N   1      38.045  13.936   9.965  0.00  0.00     0.032 A 
HETATM   12  C   UNK N   1      38.687  13.813   8.736  0.00  0.00     0.005 A 
HETATM   13  C   UNK N   1      38.710  12.587   8.090  0.00  0.00     0.039 A 
HETATM   14  C   UNK N   1      38.120  11.479   8.687  0.00  0.00     0.094 A 
HETATM   15  C   UNK N   1      37.487  11.584   9.943  0.00  0.00     0.093 A 
HETATM   16  N   UNK N   1      36.930  10.411  10.476  0.00  0.00    -0.355 N 
HETATM   17  C   UNK N   1      37.343   9.953  11.736  0.00  0.00     0.022 C 
HETATM   18  C   UNK N   1      38.050   8.620  11.790  0.00  0.00     0.067 C 
HETATM   19  C   UNK N   1      37.591   7.809  12.990  0.00  0.00    -0.036 C 
HETATM   20  C   UNK N   1      36.096   7.527  12.910  0.00  0.00     0.015 C 
HETATM   21  C   UNK N   1      38.322   6.483  13.018  0.00  0.00     0.015 C 
HETATM   22  H   UNK N   1      36.252   9.911   9.968  0.00  0.00     0.166 HD
ENDROOT
BRANCH   1  23
HETATM   23  C   UNK N   1      35.939  12.457  14.211  0.00  0.00    -0.008 A 
HETATM   24  C   UNK N   1      34.807  12.007  14.945  0.00  0.00     0.044 A 
HETATM   25  C   UNK N   1      34.562  12.522  16.226  0.00  0.00     0.048 A 
HETATM   26 Cl   UNK N   1      33.683  10.813  14.313  0.00  0.00    -0.084 Cl
HETATM   27  C   UNK N   1      35.411  13.485  16.781  0.00  0.00     0.035 A 
HETATM   28 Cl   UNK N   1      35.093  14.129  18.376  0.00  0.00    -0.084 Cl
HETATM   29  C   UNK N   1      36.513  13.939  16.062  0.00  0.00     0.024 A 
HETATM   30  C   UNK N   1      36.776  13.427  14.793  0.00  0.00     0.013 A 
ENDBRANCH   1  23
BRANCH  14  31
HETATM   31  O   UNK N   1      38.161  10.295   8.050  0.00  0.00    -0.358 OA
HETATM   32  H   UNK N   1      38.632   9.557   8.387  0.00  0.00     0.217 HD
ENDBRANCH  14  31
TORSDOF 2
ENDMDL
