MODEL 1
REMARK VINA RESULT:      -4.9      0.000      0.000
REMARK  3 active torsions:
REMARK  status: ('A' for Active; 'I' for Inactive)
REMARK    1  A    between atoms: N_2  and  C_4 
REMARK    2  A    between atoms: C_7  and  C_8 
REMARK    3  A    between atoms: C_8  and  O_12 
ROOT
HETATM    1  C   UNK N   1      31.446  17.077   5.691  0.00  0.00     0.029 A 
HETATM    2  C   UNK N   1      31.100  17.247   7.043  0.00  0.00     0.030 A 
HETATM    3  C   UNK N   1      32.075  17.584   7.991  0.00  0.00     0.020 A 
HETATM    4  C   UNK N   1      33.412  17.757   7.605  0.00  0.00     0.037 A 
HETATM    5  C   UNK N   1      33.761  17.588   6.258  0.00  0.00     0.020 A 
HETATM    6  C   UNK N   1      32.787  17.252   5.310  0.00  0.00     0.030 A 
ENDROOT
BRANCH   4   7
HETATM    7  C   UNK N   1      34.447  18.113   8.603  0.00  0.00     0.176 C 
HETATM    8  O   UNK N   1      35.209  19.047   8.397  0.00  0.00    -0.646 OA
BRANCH   7   9
HETATM    9  O   UNK N   1      34.560  17.410   9.748  0.00  0.00    -0.773 OA
HETATM   10  H   UNK N   1      35.268  17.582  10.335  0.00  0.00     0.167 HD
ENDBRANCH   7   9
ENDBRANCH   4   7
BRANCH   1  11
HETATM   11  N   UNK N   1      30.451  16.733   4.721  0.00  0.00    -0.390 N 
HETATM   12  C   UNK N   1      29.056  16.672   5.082  0.00  0.00     0.149 C 
HETATM   13  C   UNK N   1      30.814  16.439   3.357  0.00  0.00     0.149 C 
ENDBRANCH   1  11
TORSDOF 3
ENDMDL
MODEL 2
REMARK VINA RESULT:      -4.8      3.492      4.701
REMARK  3 active torsions:
REMARK  status: ('A' for Active; 'I' for Inactive)
REMARK    1  A    between atoms: N_2  and  C_4 
REMARK    2  A    between atoms: C_7  and  C_8 
REMARK    3  A    between atoms: C_8  and  O_12 
ROOT
HETATM    1  C   UNK N   1      31.947  17.294   7.183  0.00  0.00     0.029 A 
HETATM    2  C   UNK N   1      31.830  17.979   8.405  0.00  0.00     0.030 A 
HETATM    3  C   UNK N   1      30.576  18.163   9.002  0.00  0.00     0.020 A 
HETATM    4  C   UNK N   1      29.417  17.665   8.387  0.00  0.00     0.037 A 
HETATM    5  C   UNK N   1      29.530  16.982   7.169  0.00  0.00     0.020 A 
HETATM    6  C   UNK N   1      30.783  16.799   6.572  0.00  0.00     0.030 A 
ENDROOT
BRANCH   4   7
HETATM    7  C   UNK N   1      28.088  17.856   9.014  0.00  0.00     0.176 C 
HETATM    8  O   UNK N   1      27.593  16.970   9.696  0.00  0.00    -0.646 OA
BRANCH   7   9
HETATM    9  O   UNK N   1      27.412  19.009   8.837  0.00  0.00    -0.773 OA
HETATM   10  H   UNK N   1      27.583  19.742   9.394  0.00  0.00     0.167 HD
ENDBRANCH   7   9
ENDBRANCH   4   7
BRANCH   1  11
HETATM   11  N   UNK N   1      33.228  17.106   6.572  0.00  0.00    -0.390 N 
HETATM   12  C   UNK N   1      34.342  16.593   7.331  0.00  0.00     0.149 C 
HETATM   13  C   UNK N   1      33.441  17.424   5.182  0.00  0.00     0.149 C 
ENDBRANCH   1  11
TORSDOF 3
ENDMDL
MODEL 3
REMARK VINA RESULT:      -4.8      2.096      3.025
REMARK  3 active torsions:
REMARK  status: ('A' for Active; 'I' for Inactive)
REMARK    1  A    between atoms: N_2  and  C_4 
REMARK    2  A    between atoms: C_7  and  C_8 
REMARK    3  A    between atoms: C_8  and  O_12 
ROOT
HETATM    1  C   UNK N   1      29.876  17.317   7.661  0.00  0.00     0.029 A 
HETATM    2  C   UNK N   1      30.430  16.902   6.436  0.00  0.00     0.030 A 
HETATM    3  C   UNK N   1      31.809  16.994   6.211  0.00  0.00     0.020 A 
HETATM    4  C   UNK N   1      32.659  17.502   7.204  0.00  0.00     0.037 A 
HETATM    5  C   UNK N   1      32.111  17.916   8.426  0.00  0.00     0.020 A 
HETATM    6  C   UNK N   1      30.732  17.824   8.652  0.00  0.00     0.030 A 
ENDROOT
BRANCH   4   7
HETATM    7  C   UNK N   1      34.119  17.602   6.972  0.00  0.00     0.176 C 
HETATM    8  O   UNK N   1      34.673  16.846   6.186  0.00  0.00    -0.646 OA
BRANCH   7   9
HETATM    9  O   UNK N   1      34.851  18.527   7.625  0.00  0.00    -0.773 OA
HETATM   10  H   UNK N   1      35.559  18.956   7.188  0.00  0.00     0.167 HD
ENDBRANCH   7   9
ENDBRANCH   4   7
BRANCH   1  11
HETATM   11  N   UNK N   1      28.466  17.223   7.892  0.00  0.00    -0.390 N 
HETATM   12  C   UNK N   1      27.908  17.514   9.190  0.00  0.00     0.149 C 
HETATM   13  C   UNK N   1      27.565  16.836   6.836  0.00  0.00     0.149 C 
ENDBRANCH   1  11
TORSDOF 3
ENDMDL
MODEL 4
REMARK VINA RESULT:      -4.7     10.651     12.060
REMARK  3 active torsions:
REMARK  status: ('A' for Active; 'I' for Inactive)
REMARK    1  A    between atoms: N_2  and  C_4 
REMARK    2  A    between atoms: C_7  and  C_8 
REMARK    3  A    between atoms: C_8  and  O_12 
ROOT
HETATM    1  C   UNK N   1      34.754  11.748  15.458  0.00  0.00     0.029 A 
HETATM    2  C   UNK N   1      34.753  13.010  16.078  0.00  0.00     0.030 A 
HETATM    3  C   UNK N   1      34.982  13.128  17.455  0.00  0.00     0.020 A 
HETATM    4  C   UNK N   1      35.217  11.987  18.236  0.00  0.00     0.037 A 
HETATM    5  C   UNK N   1      35.219  10.728  17.622  0.00  0.00     0.020 A 
HETATM    6  C   UNK N   1      34.989  10.609  16.246  0.00  0.00     0.030 A 
ENDROOT
BRANCH   4   7
HETATM    7  C   UNK N   1      35.461  12.106  19.692  0.00  0.00     0.176 C 
HETATM    8  O   UNK N   1      36.045  11.217  20.296  0.00  0.00    -0.646 OA
BRANCH   7   9
HETATM    9  O   UNK N   1      35.041  13.196  20.366  0.00  0.00    -0.773 OA
HETATM   10  H   UNK N   1      34.164  13.237  20.690  0.00  0.00     0.167 HD
ENDBRANCH   7   9
ENDBRANCH   4   7
BRANCH   1  11
HETATM   11  N   UNK N   1      34.519  11.626  14.051  0.00  0.00    -0.390 N 
HETATM   12  C   UNK N   1      33.821  10.485  13.513  0.00  0.00     0.149 C 
HETATM   13  C   UNK N   1      34.973  12.640  13.132  0.00  0.00     0.149 C 
ENDBRANCH   1  11
TORSDOF 3
ENDMDL
MODEL 5
REMARK VINA RESULT:      -4.7     16.824     17.387
REMARK  3 active torsions:
REMARK  status: ('A' for Active; 'I' for Inactive)
REMARK    1  A    between atoms: N_2  and  C_4 
REMARK    2  A    between atoms: C_7  and  C_8 
REMARK    3  A    between atoms: C_8  and  O_12 
ROOT
HETATM    1  C   UNK N   1      26.080  26.669  -6.878  0.00  0.00     0.029 A 
HETATM    2  C   UNK N   1      25.132  26.671  -5.840  0.00  0.00     0.030 A 
HETATM    3  C   UNK N   1      25.242  27.576  -4.776  0.00  0.00     0.020 A 
HETATM    4  C   UNK N   1      26.301  28.494  -4.731  0.00  0.00     0.037 A 
HETATM    5  C   UNK N   1      27.248  28.495  -5.764  0.00  0.00     0.020 A 
HETATM    6  C   UNK N   1      27.139  27.592  -6.827  0.00  0.00     0.030 A 
ENDROOT
BRANCH   4   7
HETATM    7  C   UNK N   1      26.422  29.453  -3.608  0.00  0.00     0.176 C 
HETATM    8  O   UNK N   1      26.947  29.113  -2.558  0.00  0.00    -0.646 OA
BRANCH   7   9
HETATM    9  O   UNK N   1      25.955  30.712  -3.735  0.00  0.00    -0.773 OA
HETATM   10  H   UNK N   1      26.416  31.424  -3.339  0.00  0.00     0.167 HD
ENDBRANCH   7   9
ENDBRANCH   4   7
BRANCH   1  11
HETATM   11  N   UNK N   1      25.969  25.745  -7.966  0.00  0.00    -0.390 N 
HETATM   12  C   UNK N   1      25.758  24.340  -7.724  0.00  0.00     0.149 C 
HETATM   13  C   UNK N   1      26.066  26.193  -9.333  0.00  0.00     0.149 C 
ENDBRANCH   1  11
TORSDOF 3
ENDMDL
MODEL 6
REMARK VINA RESULT:      -4.7     10.645     11.665
REMARK  3 active torsions:
REMARK  status: ('A' for Active; 'I' for Inactive)
REMARK    1  A    between atoms: N_2  and  C_4 
REMARK    2  A    between atoms: C_7  and  C_8 
REMARK    3  A    between atoms: C_8  and  O_12 
ROOT
HETATM    1  C   UNK N   1      21.491  13.468   8.413  0.00  0.00     0.029 A 
HETATM    2  C   UNK N   1      20.795  13.176   9.599  0.00  0.00     0.030 A 
HETATM    3  C   UNK N   1      21.481  12.734  10.737  0.00  0.00     0.020 A 
HETATM    4  C   UNK N   1      22.874  12.576  10.710  0.00  0.00     0.037 A 
HETATM    5  C   UNK N   1      23.572  12.865   9.530  0.00  0.00     0.020 A 
HETATM    6  C   UNK N   1      22.887  13.307   8.392  0.00  0.00     0.030 A 
ENDROOT
BRANCH   4   7
HETATM    7  C   UNK N   1      23.605  12.108  11.911  0.00  0.00     0.176 C 
HETATM    8  O   UNK N   1      22.993  11.699  12.888  0.00  0.00    -0.646 OA
BRANCH   7   9
HETATM    9  O   UNK N   1      24.953  12.129  11.939  0.00  0.00    -0.773 OA
HETATM   10  H   UNK N   1      25.407  11.999  12.748  0.00  0.00     0.167 HD
ENDBRANCH   7   9
ENDBRANCH   4   7
BRANCH   1  11
HETATM   11  N   UNK N   1      20.791  13.920   7.249  0.00  0.00    -0.390 N 
HETATM   12  C   UNK N   1      20.561  13.036   6.133  0.00  0.00     0.149 C 
HETATM   13  C   UNK N   1      20.297  15.272   7.158  0.00  0.00     0.149 C 
ENDBRANCH   1  11
TORSDOF 3
ENDMDL
MODEL 7
REMARK VINA RESULT:      -4.6      3.494      4.752
REMARK  3 active torsions:
REMARK  status: ('A' for Active; 'I' for Inactive)
REMARK    1  A    between atoms: N_2  and  C_4 
REMARK    2  A    between atoms: C_7  and  C_8 
REMARK    3  A    between atoms: C_8  and  O_12 
ROOT
HETATM    1  C   UNK N   1      32.141  17.138   7.326  0.00  0.00     0.029 A 
HETATM    2  C   UNK N   1      31.042  16.893   6.483  0.00  0.00     0.030 A 
HETATM    3  C   UNK N   1      29.769  17.370   6.817  0.00  0.00     0.020 A 
HETATM    4  C   UNK N   1      29.570  18.101   7.997  0.00  0.00     0.037 A 
HETATM    5  C   UNK N   1      30.663  18.348   8.839  0.00  0.00     0.020 A 
HETATM    6  C   UNK N   1      31.936  17.871   8.507  0.00  0.00     0.030 A 
ENDROOT
BRANCH   4   7
HETATM    7  C   UNK N   1      28.225  18.609   8.355  0.00  0.00     0.176 C 
HETATM    8  O   UNK N   1      27.721  19.525   7.721  0.00  0.00    -0.646 OA
BRANCH   7   9
HETATM    9  O   UNK N   1      27.544  18.065   9.384  0.00  0.00    -0.773 OA
HETATM   10  H   UNK N   1      26.837  18.536   9.777  0.00  0.00     0.167 HD
ENDBRANCH   7   9
ENDBRANCH   4   7
BRANCH   1  11
HETATM   11  N   UNK N   1      33.444  16.651   6.986  0.00  0.00    -0.390 N 
HETATM   12  C   UNK N   1      33.884  16.610   5.614  0.00  0.00     0.149 C 
HETATM   13  C   UNK N   1      34.352  16.187   8.006  0.00  0.00     0.149 C 
ENDBRANCH   1  11
TORSDOF 3
ENDMDL
MODEL 8
REMARK VINA RESULT:      -4.6     11.578     12.817
REMARK  3 active torsions:
REMARK  status: ('A' for Active; 'I' for Inactive)
REMARK    1  A    between atoms: N_2  and  C_4 
REMARK    2  A    between atoms: C_7  and  C_8 
REMARK    3  A    between atoms: C_8  and  O_12 
ROOT
HETATM    1  C   UNK N   1      20.864  17.760   4.295  0.00  0.00     0.029 A 
HETATM    2  C   UNK N   1      21.880  18.731   4.267  0.00  0.00     0.030 A 
HETATM    3  C   UNK N   1      21.902  19.711   3.266  0.00  0.00     0.020 A 
HETATM    4  C   UNK N   1      20.908  19.738   2.277  0.00  0.00     0.037 A 
HETATM    5  C   UNK N   1      19.893  18.771   2.302  0.00  0.00     0.020 A 
HETATM    6  C   UNK N   1      19.871  17.792   3.302  0.00  0.00     0.030 A 
ENDROOT
BRANCH   4   7
HETATM    7  C   UNK N   1      20.926  20.772   1.216  0.00  0.00     0.176 C 
HETATM    8  O   UNK N   1      21.088  20.455   0.046  0.00  0.00    -0.646 OA
BRANCH   7   9
HETATM    9  O   UNK N   1      20.763  22.073   1.531  0.00  0.00    -0.773 OA
HETATM   10  H   UNK N   1      19.912  22.461   1.491  0.00  0.00     0.167 HD
ENDBRANCH   7   9
ENDBRANCH   4   7
BRANCH   1  11
HETATM   11  N   UNK N   1      20.841  16.758   5.317  0.00  0.00    -0.390 N 
HETATM   12  C   UNK N   1      19.658  15.967   5.553  0.00  0.00     0.149 C 
HETATM   13  C   UNK N   1      21.998  16.510   6.140  0.00  0.00     0.149 C 
ENDBRANCH   1  11
TORSDOF 3
ENDMDL
MODEL 9
REMARK VINA RESULT:      -4.6     15.165     16.373
REMARK  3 active torsions:
REMARK  status: ('A' for Active; 'I' for Inactive)
REMARK    1  A    between atoms: N_2  and  C_4 
REMARK    2  A    between atoms: C_7  and  C_8 
REMARK    3  A    between atoms: C_8  and  O_12 
ROOT
HETATM    1  C   UNK N   1      25.933  24.701  -6.614  0.00  0.00     0.029 A 
HETATM    2  C   UNK N   1      25.540  26.021  -6.896  0.00  0.00     0.030 A 
HETATM    3  C   UNK N   1      25.497  26.984  -5.880  0.00  0.00     0.020 A 
HETATM    4  C   UNK N   1      25.845  26.645  -4.565  0.00  0.00     0.037 A 
HETATM    5  C   UNK N   1      26.238  25.330  -4.279  0.00  0.00     0.020 A 
HETATM    6  C   UNK N   1      26.281  24.367  -5.294  0.00  0.00     0.030 A 
ENDROOT
BRANCH   4   7
HETATM    7  C   UNK N   1      25.801  27.660  -3.486  0.00  0.00     0.176 C 
HETATM    8  O   UNK N   1      25.873  27.320  -2.314  0.00  0.00    -0.646 OA
BRANCH   7   9
HETATM    9  O   UNK N   1      25.682  28.969  -3.787  0.00  0.00    -0.773 OA
HETATM   10  H   UNK N   1      25.005  29.480  -3.390  0.00  0.00     0.167 HD
ENDBRANCH   7   9
ENDBRANCH   4   7
BRANCH   1  11
HETATM   11  N   UNK N   1      25.978  23.715  -7.651  0.00  0.00    -0.390 N 
HETATM   12  C   UNK N   1      25.387  23.972  -8.942  0.00  0.00     0.149 C 
HETATM   13  C   UNK N   1      26.614  22.439  -7.436  0.00  0.00     0.149 C 
ENDBRANCH   1  11
TORSDOF 3
ENDMDL
